MODEL 1
REMARK VINA RESULT:      -7.3      0.000      0.000
REMARK  2 active torsions:
REMARK  status: ('A' for Active; 'I' for Inactive)
REMARK    1  A    between atoms: C_7  and  N_8 
REMARK    2  A    between atoms: N_8  and  C_9 
ROOT
HETATM    1  C   UNL     1     -45.202 -54.445  13.518  1.00  0.00     0.070 C 
HETATM    2  C   UNL     1     -43.828 -53.982  13.136  1.00  0.00     0.029 A 
HETATM    3  N   UNL     1     -43.739 -53.193  12.046  1.00  0.00    -0.303 N 
ATOM      4  HN  UNL     1     -44.578 -52.985  11.505  1.00  0.00     0.186 HD
HETATM    5  N   UNL     1     -42.525 -52.664  11.653  1.00  0.00    -0.289 N 
ATOM      6  HN  UNL     1     -42.485 -52.067  10.826  1.00  0.00     0.188 HD
HETATM    7  C   UNL     1     -41.394 -52.917  12.334  1.00  0.00     0.117 A 
HETATM    8  C   UNL     1     -41.465 -53.753  13.459  1.00  0.00     0.092 A 
HETATM    9  C   UNL     1     -40.260 -54.037  14.180  1.00  0.00     0.103 C 
HETATM   10  N   UNL     1     -39.280 -54.303  14.741  1.00  0.00    -0.191 NA
HETATM   11  C   UNL     1     -42.693 -54.310  13.875  1.00  0.00    -0.014 A 
HETATM   12  C   UNL     1     -42.817 -55.196  15.087  1.00  0.00     0.052 C 
ENDROOT
BRANCH   7  13
HETATM   13  N   UNL     1     -40.181 -52.276  11.989  1.00  0.00    -0.269 NA
HETATM   14  H   UNL     1     -40.079 -52.274  10.975  1.00  0.00     0.129 HD
BRANCH  13  15
HETATM   15  C   UNL     1     -39.959 -50.932  12.529  1.00  0.00     0.093 C 
HETATM   16  C   UNL     1     -39.916 -49.888  11.393  1.00  0.00     0.054 C 
HETATM   17  C   UNL     1     -38.687 -49.047  11.761  1.00  0.00     0.123 C 
HETATM   18  C   UNL     1     -37.407 -49.757  11.344  1.00  0.00     0.034 C 
HETATM   19  O   UNL     1     -38.614 -49.206  13.194  1.00  0.00    -0.379 OA
HETATM   20  C   UNL     1     -37.403 -50.955  12.295  1.00  0.00     0.036 C 
HETATM   21  C   UNL     1     -38.604 -50.663  13.203  1.00  0.00     0.140 C 
ENDBRANCH  13  15
ENDBRANCH   7  13
TORSDOF 2
ENDMDL
MODEL 2
REMARK VINA RESULT:      -6.1      2.355      5.636
REMARK  2 active torsions:
REMARK  status: ('A' for Active; 'I' for Inactive)
REMARK    1  A    between atoms: C_7  and  N_8 
REMARK    2  A    between atoms: N_8  and  C_9 
ROOT
HETATM    1  C   UNL     1     -38.234 -49.474  11.768  1.00  0.00     0.070 C 
HETATM    2  C   UNL     1     -39.288 -50.503  12.050  1.00  0.00     0.029 A 
HETATM    3  N   UNL     1     -40.237 -50.668  11.107  1.00  0.00    -0.303 N 
ATOM      4  HN  UNL     1     -40.235 -50.070  10.281  1.00  0.00     0.186 HD
HETATM    5  N   UNL     1     -41.213 -51.636  11.246  1.00  0.00    -0.289 N 
ATOM      6  HN  UNL     1     -41.917 -51.743  10.516  1.00  0.00     0.188 HD
HETATM    7  C   UNL     1     -41.255 -52.441  12.322  1.00  0.00     0.117 A 
HETATM    8  C   UNL     1     -40.288 -52.270  13.324  1.00  0.00     0.092 A 
HETATM    9  C   UNL     1     -40.337 -53.116  14.478  1.00  0.00     0.103 C 
HETATM   10  N   UNL     1     -40.400 -53.771  15.434  1.00  0.00    -0.191 NA
HETATM   11  C   UNL     1     -39.286 -51.282  13.206  1.00  0.00    -0.014 A 
HETATM   12  C   UNL     1     -38.217 -51.077  14.248  1.00  0.00     0.052 C 
ENDROOT
BRANCH   7  13
HETATM   13  N   UNL     1     -42.187 -53.503  12.396  1.00  0.00    -0.269 NA
HETATM   14  H   UNL     1     -41.913 -54.141  13.143  1.00  0.00     0.129 HD
BRANCH  13  15
HETATM   15  C   UNL     1     -43.601 -53.142  12.525  1.00  0.00     0.093 C 
HETATM   16  C   UNL     1     -43.795 -52.078  13.627  1.00  0.00     0.054 C 
HETATM   17  C   UNL     1     -44.995 -52.624  14.410  1.00  0.00     0.123 C 
HETATM   18  C   UNL     1     -44.557 -53.729  15.360  1.00  0.00     0.034 C 
HETATM   19  O   UNL     1     -45.693 -53.404  13.414  1.00  0.00    -0.379 OA
HETATM   20  C   UNL     1     -44.154 -54.830  14.379  1.00  0.00     0.036 C 
HETATM   21  C   UNL     1     -44.561 -54.235  13.025  1.00  0.00     0.140 C 
ENDBRANCH  13  15
ENDBRANCH   7  13
TORSDOF 2
ENDMDL
MODEL 3
REMARK VINA RESULT:      -6.0      2.880      4.283
REMARK  2 active torsions:
REMARK  status: ('A' for Active; 'I' for Inactive)
REMARK    1  A    between atoms: C_7  and  N_8 
REMARK    2  A    between atoms: N_8  and  C_9 
ROOT
HETATM    1  C   UNL     1     -41.102 -53.717  12.810  1.00  0.00     0.070 C 
HETATM    2  C   UNL     1     -40.524 -52.372  12.485  1.00  0.00     0.029 A 
HETATM    3  N   UNL     1     -40.947 -51.793  11.344  1.00  0.00    -0.303 N 
ATOM      4  HN  UNL     1     -41.590 -52.296  10.733  1.00  0.00     0.186 HD
HETATM    5  N   UNL     1     -40.521 -50.527  10.992  1.00  0.00    -0.289 N 
ATOM      6  HN  UNL     1     -40.860 -50.110  10.124  1.00  0.00     0.188 HD
HETATM    7  C   UNL     1     -39.670 -49.831  11.766  1.00  0.00     0.117 A 
HETATM    8  C   UNL     1     -39.202 -50.427  12.947  1.00  0.00     0.092 A 
HETATM    9  C   UNL     1     -38.285 -49.695  13.768  1.00  0.00     0.103 C 
HETATM   10  N   UNL     1     -37.509 -49.123  14.414  1.00  0.00    -0.191 NA
HETATM   11  C   UNL     1     -39.619 -51.722  13.323  1.00  0.00    -0.014 A 
HETATM   12  C   UNL     1     -39.157 -52.391  14.591  1.00  0.00     0.052 C 
ENDROOT
BRANCH   7  13
HETATM   13  N   UNL     1     -39.334 -48.493  11.453  1.00  0.00    -0.269 NA
HETATM   14  H   UNL     1     -38.850 -48.469  10.556  1.00  0.00     0.129 HD
BRANCH  13  15
HETATM   15  C   UNL     1     -40.420 -47.510  11.474  1.00  0.00     0.093 C 
HETATM   16  C   UNL     1     -39.992 -46.208  10.763  1.00  0.00     0.054 C 
HETATM   17  C   UNL     1     -40.467 -45.124  11.739  1.00  0.00     0.123 C 
HETATM   18  C   UNL     1     -39.488 -44.979  12.895  1.00  0.00     0.034 C 
HETATM   19  O   UNL     1     -41.568 -45.769  12.415  1.00  0.00    -0.379 OA
HETATM   20  C   UNL     1     -39.674 -46.313  13.619  1.00  0.00     0.036 C 
HETATM   21  C   UNL     1     -40.834 -46.952  12.846  1.00  0.00     0.140 C 
ENDBRANCH  13  15
ENDBRANCH   7  13
TORSDOF 2
ENDMDL
MODEL 4
REMARK VINA RESULT:      -5.8      2.754      5.756
REMARK  2 active torsions:
REMARK  status: ('A' for Active; 'I' for Inactive)
REMARK    1  A    between atoms: C_7  and  N_8 
REMARK    2  A    between atoms: N_8  and  C_9 
ROOT
HETATM    1  C   UNL     1     -40.805 -45.673  10.677  1.00  0.00     0.070 C 
HETATM    2  C   UNL     1     -40.640 -47.113  11.062  1.00  0.00     0.029 A 
HETATM    3  N   UNL     1     -41.146 -48.026  10.209  1.00  0.00    -0.303 N 
ATOM      4  HN  UNL     1     -41.653 -47.715   9.380  1.00  0.00     0.186 HD
HETATM    5  N   UNL     1     -40.988 -49.379  10.443  1.00  0.00    -0.289 N 
ATOM      6  HN  UNL     1     -41.377 -50.049   9.780  1.00  0.00     0.188 HD
HETATM    7  C   UNL     1     -40.331 -49.832  11.526  1.00  0.00     0.117 A 
HETATM    8  C   UNL     1     -39.816 -48.896  12.435  1.00  0.00     0.092 A 
HETATM    9  C   UNL     1     -39.129 -49.374  13.597  1.00  0.00     0.103 C 
HETATM   10  N   UNL     1     -38.608 -49.758  14.560  1.00  0.00    -0.191 NA
HETATM   11  C   UNL     1     -39.973 -47.510  12.219  1.00  0.00    -0.014 A 
HETATM   12  C   UNL     1     -39.419 -46.471  13.159  1.00  0.00     0.052 C 
ENDROOT
BRANCH   7  13
HETATM   13  N   UNL     1     -40.076 -51.213  11.692  1.00  0.00    -0.269 NA
HETATM   14  H   UNL     1     -39.361 -51.339  12.407  1.00  0.00     0.129 HD
BRANCH  13  15
HETATM   15  C   UNL     1     -41.228 -52.077  11.962  1.00  0.00     0.093 C 
HETATM   16  C   UNL     1     -42.081 -51.506  13.115  1.00  0.00     0.054 C 
HETATM   17  C   UNL     1     -42.339 -52.743  13.983  1.00  0.00     0.123 C 
HETATM   18  C   UNL     1     -41.126 -53.053  14.849  1.00  0.00     0.034 C 
HETATM   19  O   UNL     1     -42.254 -53.822  13.027  1.00  0.00    -0.379 OA
HETATM   20  C   UNL     1     -40.103 -53.479  13.795  1.00  0.00     0.036 C 
HETATM   21  C   UNL     1     -40.935 -53.485  12.507  1.00  0.00     0.140 C 
ENDBRANCH  13  15
ENDBRANCH   7  13
TORSDOF 2
ENDMDL
MODEL 5
REMARK VINA RESULT:      -5.8      3.337      4.481
REMARK  2 active torsions:
REMARK  status: ('A' for Active; 'I' for Inactive)
REMARK    1  A    between atoms: C_7  and  N_8 
REMARK    2  A    between atoms: N_8  and  C_9 
ROOT
HETATM    1  C   UNL     1     -46.832 -51.619  12.142  1.00  0.00     0.070 C 
HETATM    2  C   UNL     1     -45.757 -52.469  12.752  1.00  0.00     0.029 A 
HETATM    3  N   UNL     1     -44.724 -52.800  11.953  1.00  0.00    -0.303 N 
ATOM      4  HN  UNL     1     -44.732 -52.511  10.974  1.00  0.00     0.186 HD
HETATM    5  N   UNL     1     -43.654 -53.525  12.441  1.00  0.00    -0.289 N 
ATOM      6  HN  UNL     1     -42.883 -53.759  11.816  1.00  0.00     0.188 HD
HETATM    7  C   UNL     1     -43.607 -53.929  13.723  1.00  0.00     0.117 A 
HETATM    8  C   UNL     1     -44.684 -53.612  14.564  1.00  0.00     0.092 A 
HETATM    9  C   UNL     1     -44.644 -54.054  15.926  1.00  0.00     0.103 C 
HETATM   10  N   UNL     1     -44.634 -54.446  17.018  1.00  0.00    -0.191 NA
HETATM   11  C   UNL     1     -45.790 -52.879  14.084  1.00  0.00    -0.014 A 
HETATM   12  C   UNL     1     -46.957 -52.500  14.958  1.00  0.00     0.052 C 
ENDROOT
BRANCH   7  13
HETATM   13  N   UNL     1     -42.455 -54.569  14.238  1.00  0.00    -0.269 NA
HETATM   14  H   UNL     1     -42.228 -55.375  13.655  1.00  0.00     0.129 HD
BRANCH  13  15
HETATM   15  C   UNL     1     -41.266 -53.738  14.446  1.00  0.00     0.093 C 
HETATM   16  C   UNL     1     -40.064 -54.297  13.656  1.00  0.00     0.054 C 
HETATM   17  C   UNL     1     -38.933 -54.246  14.690  1.00  0.00     0.123 C 
HETATM   18  C   UNL     1     -39.029 -55.425  15.648  1.00  0.00     0.034 C 
HETATM   19  O   UNL     1     -39.351 -53.173  15.562  1.00  0.00    -0.379 OA
HETATM   20  C   UNL     1     -40.315 -55.094  16.407  1.00  0.00     0.036 C 
HETATM   21  C   UNL     1     -40.674 -53.705  15.864  1.00  0.00     0.140 C 
ENDBRANCH  13  15
ENDBRANCH   7  13
TORSDOF 2
ENDMDL
MODEL 6
REMARK VINA RESULT:      -5.5      2.193      3.051
REMARK  2 active torsions:
REMARK  status: ('A' for Active; 'I' for Inactive)
REMARK    1  A    between atoms: C_7  and  N_8 
REMARK    2  A    between atoms: N_8  and  C_9 
ROOT
HETATM    1  C   UNL     1     -43.557 -55.267  14.653  1.00  0.00     0.070 C 
HETATM    2  C   UNL     1     -42.934 -54.199  13.805  1.00  0.00     0.029 A 
HETATM    3  N   UNL     1     -43.731 -53.618  12.887  1.00  0.00    -0.303 N 
ATOM      4  HN  UNL     1     -44.689 -53.949  12.769  1.00  0.00     0.186 HD
HETATM    5  N   UNL     1     -43.268 -52.579  12.102  1.00  0.00    -0.289 N 
ATOM      6  HN  UNL     1     -43.893 -52.154  11.417  1.00  0.00     0.188 HD
HETATM    7  C   UNL     1     -42.011 -52.116  12.222  1.00  0.00     0.117 A 
HETATM    8  C   UNL     1     -41.161 -52.723  13.158  1.00  0.00     0.092 A 
HETATM    9  C   UNL     1     -39.817 -52.241  13.278  1.00  0.00     0.103 C 
HETATM   10  N   UNL     1     -38.716 -51.883  13.349  1.00  0.00    -0.191 NA
HETATM   11  C   UNL     1     -41.611 -53.790  13.965  1.00  0.00    -0.014 A 
HETATM   12  C   UNL     1     -40.739 -54.457  14.996  1.00  0.00     0.052 C 
ENDROOT
BRANCH   7  13
HETATM   13  N   UNL     1     -41.587 -50.978  11.495  1.00  0.00    -0.269 NA
HETATM   14  H   UNL     1     -42.144 -50.894  10.646  1.00  0.00     0.129 HD
BRANCH  13  15
HETATM   15  C   UNL     1     -41.555 -49.701  12.214  1.00  0.00     0.093 C 
HETATM   16  C   UNL     1     -42.978 -49.273  12.630  1.00  0.00     0.054 C 
HETATM   17  C   UNL     1     -43.011 -47.793  12.231  1.00  0.00     0.123 C 
HETATM   18  C   UNL     1     -43.255 -47.647  10.735  1.00  0.00     0.034 C 
HETATM   19  O   UNL     1     -41.618 -47.416  12.301  1.00  0.00    -0.379 OA
HETATM   20  C   UNL     1     -41.956 -48.214  10.160  1.00  0.00     0.036 C 
HETATM   21  C   UNL     1     -41.115 -48.461  11.419  1.00  0.00     0.140 C 
ENDBRANCH  13  15
ENDBRANCH   7  13
TORSDOF 2
ENDMDL
MODEL 7
REMARK VINA RESULT:      -5.5      1.871      2.946
REMARK  2 active torsions:
REMARK  status: ('A' for Active; 'I' for Inactive)
REMARK    1  A    between atoms: C_7  and  N_8 
REMARK    2  A    between atoms: N_8  and  C_9 
ROOT
HETATM    1  C   UNL     1     -44.533 -54.519  13.592  1.00  0.00     0.070 C 
HETATM    2  C   UNL     1     -43.545 -53.494  13.124  1.00  0.00     0.029 A 
HETATM    3  N   UNL     1     -42.433 -53.960  12.520  1.00  0.00    -0.303 N 
ATOM      4  HN  UNL     1     -42.283 -54.966  12.449  1.00  0.00     0.186 HD
HETATM    5  N   UNL     1     -41.494 -53.091  11.997  1.00  0.00    -0.289 N 
ATOM      6  HN  UNL     1     -40.663 -53.470  11.542  1.00  0.00     0.188 HD
HETATM    7  C   UNL     1     -41.651 -51.758  12.074  1.00  0.00     0.117 A 
HETATM    8  C   UNL     1     -42.791 -51.255  12.718  1.00  0.00     0.092 A 
HETATM    9  C   UNL     1     -42.955 -49.836  12.814  1.00  0.00     0.103 C 
HETATM   10  N   UNL     1     -43.070 -48.687  12.932  1.00  0.00    -0.191 NA
HETATM   11  C   UNL     1     -43.759 -52.124  13.265  1.00  0.00    -0.014 A 
HETATM   12  C   UNL     1     -45.008 -51.627  13.947  1.00  0.00     0.052 C 
ENDROOT
BRANCH   7  13
HETATM   13  N   UNL     1     -40.741 -50.884  11.433  1.00  0.00    -0.269 NA
HETATM   14  H   UNL     1     -41.173 -49.966  11.330  1.00  0.00     0.129 HD
BRANCH  13  15
HETATM   15  C   UNL     1     -39.406 -50.758  12.024  1.00  0.00     0.093 C 
HETATM   16  C   UNL     1     -39.499 -50.629  13.559  1.00  0.00     0.054 C 
HETATM   17  C   UNL     1     -38.538 -49.470  13.854  1.00  0.00     0.123 C 
HETATM   18  C   UNL     1     -39.205 -48.133  13.561  1.00  0.00     0.034 C 
HETATM   19  O   UNL     1     -37.611 -49.541  12.749  1.00  0.00    -0.379 OA
HETATM   20  C   UNL     1     -39.347 -48.192  12.040  1.00  0.00     0.036 C 
HETATM   21  C   UNL     1     -38.608 -49.489  11.687  1.00  0.00     0.140 C 
ENDBRANCH  13  15
ENDBRANCH   7  13
TORSDOF 2
ENDMDL
MODEL 8
REMARK VINA RESULT:      -5.4      2.422      5.927
REMARK  2 active torsions:
REMARK  status: ('A' for Active; 'I' for Inactive)
REMARK    1  A    between atoms: C_7  and  N_8 
REMARK    2  A    between atoms: N_8  and  C_9 
ROOT
HETATM    1  C   UNL     1     -40.731 -47.227  11.215  1.00  0.00     0.070 C 
HETATM    2  C   UNL     1     -41.021 -48.619  11.691  1.00  0.00     0.029 A 
HETATM    3  N   UNL     1     -42.294 -49.044  11.569  1.00  0.00    -0.303 N 
ATOM      4  HN  UNL     1     -43.006 -48.406  11.214  1.00  0.00     0.186 HD
HETATM    5  N   UNL     1     -42.646 -50.334  11.920  1.00  0.00    -0.289 N 
ATOM      6  HN  UNL     1     -43.616 -50.632  11.814  1.00  0.00     0.188 HD
HETATM    7  C   UNL     1     -41.740 -51.204  12.397  1.00  0.00     0.117 A 
HETATM    8  C   UNL     1     -40.414 -50.772  12.550  1.00  0.00     0.092 A 
HETATM    9  C   UNL     1     -39.448 -51.692  13.071  1.00  0.00     0.103 C 
HETATM   10  N   UNL     1     -38.672 -52.421  13.533  1.00  0.00    -0.191 NA
HETATM   11  C   UNL     1     -40.033 -49.458  12.205  1.00  0.00    -0.014 A 
HETATM   12  C   UNL     1     -38.618 -48.958  12.335  1.00  0.00     0.052 C 
ENDROOT
BRANCH   7  13
HETATM   13  N   UNL     1     -42.090 -52.553  12.641  1.00  0.00    -0.269 NA
HETATM   14  H   UNL     1     -41.280 -53.148  12.469  1.00  0.00     0.129 HD
BRANCH  13  15
HETATM   15  C   UNL     1     -42.685 -52.863  13.944  1.00  0.00     0.093 C 
HETATM   16  C   UNL     1     -42.622 -54.379  14.226  1.00  0.00     0.054 C 
HETATM   17  C   UNL     1     -44.036 -54.681  14.738  1.00  0.00     0.123 C 
HETATM   18  C   UNL     1     -45.013 -54.797  13.577  1.00  0.00     0.034 C 
HETATM   19  O   UNL     1     -44.447 -53.414  15.295  1.00  0.00    -0.379 OA
HETATM   20  C   UNL     1     -45.046 -53.357  13.065  1.00  0.00     0.036 C 
HETATM   21  C   UNL     1     -44.194 -52.615  14.102  1.00  0.00     0.140 C 
ENDBRANCH  13  15
ENDBRANCH   7  13
TORSDOF 2
ENDMDL
MODEL 9
REMARK VINA RESULT:      -5.4      2.385      3.398
REMARK  2 active torsions:
REMARK  status: ('A' for Active; 'I' for Inactive)
REMARK    1  A    between atoms: C_7  and  N_8 
REMARK    2  A    between atoms: N_8  and  C_9 
ROOT
HETATM    1  C   UNL     1     -46.826 -51.951  12.041  1.00  0.00     0.070 C 
HETATM    2  C   UNL     1     -45.566 -52.407  12.713  1.00  0.00     0.029 A 
HETATM    3  N   UNL     1     -44.684 -53.082  11.948  1.00  0.00    -0.303 N 
ATOM      4  HN  UNL     1     -44.919 -53.296  10.979  1.00  0.00     0.186 HD
HETATM    5  N   UNL     1     -43.466 -53.487  12.461  1.00  0.00    -0.289 N 
ATOM      6  HN  UNL     1     -42.816 -53.992  11.859  1.00  0.00     0.188 HD
HETATM    7  C   UNL     1     -43.119 -53.229  13.734  1.00  0.00     0.117 A 
HETATM    8  C   UNL     1     -44.033 -52.546  14.550  1.00  0.00     0.092 A 
HETATM    9  C   UNL     1     -43.673 -52.282  15.911  1.00  0.00     0.103 C 
HETATM   10  N   UNL     1     -43.402 -52.103  17.026  1.00  0.00    -0.191 NA
HETATM   11  C   UNL     1     -45.285 -52.130  14.050  1.00  0.00    -0.014 A 
HETATM   12  C   UNL     1     -46.287 -51.377  14.886  1.00  0.00     0.052 C 
ENDROOT
BRANCH   7  13
HETATM   13  N   UNL     1     -41.825 -53.546  14.210  1.00  0.00    -0.269 NA
HETATM   14  H   UNL     1     -41.774 -54.545  14.406  1.00  0.00     0.129 HD
BRANCH  13  15
HETATM   15  C   UNL     1     -40.689 -53.128  13.384  1.00  0.00     0.093 C 
HETATM   16  C   UNL     1     -39.356 -53.401  14.111  1.00  0.00     0.054 C 
HETATM   17  C   UNL     1     -38.584 -52.094  13.894  1.00  0.00     0.123 C 
HETATM   18  C   UNL     1     -39.057 -51.024  14.868  1.00  0.00     0.034 C 
HETATM   19  O   UNL     1     -39.154 -51.592  12.665  1.00  0.00    -0.379 OA
HETATM   20  C   UNL     1     -40.479 -50.767  14.368  1.00  0.00     0.036 C 
HETATM   21  C   UNL     1     -40.545 -51.625  13.098  1.00  0.00     0.140 C 
ENDBRANCH  13  15
ENDBRANCH   7  13
TORSDOF 2
ENDMDL
