MODEL 1
REMARK VINA RESULT:      -6.3      0.000      0.000
REMARK  5 active torsions:
REMARK  status: ('A' for Active; 'I' for Inactive)
REMARK    1  A    between atoms: C_2  and  C_3 
REMARK    2  A    between atoms: C_3  and  C_5 
REMARK    3  A    between atoms: C_3  and  N_17 
REMARK    4  A    between atoms: C_5  and  N_6 
REMARK       I    between atoms: N_6  and  C_7 
REMARK       I    between atoms: C_7  and  N_9 
REMARK    5  A    between atoms: N_9  and  C_10 
ROOT
HETATM    1  N   UNL     1     -43.564 -50.137  12.513  1.00  0.00    -0.340 N 
HETATM    2  C   UNL     1     -43.059 -48.855  12.330  1.00  0.00     0.321 C 
HETATM    3  O   UNL     1     -43.079 -48.032  13.236  1.00  0.00    -0.247 OA
HETATM    4  N   UNL     1     -42.616 -48.656  11.043  1.00  0.00    -0.293 N 
HETATM    5  H   UNL     1     -43.092 -50.894  12.037  1.00  0.00     0.164 HD
HETATM    6  H   UNL     1     -42.843 -49.354  10.356  1.00  0.00     0.172 HD
ENDROOT
BRANCH   1   7
HETATM    7  C   UNL     1     -44.112 -50.464  13.823  1.00  0.00     0.165 C 
BRANCH   7   8
HETATM    8  C   UNL     1     -44.958 -51.785  13.875  1.00  0.00     0.172 C 
HETATM    9  C   UNL     1     -46.143 -51.584  12.889  1.00  0.00     0.051 C 
BRANCH   8  10
HETATM   10  C   UNL     1     -45.550 -51.965  15.307  1.00  0.00     0.038 C 
HETATM   11  C   UNL     1     -47.007 -51.573  15.525  1.00  0.00     0.007 C 
ENDBRANCH   8  10
BRANCH   8  12
HETATM   12  N   UNL     1     -44.154 -52.967  13.402  1.00  0.00     0.103 N 
HETATM   13  C   UNL     1     -44.910 -54.144  12.911  1.00  0.00     0.299 C 
HETATM   14  C   UNL     1     -45.321 -55.171  13.985  1.00  0.00     0.198 C 
HETATM   15  O   UNL     1     -44.202 -55.608  14.760  1.00  0.00    -0.388 OA
HETATM   16  C   UNL     1     -43.510 -54.503  15.349  1.00  0.00     0.198 C 
HETATM   17  C   UNL     1     -43.080 -53.473  14.291  1.00  0.00     0.299 C 
ENDBRANCH   8  12
ENDBRANCH   7   8
ENDBRANCH   1   7
BRANCH   4  18
HETATM   18  C   UNL     1     -42.079 -47.462  10.590  1.00  0.00     0.132 A 
HETATM   19  C   UNL     1     -40.842 -46.921  11.035  1.00  0.00     0.084 A 
HETATM   20  C   UNL     1     -40.698 -45.750  10.330  1.00  0.00     0.076 A 
HETATM   21  C   UNL     1     -39.675 -44.692  10.262  1.00  0.00     0.079 C 
HETATM   22  O   UNL     1     -41.781 -45.582   9.523  1.00  0.00    -0.241 OA
HETATM   23  N   UNL     1     -42.639 -46.646   9.693  1.00  0.00    -0.245 N 
ATOM     24  HN  UNL     1     -43.533 -46.785   9.222  1.00  0.00     0.196 HD
ENDBRANCH   4  18
TORSDOF 5
ENDMDL
MODEL 2
REMARK VINA RESULT:      -6.3      3.920      5.687
REMARK  5 active torsions:
REMARK  status: ('A' for Active; 'I' for Inactive)
REMARK    1  A    between atoms: C_2  and  C_3 
REMARK    2  A    between atoms: C_3  and  C_5 
REMARK    3  A    between atoms: C_3  and  N_17 
REMARK    4  A    between atoms: C_5  and  N_6 
REMARK       I    between atoms: N_6  and  C_7 
REMARK       I    between atoms: C_7  and  N_9 
REMARK    5  A    between atoms: N_9  and  C_10 
ROOT
HETATM    1  N   UNL     1     -40.210 -47.335  11.025  1.00  0.00    -0.340 N 
HETATM    2  C   UNL     1     -41.568 -47.041  11.008  1.00  0.00     0.321 C 
HETATM    3  O   UNL     1     -42.200 -46.911  12.048  1.00  0.00    -0.247 OA
HETATM    4  N   UNL     1     -42.064 -46.980   9.727  1.00  0.00    -0.293 N 
HETATM    5  H   UNL     1     -39.638 -46.926  10.299  1.00  0.00     0.164 HD
HETATM    6  H   UNL     1     -41.474 -47.303   8.979  1.00  0.00     0.172 HD
ENDROOT
BRANCH   1   7
HETATM    7  C   UNL     1     -39.568 -47.477  12.327  1.00  0.00     0.165 C 
BRANCH   7   8
HETATM    8  C   UNL     1     -39.070 -48.926  12.664  1.00  0.00     0.172 C 
HETATM    9  C   UNL     1     -37.817 -48.759  13.569  1.00  0.00     0.051 C 
BRANCH   8  10
HETATM   10  C   UNL     1     -38.621 -49.638  11.350  1.00  0.00     0.038 C 
HETATM   11  C   UNL     1     -37.265 -50.336  11.350  1.00  0.00     0.007 C 
ENDBRANCH   8  10
BRANCH   8  12
HETATM   12  N   UNL     1     -40.106 -49.693  13.440  1.00  0.00     0.103 N 
HETATM   13  C   UNL     1     -39.615 -50.627  14.482  1.00  0.00     0.299 C 
HETATM   14  C   UNL     1     -39.284 -52.053  13.999  1.00  0.00     0.198 C 
HETATM   15  O   UNL     1     -40.381 -52.648  13.300  1.00  0.00    -0.388 OA
HETATM   16  C   UNL     1     -40.812 -51.827  12.210  1.00  0.00     0.198 C 
HETATM   17  C   UNL     1     -41.160 -50.402  12.674  1.00  0.00     0.299 C 
ENDBRANCH   8  12
ENDBRANCH   7   8
ENDBRANCH   1   7
BRANCH   4  18
HETATM   18  C   UNL     1     -43.391 -46.717   9.427  1.00  0.00     0.132 A 
HETATM   19  C   UNL     1     -44.442 -47.666   9.546  1.00  0.00     0.084 A 
HETATM   20  C   UNL     1     -45.572 -46.988   9.158  1.00  0.00     0.076 A 
HETATM   21  C   UNL     1     -47.003 -47.322   9.044  1.00  0.00     0.079 C 
HETATM   22  O   UNL     1     -45.231 -45.717   8.810  1.00  0.00    -0.241 OA
HETATM   23  N   UNL     1     -43.872 -45.555   8.974  1.00  0.00    -0.245 N 
ATOM     24  HN  UNL     1     -43.335 -44.709   8.785  1.00  0.00     0.196 HD
ENDBRANCH   4  18
TORSDOF 5
ENDMDL
MODEL 3
REMARK VINA RESULT:      -6.3      1.206      1.610
REMARK  5 active torsions:
REMARK  status: ('A' for Active; 'I' for Inactive)
REMARK    1  A    between atoms: C_2  and  C_3 
REMARK    2  A    between atoms: C_3  and  C_5 
REMARK    3  A    between atoms: C_3  and  N_17 
REMARK    4  A    between atoms: C_5  and  N_6 
REMARK       I    between atoms: N_6  and  C_7 
REMARK       I    between atoms: C_7  and  N_9 
REMARK    5  A    between atoms: N_9  and  C_10 
ROOT
HETATM    1  N   UNL     1     -42.340 -50.840  12.090  1.00  0.00    -0.340 N 
HETATM    2  C   UNL     1     -42.087 -49.473  12.090  1.00  0.00     0.321 C 
HETATM    3  O   UNL     1     -42.090 -48.830  13.131  1.00  0.00    -0.247 OA
HETATM    4  N   UNL     1     -41.903 -48.985  10.818  1.00  0.00    -0.293 N 
HETATM    5  H   UNL     1     -41.837 -51.404  11.418  1.00  0.00     0.164 HD
HETATM    6  H   UNL     1     -42.125 -49.590  10.046  1.00  0.00     0.172 HD
ENDROOT
BRANCH   1   7
HETATM    7  C   UNL     1     -42.602 -51.477  13.375  1.00  0.00     0.165 C 
BRANCH   7   8
HETATM    8  C   UNL     1     -43.941 -52.291  13.448  1.00  0.00     0.172 C 
HETATM    9  C   UNL     1     -44.065 -53.052  12.098  1.00  0.00     0.051 C 
BRANCH   8  10
HETATM   10  C   UNL     1     -45.143 -51.302  13.554  1.00  0.00     0.038 C 
HETATM   11  C   UNL     1     -46.380 -51.599  12.713  1.00  0.00     0.007 C 
ENDBRANCH   8  10
BRANCH   8  12
HETATM   12  N   UNL     1     -43.901 -53.310  14.555  1.00  0.00     0.103 N 
HETATM   13  C   UNL     1     -44.327 -54.690  14.218  1.00  0.00     0.299 C 
HETATM   14  C   UNL     1     -45.837 -54.975  14.350  1.00  0.00     0.198 C 
HETATM   15  O   UNL     1     -46.335 -54.621  15.642  1.00  0.00    -0.388 OA
HETATM   16  C   UNL     1     -46.043 -53.256  15.959  1.00  0.00     0.198 C 
HETATM   17  C   UNL     1     -44.539 -52.955  15.845  1.00  0.00     0.299 C 
ENDBRANCH   8  12
ENDBRANCH   7   8
ENDBRANCH   1   7
BRANCH   4  18
HETATM   18  C   UNL     1     -41.649 -47.653  10.534  1.00  0.00     0.132 A 
HETATM   19  C   UNL     1     -40.541 -46.922  11.043  1.00  0.00     0.084 A 
HETATM   20  C   UNL     1     -40.676 -45.663  10.509  1.00  0.00     0.076 A 
HETATM   21  C   UNL     1     -39.906 -44.409  10.585  1.00  0.00     0.079 C 
HETATM   22  O   UNL     1     -41.799 -45.625   9.741  1.00  0.00    -0.241 OA
HETATM   23  N   UNL     1     -42.403 -46.863   9.764  1.00  0.00    -0.245 N 
ATOM     24  HN  UNL     1     -43.263 -47.126   9.283  1.00  0.00     0.196 HD
ENDBRANCH   4  18
TORSDOF 5
ENDMDL
MODEL 4
REMARK VINA RESULT:      -6.1      2.005      3.113
REMARK  5 active torsions:
REMARK  status: ('A' for Active; 'I' for Inactive)
REMARK    1  A    between atoms: C_2  and  C_3 
REMARK    2  A    between atoms: C_3  and  C_5 
REMARK    3  A    between atoms: C_3  and  N_17 
REMARK    4  A    between atoms: C_5  and  N_6 
REMARK       I    between atoms: N_6  and  C_7 
REMARK       I    between atoms: C_7  and  N_9 
REMARK    5  A    between atoms: N_9  and  C_10 
ROOT
HETATM    1  N   UNL     1     -42.371 -51.878  11.986  1.00  0.00    -0.340 N 
HETATM    2  C   UNL     1     -41.536 -50.779  12.155  1.00  0.00     0.321 C 
HETATM    3  O   UNL     1     -40.758 -50.716  13.098  1.00  0.00    -0.247 OA
HETATM    4  N   UNL     1     -41.749 -49.820  11.194  1.00  0.00    -0.293 N 
HETATM    5  H   UNL     1     -42.566 -52.171  11.039  1.00  0.00     0.164 HD
HETATM    6  H   UNL     1     -42.555 -49.920  10.601  1.00  0.00     0.172 HD
ENDROOT
BRANCH   1   7
HETATM    7  C   UNL     1     -42.280 -52.950  12.970  1.00  0.00     0.165 C 
BRANCH   7   8
HETATM    8  C   UNL     1     -43.567 -53.156  13.844  1.00  0.00     0.172 C 
HETATM    9  C   UNL     1     -43.135 -54.022  15.061  1.00  0.00     0.051 C 
BRANCH   8  10
HETATM   10  C   UNL     1     -44.623 -53.964  13.029  1.00  0.00     0.038 C 
HETATM   11  C   UNL     1     -45.324 -55.122  13.731  1.00  0.00     0.007 C 
ENDBRANCH   8  10
BRANCH   8  12
HETATM   12  N   UNL     1     -44.086 -51.844  14.368  1.00  0.00     0.103 N 
HETATM   13  C   UNL     1     -44.560 -51.818  15.773  1.00  0.00     0.299 C 
HETATM   14  C   UNL     1     -46.038 -52.202  15.988  1.00  0.00     0.198 C 
HETATM   15  O   UNL     1     -46.915 -51.423  15.171  1.00  0.00    -0.388 OA
HETATM   16  C   UNL     1     -46.560 -51.513  13.788  1.00  0.00     0.198 C 
HETATM   17  C   UNL     1     -45.091 -51.121  13.551  1.00  0.00     0.299 C 
ENDBRANCH   8  12
ENDBRANCH   7   8
ENDBRANCH   1   7
BRANCH   4  18
HETATM   18  C   UNL     1     -41.060 -48.619  11.139  1.00  0.00     0.132 A 
HETATM   19  C   UNL     1     -41.640 -47.380  10.753  1.00  0.00     0.084 A 
HETATM   20  C   UNL     1     -40.616 -46.469  10.846  1.00  0.00     0.076 A 
HETATM   21  C   UNL     1     -40.484 -45.019  10.620  1.00  0.00     0.079 C 
HETATM   22  O   UNL     1     -39.484 -47.112  11.244  1.00  0.00    -0.241 OA
HETATM   23  N   UNL     1     -39.764 -48.450  11.419  1.00  0.00    -0.245 N 
ATOM     24  HN  UNL     1     -39.107 -49.174  11.709  1.00  0.00     0.196 HD
ENDBRANCH   4  18
TORSDOF 5
ENDMDL
MODEL 5
REMARK VINA RESULT:      -6.0      2.436      3.711
REMARK  5 active torsions:
REMARK  status: ('A' for Active; 'I' for Inactive)
REMARK    1  A    between atoms: C_2  and  C_3 
REMARK    2  A    between atoms: C_3  and  C_5 
REMARK    3  A    between atoms: C_3  and  N_17 
REMARK    4  A    between atoms: C_5  and  N_6 
REMARK       I    between atoms: N_6  and  C_7 
REMARK       I    between atoms: C_7  and  N_9 
REMARK    5  A    between atoms: N_9  and  C_10 
ROOT
HETATM    1  N   UNL     1     -40.410 -50.782  11.372  1.00  0.00    -0.340 N 
HETATM    2  C   UNL     1     -40.785 -49.444  11.397  1.00  0.00     0.321 C 
HETATM    3  O   UNL     1     -40.604 -48.755  12.393  1.00  0.00    -0.247 OA
HETATM    4  N   UNL     1     -41.397 -49.060  10.228  1.00  0.00    -0.293 N 
HETATM    5  H   UNL     1     -40.065 -51.151  10.496  1.00  0.00     0.164 HD
HETATM    6  H   UNL     1     -41.655 -49.780   9.575  1.00  0.00     0.172 HD
ENDROOT
BRANCH   1   7
HETATM    7  C   UNL     1     -39.791 -51.331  12.573  1.00  0.00     0.165 C 
BRANCH   7   8
HETATM    8  C   UNL     1     -40.730 -52.233  13.448  1.00  0.00     0.172 C 
HETATM    9  C   UNL     1     -40.359 -51.943  14.929  1.00  0.00     0.051 C 
BRANCH   8  10
HETATM   10  C   UNL     1     -40.422 -53.735  13.159  1.00  0.00     0.038 C 
HETATM   11  C   UNL     1     -39.517 -54.472  14.141  1.00  0.00     0.007 C 
ENDBRANCH   8  10
BRANCH   8  12
HETATM   12  N   UNL     1     -42.177 -51.867  13.250  1.00  0.00     0.103 N 
HETATM   13  C   UNL     1     -42.944 -51.470  14.456  1.00  0.00     0.299 C 
HETATM   14  C   UNL     1     -43.602 -52.624  15.239  1.00  0.00     0.198 C 
HETATM   15  O   UNL     1     -44.419 -53.441  14.398  1.00  0.00    -0.388 OA
HETATM   16  C   UNL     1     -43.682 -53.940  13.278  1.00  0.00     0.198 C 
HETATM   17  C   UNL     1     -43.028 -52.802  12.476  1.00  0.00     0.299 C 
ENDBRANCH   8  12
ENDBRANCH   7   8
ENDBRANCH   1   7
BRANCH   4  18
HETATM   18  C   UNL     1     -41.880 -47.782   9.995  1.00  0.00     0.132 A 
HETATM   19  C   UNL     1     -43.198 -47.494   9.545  1.00  0.00     0.084 A 
HETATM   20  C   UNL     1     -43.246 -46.124   9.457  1.00  0.00     0.076 A 
HETATM   21  C   UNL     1     -44.274 -45.138   9.081  1.00  0.00     0.079 C 
HETATM   22  O   UNL     1     -42.036 -45.613   9.812  1.00  0.00    -0.241 OA
HETATM   23  N   UNL     1     -41.188 -46.649  10.140  1.00  0.00    -0.245 N 
ATOM     24  HN  UNL     1     -40.216 -46.565  10.438  1.00  0.00     0.196 HD
ENDBRANCH   4  18
TORSDOF 5
ENDMDL
MODEL 6
REMARK VINA RESULT:      -6.0      1.764      2.878
REMARK  5 active torsions:
REMARK  status: ('A' for Active; 'I' for Inactive)
REMARK    1  A    between atoms: C_2  and  C_3 
REMARK    2  A    between atoms: C_3  and  C_5 
REMARK    3  A    between atoms: C_3  and  N_17 
REMARK    4  A    between atoms: C_5  and  N_6 
REMARK       I    between atoms: N_6  and  C_7 
REMARK       I    between atoms: C_7  and  N_9 
REMARK    5  A    between atoms: N_9  and  C_10 
ROOT
HETATM    1  N   UNL     1     -41.802 -51.213  11.660  1.00  0.00    -0.340 N 
HETATM    2  C   UNL     1     -41.358 -49.903  11.789  1.00  0.00     0.321 C 
HETATM    3  O   UNL     1     -40.504 -49.602  12.613  1.00  0.00    -0.247 OA
HETATM    4  N   UNL     1     -42.024 -49.049  10.942  1.00  0.00    -0.293 N 
HETATM    5  H   UNL     1     -42.038 -51.534  10.731  1.00  0.00     0.164 HD
HETATM    6  H   UNL     1     -42.837 -49.401  10.465  1.00  0.00     0.172 HD
ENDROOT
BRANCH   1   7
HETATM    7  C   UNL     1     -41.208 -52.215  12.538  1.00  0.00     0.165 C 
BRANCH   7   8
HETATM    8  C   UNL     1     -42.170 -52.778  13.643  1.00  0.00     0.172 C 
HETATM    9  C   UNL     1     -41.857 -51.982  14.942  1.00  0.00     0.051 C 
BRANCH   8  10
HETATM   10  C   UNL     1     -41.834 -54.279  13.906  1.00  0.00     0.038 C 
HETATM   11  C   UNL     1     -41.720 -54.735  15.357  1.00  0.00     0.007 C 
ENDBRANCH   8  10
BRANCH   8  12
HETATM   12  N   UNL     1     -43.612 -52.537  13.286  1.00  0.00     0.103 N 
HETATM   13  C   UNL     1     -44.495 -52.016  14.358  1.00  0.00     0.299 C 
HETATM   14  C   UNL     1     -45.155 -53.080  15.257  1.00  0.00     0.198 C 
HETATM   15  O   UNL     1     -45.858 -54.062  14.492  1.00  0.00    -0.388 OA
HETATM   16  C   UNL     1     -45.006 -54.674  13.519  1.00  0.00     0.198 C 
HETATM   17  C   UNL     1     -44.347 -53.628  12.603  1.00  0.00     0.299 C 
ENDBRANCH   8  12
ENDBRANCH   7   8
ENDBRANCH   1   7
BRANCH   4  18
HETATM   18  C   UNL     1     -41.786 -47.686  10.878  1.00  0.00     0.132 A 
HETATM   19  C   UNL     1     -42.748 -46.689  11.194  1.00  0.00     0.084 A 
HETATM   20  C   UNL     1     -42.094 -45.496  11.003  1.00  0.00     0.076 A 
HETATM   21  C   UNL     1     -42.451 -44.074  11.149  1.00  0.00     0.079 C 
HETATM   22  O   UNL     1     -40.824 -45.749  10.583  1.00  0.00    -0.241 OA
HETATM   23  N   UNL     1     -40.639 -47.112  10.502  1.00  0.00    -0.245 N 
ATOM     24  HN  UNL     1     -39.788 -47.592  10.209  1.00  0.00     0.196 HD
ENDBRANCH   4  18
TORSDOF 5
ENDMDL
MODEL 7
REMARK VINA RESULT:      -5.9      3.641      7.739
REMARK  5 active torsions:
REMARK  status: ('A' for Active; 'I' for Inactive)
REMARK    1  A    between atoms: C_2  and  C_3 
REMARK    2  A    between atoms: C_3  and  C_5 
REMARK    3  A    between atoms: C_3  and  N_17 
REMARK    4  A    between atoms: C_5  and  N_6 
REMARK       I    between atoms: N_6  and  C_7 
REMARK       I    between atoms: C_7  and  N_9 
REMARK    5  A    between atoms: N_9  and  C_10 
ROOT
HETATM    1  N   UNL     1     -41.476 -50.299  11.844  1.00  0.00    -0.340 N 
HETATM    2  C   UNL     1     -41.958 -51.551  12.207  1.00  0.00     0.321 C 
HETATM    3  O   UNL     1     -41.219 -52.526  12.248  1.00  0.00    -0.247 OA
HETATM    4  N   UNL     1     -43.313 -51.532  12.443  1.00  0.00    -0.293 N 
HETATM    5  H   UNL     1     -41.880 -49.495  12.305  1.00  0.00     0.164 HD
HETATM    6  H   UNL     1     -43.823 -50.706  12.178  1.00  0.00     0.172 HD
ENDROOT
BRANCH   1   7
HETATM    7  C   UNL     1     -40.059 -50.191  11.520  1.00  0.00     0.165 C 
BRANCH   7   8
HETATM    8  C   UNL     1     -39.232 -49.258  12.472  1.00  0.00     0.172 C 
HETATM    9  C   UNL     1     -39.492 -47.802  11.991  1.00  0.00     0.051 C 
BRANCH   8  10
HETATM   10  C   UNL     1     -37.711 -49.557  12.298  1.00  0.00     0.038 C 
HETATM   11  C   UNL     1     -37.233 -50.019  10.925  1.00  0.00     0.007 C 
ENDBRANCH   8  10
BRANCH   8  12
HETATM   12  N   UNL     1     -39.709 -49.370  13.895  1.00  0.00     0.103 N 
HETATM   13  C   UNL     1     -39.672 -48.137  14.718  1.00  0.00     0.299 C 
HETATM   14  C   UNL     1     -38.342 -47.860  15.449  1.00  0.00     0.198 C 
HETATM   15  O   UNL     1     -37.926 -48.977  16.238  1.00  0.00    -0.388 OA
HETATM   16  C   UNL     1     -37.837 -50.169  15.452  1.00  0.00     0.198 C 
HETATM   17  C   UNL     1     -39.159 -50.469  14.724  1.00  0.00     0.299 C 
ENDBRANCH   8  12
ENDBRANCH   7   8
ENDBRANCH   1   7
BRANCH   4  18
HETATM   18  C   UNL     1     -44.047 -52.649  12.806  1.00  0.00     0.132 A 
HETATM   19  C   UNL     1     -45.013 -52.667  13.849  1.00  0.00     0.084 A 
HETATM   20  C   UNL     1     -45.494 -53.954  13.860  1.00  0.00     0.076 A 
HETATM   21  C   UNL     1     -46.503 -54.685  14.646  1.00  0.00     0.079 C 
HETATM   22  O   UNL     1     -44.852 -54.675  12.901  1.00  0.00    -0.241 OA
HETATM   23  N   UNL     1     -43.950 -53.860  12.252  1.00  0.00    -0.245 N 
ATOM     24  HN  UNL     1     -43.325 -54.131  11.492  1.00  0.00     0.196 HD
ENDBRANCH   4  18
TORSDOF 5
ENDMDL
MODEL 8
REMARK VINA RESULT:      -5.8      1.353      1.964
REMARK  5 active torsions:
REMARK  status: ('A' for Active; 'I' for Inactive)
REMARK    1  A    between atoms: C_2  and  C_3 
REMARK    2  A    between atoms: C_3  and  C_5 
REMARK    3  A    between atoms: C_3  and  N_17 
REMARK    4  A    between atoms: C_5  and  N_6 
REMARK       I    between atoms: N_6  and  C_7 
REMARK       I    between atoms: C_7  and  N_9 
REMARK    5  A    between atoms: N_9  and  C_10 
ROOT
HETATM    1  N   UNL     1     -44.107 -50.995  13.548  1.00  0.00    -0.340 N 
HETATM    2  C   UNL     1     -43.470 -49.762  13.470  1.00  0.00     0.321 C 
HETATM    3  O   UNL     1     -43.118 -49.168  14.481  1.00  0.00    -0.247 OA
HETATM    4  N   UNL     1     -43.358 -49.323  12.172  1.00  0.00    -0.293 N 
HETATM    5  H   UNL     1     -43.906 -51.668  12.821  1.00  0.00     0.164 HD
HETATM    6  H   UNL     1     -43.868 -49.821  11.462  1.00  0.00     0.172 HD
ENDROOT
BRANCH   1   7
HETATM    7  C   UNL     1     -44.334 -51.554  14.875  1.00  0.00     0.165 C 
BRANCH   7   8
HETATM    8  C   UNL     1     -45.827 -51.916  15.194  1.00  0.00     0.172 C 
HETATM    9  C   UNL     1     -46.613 -51.739  13.864  1.00  0.00     0.051 C 
BRANCH   8  10
HETATM   10  C   UNL     1     -46.398 -50.897  16.229  1.00  0.00     0.038 C 
HETATM   11  C   UNL     1     -47.771 -51.187  16.824  1.00  0.00     0.007 C 
ENDBRANCH   8  10
BRANCH   8  12
HETATM   12  N   UNL     1     -45.961 -53.351  15.626  1.00  0.00     0.103 N 
HETATM   13  C   UNL     1     -44.849 -53.922  16.423  1.00  0.00     0.299 C 
HETATM   14  C   UNL     1     -43.690 -54.536  15.612  1.00  0.00     0.198 C 
HETATM   15  O   UNL     1     -44.154 -55.507  14.671  1.00  0.00    -0.388 OA
HETATM   16  C   UNL     1     -45.151 -54.960  13.803  1.00  0.00     0.198 C 
HETATM   17  C   UNL     1     -46.323 -54.353  14.595  1.00  0.00     0.299 C 
ENDBRANCH   8  12
ENDBRANCH   7   8
ENDBRANCH   1   7
BRANCH   4  18
HETATM   18  C   UNL     1     -42.775 -48.118  11.815  1.00  0.00     0.132 A 
HETATM   19  C   UNL     1     -41.458 -47.987  11.296  1.00  0.00     0.084 A 
HETATM   20  C   UNL     1     -41.299 -46.640  11.078  1.00  0.00     0.076 A 
HETATM   21  C   UNL     1     -40.219 -45.788  10.550  1.00  0.00     0.079 C 
HETATM   22  O   UNL     1     -42.436 -45.992  11.453  1.00  0.00    -0.241 OA
HETATM   23  N   UNL     1     -43.348 -46.915  11.916  1.00  0.00    -0.245 N 
ATOM     24  HN  UNL     1     -44.285 -46.717  12.269  1.00  0.00     0.196 HD
ENDBRANCH   4  18
TORSDOF 5
ENDMDL
MODEL 9
REMARK VINA RESULT:      -5.7      2.954      8.142
REMARK  5 active torsions:
REMARK  status: ('A' for Active; 'I' for Inactive)
REMARK    1  A    between atoms: C_2  and  C_3 
REMARK    2  A    between atoms: C_3  and  C_5 
REMARK    3  A    between atoms: C_3  and  N_17 
REMARK    4  A    between atoms: C_5  and  N_6 
REMARK       I    between atoms: N_6  and  C_7 
REMARK       I    between atoms: C_7  and  N_9 
REMARK    5  A    between atoms: N_9  and  C_10 
ROOT
HETATM    1  N   UNL     1     -41.920 -49.374  11.005  1.00  0.00    -0.340 N 
HETATM    2  C   UNL     1     -41.392 -50.293  11.904  1.00  0.00     0.321 C 
HETATM    3  O   UNL     1     -40.494 -49.980  12.674  1.00  0.00    -0.247 OA
HETATM    4  N   UNL     1     -41.961 -51.536  11.761  1.00  0.00    -0.293 N 
HETATM    5  H   UNL     1     -42.908 -49.438  10.803  1.00  0.00     0.164 HD
HETATM    6  H   UNL     1     -42.544 -51.697  10.957  1.00  0.00     0.172 HD
ENDROOT
BRANCH   1   7
HETATM    7  C   UNL     1     -41.368 -48.025  11.018  1.00  0.00     0.165 C 
BRANCH   7   8
HETATM    8  C   UNL     1     -42.434 -46.874  11.026  1.00  0.00     0.172 C 
HETATM    9  C   UNL     1     -42.860 -46.683  12.509  1.00  0.00     0.051 C 
BRANCH   8  10
HETATM   10  C   UNL     1     -43.690 -47.327  10.220  1.00  0.00     0.038 C 
HETATM   11  C   UNL     1     -43.693 -47.077   8.715  1.00  0.00     0.007 C 
ENDBRANCH   8  10
BRANCH   8  12
HETATM   12  N   UNL     1     -41.842 -45.578  10.542  1.00  0.00     0.103 N 
HETATM   13  C   UNL     1     -40.364 -45.463  10.557  1.00  0.00     0.299 C 
HETATM   14  C   UNL     1     -39.746 -44.962  11.878  1.00  0.00     0.198 C 
HETATM   15  O   UNL     1     -40.327 -43.727  12.304  1.00  0.00    -0.388 OA
HETATM   16  C   UNL     1     -41.750 -43.830  12.413  1.00  0.00     0.198 C 
HETATM   17  C   UNL     1     -42.387 -44.317  11.100  1.00  0.00     0.299 C 
ENDBRANCH   8  12
ENDBRANCH   7   8
ENDBRANCH   1   7
BRANCH   4  18
HETATM   18  C   UNL     1     -41.607 -52.638  12.524  1.00  0.00     0.132 A 
HETATM   19  C   UNL     1     -42.027 -52.851  13.865  1.00  0.00     0.084 A 
HETATM   20  C   UNL     1     -41.457 -54.049  14.224  1.00  0.00     0.076 A 
HETATM   21  C   UNL     1     -41.467 -54.888  15.435  1.00  0.00     0.079 C 
HETATM   22  O   UNL     1     -40.727 -54.525  13.178  1.00  0.00    -0.241 OA
HETATM   23  N   UNL     1     -40.819 -53.641  12.126  1.00  0.00    -0.245 N 
ATOM     24  HN  UNL     1     -40.370 -53.734  11.214  1.00  0.00     0.196 HD
ENDBRANCH   4  18
TORSDOF 5
ENDMDL
