MODEL 1
REMARK VINA RESULT:      -7.0      0.000      0.000
REMARK  6 active torsions:
REMARK  status: ('A' for Active; 'I' for Inactive)
REMARK    1  A    between atoms: N_11  and  C_12 
REMARK    2  A    between atoms: C_12  and  C_13 
REMARK    3  A    between atoms: C_13  and  O_14 
REMARK    4  A    between atoms: C_13  and  C_15 
REMARK    5  A    between atoms: C_15  and  O_16 
REMARK    6  A    between atoms: O_16  and  C_17 
ROOT
HETATM    1  C   UNL     1     -44.797 -52.598  13.157  1.00  0.00     0.069 A 
HETATM    2  C   UNL     1     -44.608 -53.089  14.451  1.00  0.00     0.038 A 
HETATM    3  C   UNL     1     -45.502 -52.762  15.476  1.00  0.00     0.025 A 
HETATM    4  C   UNL     1     -46.586 -51.920  15.214  1.00  0.00     0.044 A 
HETATM    5  C   UNL     1     -47.512 -51.587  16.259  1.00  0.00     0.099 C 
HETATM    6  N   UNL     1     -48.264 -51.319  17.102  1.00  0.00    -0.191 NA
HETATM    7  C   UNL     1     -46.762 -51.405  13.925  1.00  0.00     0.025 A 
HETATM    8  C   UNL     1     -45.869 -51.742  12.899  1.00  0.00     0.038 A 
ENDROOT
BRANCH   1   9
HETATM    9  O   UNL     1     -43.851 -52.983  12.246  1.00  0.00    -0.349 OA
BRANCH   9  10
HETATM   10  C   UNL     1     -42.544 -53.233  12.763  1.00  0.00     0.209 C 
BRANCH  10  11
HETATM   11  C   UNL     1     -41.518 -52.350  12.030  1.00  0.00     0.160 C 
BRANCH  11  12
HETATM   12  C   UNL     1     -40.862 -51.334  12.977  1.00  0.00     0.164 C 
BRANCH  12  13
HETATM   13  N   UNL     1     -40.515 -50.076  12.331  1.00  0.00    -0.332 N 
HETATM   14  C   UNL     1     -39.261 -49.718  11.876  1.00  0.00     0.080 A 
HETATM   15  C   UNL     1     -38.036 -50.539  12.056  1.00  0.00     0.089 C 
HETATM   16  N   UNL     1     -39.301 -48.558  11.251  1.00  0.00    -0.344 N 
HETATM   17  C   UNL     1     -40.609 -48.153  11.296  1.00  0.00     0.060 A 
ATOM     18  HN  UNL     1     -38.519 -48.064  10.822  1.00  0.00     0.167 HD
HETATM   19  C   UNL     1     -41.195 -46.993  10.767  1.00  0.00     0.032 A 
HETATM   20  C   UNL     1     -41.398 -49.080  11.970  1.00  0.00     0.062 A 
HETATM   21  C   UNL     1     -42.570 -46.792  10.936  1.00  0.00     0.002 A 
HETATM   22  C   UNL     1     -43.343 -47.729  11.620  1.00  0.00     0.002 A 
HETATM   23  C   UNL     1     -42.777 -48.895  12.151  1.00  0.00     0.032 A 
ENDBRANCH  12  13
ENDBRANCH  11  12
BRANCH  11  24
HETATM   24  O   UNL     1     -40.547 -53.205  11.416  1.00  0.00    -0.392 OA
HETATM   25  H   UNL     1     -39.969 -52.675  10.842  1.00  0.00     0.210 HD
ENDBRANCH  11  24
ENDBRANCH  10  11
ENDBRANCH   9  10
ENDBRANCH   1   9
TORSDOF 6
ENDMDL
MODEL 2
REMARK VINA RESULT:      -6.9      3.144      6.168
REMARK  6 active torsions:
REMARK  status: ('A' for Active; 'I' for Inactive)
REMARK    1  A    between atoms: N_11  and  C_12 
REMARK    2  A    between atoms: C_12  and  C_13 
REMARK    3  A    between atoms: C_13  and  O_14 
REMARK    4  A    between atoms: C_13  and  C_15 
REMARK    5  A    between atoms: C_15  and  O_16 
REMARK    6  A    between atoms: O_16  and  C_17 
ROOT
HETATM    1  C   UNL     1     -43.136 -54.801  14.466  1.00  0.00     0.069 A 
HETATM    2  C   UNL     1     -42.918 -54.160  13.244  1.00  0.00     0.038 A 
HETATM    3  C   UNL     1     -41.726 -53.468  13.004  1.00  0.00     0.025 A 
HETATM    4  C   UNL     1     -40.748 -53.397  13.999  1.00  0.00     0.044 A 
HETATM    5  C   UNL     1     -39.520 -52.695  13.756  1.00  0.00     0.099 C 
HETATM    6  N   UNL     1     -38.524 -52.131  13.560  1.00  0.00    -0.191 NA
HETATM    7  C   UNL     1     -40.975 -54.015  15.232  1.00  0.00     0.025 A 
HETATM    8  C   UNL     1     -42.167 -54.714  15.467  1.00  0.00     0.038 A 
ENDROOT
BRANCH   1   9
HETATM    9  O   UNL     1     -44.342 -55.436  14.581  1.00  0.00    -0.349 OA
BRANCH   9  10
HETATM   10  C   UNL     1     -45.436 -54.842  13.883  1.00  0.00     0.209 C 
BRANCH  10  11
HETATM   11  C   UNL     1     -46.546 -54.465  14.881  1.00  0.00     0.160 C 
BRANCH  11  12
HETATM   12  C   UNL     1     -46.927 -52.980  14.773  1.00  0.00     0.164 C 
BRANCH  12  13
HETATM   13  N   UNL     1     -45.862 -52.144  14.236  1.00  0.00    -0.332 N 
HETATM   14  C   UNL     1     -45.813 -51.615  12.961  1.00  0.00     0.080 A 
HETATM   15  C   UNL     1     -46.811 -51.894  11.897  1.00  0.00     0.089 C 
HETATM   16  N   UNL     1     -44.769 -50.822  12.821  1.00  0.00    -0.344 N 
HETATM   17  C   UNL     1     -44.127 -50.831  14.031  1.00  0.00     0.060 A 
ATOM     18  HN  UNL     1     -44.497 -50.307  11.984  1.00  0.00     0.167 HD
HETATM   19  C   UNL     1     -42.968 -50.143  14.423  1.00  0.00     0.032 A 
HETATM   20  C   UNL     1     -44.784 -51.653  14.942  1.00  0.00     0.062 A 
HETATM   21  C   UNL     1     -42.495 -50.306  15.730  1.00  0.00     0.002 A 
HETATM   22  C   UNL     1     -43.162 -51.140  16.626  1.00  0.00     0.002 A 
HETATM   23  C   UNL     1     -44.323 -51.831  16.255  1.00  0.00     0.032 A 
ENDBRANCH  12  13
ENDBRANCH  11  12
BRANCH  11  24
HETATM   24  O   UNL     1     -47.671 -55.319  14.645  1.00  0.00    -0.392 OA
HETATM   25  H   UNL     1     -47.845 -55.847  15.442  1.00  0.00     0.210 HD
ENDBRANCH  11  24
ENDBRANCH  10  11
ENDBRANCH   9  10
ENDBRANCH   1   9
TORSDOF 6
ENDMDL
MODEL 3
REMARK VINA RESULT:      -6.7      2.978      4.937
REMARK  6 active torsions:
REMARK  status: ('A' for Active; 'I' for Inactive)
REMARK    1  A    between atoms: N_11  and  C_12 
REMARK    2  A    between atoms: C_12  and  C_13 
REMARK    3  A    between atoms: C_13  and  O_14 
REMARK    4  A    between atoms: C_13  and  C_15 
REMARK    5  A    between atoms: C_15  and  O_16 
REMARK    6  A    between atoms: O_16  and  C_17 
ROOT
HETATM    1  C   UNL     1     -44.208 -50.880  13.647  1.00  0.00     0.069 A 
HETATM    2  C   UNL     1     -44.023 -50.605  15.004  1.00  0.00     0.038 A 
HETATM    3  C   UNL     1     -45.082 -50.731  15.909  1.00  0.00     0.025 A 
HETATM    4  C   UNL     1     -46.345 -51.116  15.456  1.00  0.00     0.044 A 
HETATM    5  C   UNL     1     -47.434 -51.254  16.380  1.00  0.00     0.099 C 
HETATM    6  N   UNL     1     -48.316 -51.371  17.127  1.00  0.00    -0.191 NA
HETATM    7  C   UNL     1     -46.541 -51.366  14.093  1.00  0.00     0.025 A 
HETATM    8  C   UNL     1     -45.475 -51.246  13.191  1.00  0.00     0.038 A 
ENDROOT
BRANCH   1   9
HETATM    9  O   UNL     1     -43.099 -50.712  12.864  1.00  0.00    -0.349 OA
BRANCH   9  10
HETATM   10  C   UNL     1     -41.865 -51.178  13.411  1.00  0.00     0.209 C 
BRANCH  10  11
HETATM   11  C   UNL     1     -41.254 -52.241  12.481  1.00  0.00     0.160 C 
BRANCH  11  12
HETATM   12  C   UNL     1     -40.998 -53.564  13.220  1.00  0.00     0.164 C 
BRANCH  12  13
HETATM   13  N   UNL     1     -41.879 -53.773  14.360  1.00  0.00    -0.332 N 
HETATM   14  C   UNL     1     -41.570 -53.516  15.681  1.00  0.00     0.080 A 
HETATM   15  C   UNL     1     -40.238 -53.062  16.158  1.00  0.00     0.089 C 
HETATM   16  N   UNL     1     -42.616 -53.716  16.457  1.00  0.00    -0.344 N 
HETATM   17  C   UNL     1     -43.630 -54.108  15.624  1.00  0.00     0.060 A 
ATOM     18  HN  UNL     1     -42.661 -53.603  17.469  1.00  0.00     0.167 HD
HETATM   19  C   UNL     1     -44.959 -54.433  15.939  1.00  0.00     0.032 A 
HETATM   20  C   UNL     1     -43.202 -54.158  14.301  1.00  0.00     0.062 A 
HETATM   21  C   UNL     1     -45.827 -54.806  14.907  1.00  0.00     0.002 A 
HETATM   22  C   UNL     1     -45.379 -54.857  13.588  1.00  0.00     0.002 A 
HETATM   23  C   UNL     1     -44.057 -54.532  13.254  1.00  0.00     0.032 A 
ENDBRANCH  12  13
ENDBRANCH  11  12
BRANCH  11  24
HETATM   24  O   UNL     1     -42.132 -52.420  11.364  1.00  0.00    -0.392 OA
HETATM   25  H   UNL     1     -42.040 -51.664  10.759  1.00  0.00     0.210 HD
ENDBRANCH  11  24
ENDBRANCH  10  11
ENDBRANCH   9  10
ENDBRANCH   1   9
TORSDOF 6
ENDMDL
MODEL 4
REMARK VINA RESULT:      -6.7      3.106      4.173
REMARK  6 active torsions:
REMARK  status: ('A' for Active; 'I' for Inactive)
REMARK    1  A    between atoms: N_11  and  C_12 
REMARK    2  A    between atoms: C_12  and  C_13 
REMARK    3  A    between atoms: C_13  and  O_14 
REMARK    4  A    between atoms: C_13  and  C_15 
REMARK    5  A    between atoms: C_15  and  O_16 
REMARK    6  A    between atoms: O_16  and  C_17 
ROOT
HETATM    1  C   UNL     1     -45.349 -52.938  13.115  1.00  0.00     0.069 A 
HETATM    2  C   UNL     1     -45.516 -53.774  14.222  1.00  0.00     0.038 A 
HETATM    3  C   UNL     1     -46.282 -53.362  15.317  1.00  0.00     0.025 A 
HETATM    4  C   UNL     1     -46.873 -52.096  15.320  1.00  0.00     0.044 A 
HETATM    5  C   UNL     1     -47.666 -51.670  16.437  1.00  0.00     0.099 C 
HETATM    6  N   UNL     1     -48.311 -51.325  17.339  1.00  0.00    -0.191 NA
HETATM    7  C   UNL     1     -46.684 -51.247  14.224  1.00  0.00     0.025 A 
HETATM    8  C   UNL     1     -45.923 -51.666  13.125  1.00  0.00     0.038 A 
ENDROOT
BRANCH   1   9
HETATM    9  O   UNL     1     -44.572 -53.452  12.112  1.00  0.00    -0.349 OA
BRANCH   9  10
HETATM   10  C   UNL     1     -43.240 -53.818  12.471  1.00  0.00     0.209 C 
BRANCH  10  11
HETATM   11  C   UNL     1     -42.332 -52.575  12.434  1.00  0.00     0.160 C 
BRANCH  11  12
HETATM   12  C   UNL     1     -41.434 -52.490  13.677  1.00  0.00     0.164 C 
BRANCH  12  13
HETATM   13  N   UNL     1     -42.172 -52.522  14.932  1.00  0.00    -0.332 N 
HETATM   14  C   UNL     1     -42.204 -53.574  15.826  1.00  0.00     0.080 A 
HETATM   15  C   UNL     1     -41.548 -54.888  15.600  1.00  0.00     0.089 C 
HETATM   16  N   UNL     1     -42.881 -53.251  16.909  1.00  0.00    -0.344 N 
HETATM   17  C   UNL     1     -43.298 -51.960  16.719  1.00  0.00     0.060 A 
ATOM     18  HN  UNL     1     -43.059 -53.841  17.722  1.00  0.00     0.167 HD
HETATM   19  C   UNL     1     -44.044 -51.135  17.574  1.00  0.00     0.032 A 
HETATM   20  C   UNL     1     -42.873 -51.472  15.486  1.00  0.00     0.062 A 
HETATM   21  C   UNL     1     -44.350 -49.833  17.163  1.00  0.00     0.002 A 
HETATM   22  C   UNL     1     -43.923 -49.364  15.921  1.00  0.00     0.002 A 
HETATM   23  C   UNL     1     -43.172 -50.171  15.055  1.00  0.00     0.032 A 
ENDBRANCH  12  13
ENDBRANCH  11  12
BRANCH  11  24
HETATM   24  O   UNL     1     -41.563 -52.618  11.226  1.00  0.00    -0.392 OA
HETATM   25  H   UNL     1     -41.969 -53.250  10.610  1.00  0.00     0.210 HD
ENDBRANCH  11  24
ENDBRANCH  10  11
ENDBRANCH   9  10
ENDBRANCH   1   9
TORSDOF 6
ENDMDL
MODEL 5
REMARK VINA RESULT:      -6.5      2.353      4.006
REMARK  6 active torsions:
REMARK  status: ('A' for Active; 'I' for Inactive)
REMARK    1  A    between atoms: N_11  and  C_12 
REMARK    2  A    between atoms: C_12  and  C_13 
REMARK    3  A    between atoms: C_13  and  O_14 
REMARK    4  A    between atoms: C_13  and  C_15 
REMARK    5  A    between atoms: C_15  and  O_16 
REMARK    6  A    between atoms: O_16  and  C_17 
ROOT
HETATM    1  C   UNL     1     -41.091 -54.007  13.485  1.00  0.00     0.069 A 
HETATM    2  C   UNL     1     -41.453 -54.583  14.705  1.00  0.00     0.038 A 
HETATM    3  C   UNL     1     -42.796 -54.832  15.006  1.00  0.00     0.025 A 
HETATM    4  C   UNL     1     -43.792 -54.486  14.090  1.00  0.00     0.044 A 
HETATM    5  C   UNL     1     -45.171 -54.745  14.389  1.00  0.00     0.099 C 
HETATM    6  N   UNL     1     -46.288 -54.958  14.627  1.00  0.00    -0.191 NA
HETATM    7  C   UNL     1     -43.434 -53.884  12.879  1.00  0.00     0.025 A 
HETATM    8  C   UNL     1     -42.087 -53.643  12.578  1.00  0.00     0.038 A 
ENDROOT
BRANCH   1   9
HETATM    9  O   UNL     1     -39.748 -53.807  13.313  1.00  0.00    -0.349 OA
BRANCH   9  10
HETATM   10  C   UNL     1     -39.181 -52.700  14.013  1.00  0.00     0.209 C 
BRANCH  10  11
HETATM   11  C   UNL     1     -39.066 -51.491  13.067  1.00  0.00     0.160 C 
BRANCH  11  12
HETATM   12  C   UNL     1     -39.711 -50.234  13.670  1.00  0.00     0.164 C 
BRANCH  12  13
HETATM   13  N   UNL     1     -41.125 -50.095  13.352  1.00  0.00    -0.332 N 
HETATM   14  C   UNL     1     -41.646 -49.653  12.152  1.00  0.00     0.080 A 
HETATM   15  C   UNL     1     -40.829 -49.160  11.013  1.00  0.00     0.089 C 
HETATM   16  N   UNL     1     -42.961 -49.739  12.149  1.00  0.00    -0.344 N 
HETATM   17  C   UNL     1     -43.306 -50.251  13.372  1.00  0.00     0.060 A 
ATOM     18  HN  UNL     1     -43.592 -49.477  11.392  1.00  0.00     0.167 HD
HETATM   19  C   UNL     1     -44.579 -50.552  13.879  1.00  0.00     0.032 A 
HETATM   20  C   UNL     1     -42.178 -50.484  14.154  1.00  0.00     0.062 A 
HETATM   21  C   UNL     1     -44.686 -51.078  15.171  1.00  0.00     0.002 A 
HETATM   22  C   UNL     1     -43.546 -51.298  15.943  1.00  0.00     0.002 A 
HETATM   23  C   UNL     1     -42.265 -51.008  15.452  1.00  0.00     0.032 A 
ENDBRANCH  12  13
ENDBRANCH  11  12
BRANCH  11  24
HETATM   24  O   UNL     1     -37.681 -51.284  12.768  1.00  0.00    -0.392 OA
HETATM   25  H   UNL     1     -37.220 -50.991  13.572  1.00  0.00     0.210 HD
ENDBRANCH  11  24
ENDBRANCH  10  11
ENDBRANCH   9  10
ENDBRANCH   1   9
TORSDOF 6
ENDMDL
MODEL 6
REMARK VINA RESULT:      -6.5      3.166      5.761
REMARK  6 active torsions:
REMARK  status: ('A' for Active; 'I' for Inactive)
REMARK    1  A    between atoms: N_11  and  C_12 
REMARK    2  A    between atoms: C_12  and  C_13 
REMARK    3  A    between atoms: C_13  and  O_14 
REMARK    4  A    between atoms: C_13  and  C_15 
REMARK    5  A    between atoms: C_15  and  O_16 
REMARK    6  A    between atoms: O_16  and  C_17 
ROOT
HETATM    1  C   UNL     1     -44.156 -51.218  13.825  1.00  0.00     0.069 A 
HETATM    2  C   UNL     1     -45.440 -51.415  13.313  1.00  0.00     0.038 A 
HETATM    3  C   UNL     1     -46.552 -51.438  14.161  1.00  0.00     0.025 A 
HETATM    4  C   UNL     1     -46.381 -51.284  15.539  1.00  0.00     0.044 A 
HETATM    5  C   UNL     1     -47.518 -51.301  16.415  1.00  0.00     0.099 C 
HETATM    6  N   UNL     1     -48.436 -51.309  17.125  1.00  0.00    -0.191 NA
HETATM    7  C   UNL     1     -45.093 -51.115  16.058  1.00  0.00     0.025 A 
HETATM    8  C   UNL     1     -43.983 -51.084  15.204  1.00  0.00     0.038 A 
ENDROOT
BRANCH   1   9
HETATM    9  O   UNL     1     -43.153 -51.223  12.895  1.00  0.00    -0.349 OA
BRANCH   9  10
HETATM   10  C   UNL     1     -41.848 -51.546  13.376  1.00  0.00     0.209 C 
BRANCH  10  11
HETATM   11  C   UNL     1     -41.265 -52.709  12.555  1.00  0.00     0.160 C 
BRANCH  11  12
HETATM   12  C   UNL     1     -42.030 -54.019  12.801  1.00  0.00     0.164 C 
BRANCH  12  13
HETATM   13  N   UNL     1     -41.971 -54.477  14.182  1.00  0.00    -0.332 N 
HETATM   14  C   UNL     1     -43.053 -54.826  14.966  1.00  0.00     0.080 A 
HETATM   15  C   UNL     1     -44.472 -54.705  14.542  1.00  0.00     0.089 C 
HETATM   16  N   UNL     1     -42.657 -55.293  16.133  1.00  0.00    -0.344 N 
HETATM   17  C   UNL     1     -41.288 -55.250  16.109  1.00  0.00     0.060 A 
ATOM     18  HN  UNL     1     -43.248 -55.619  16.897  1.00  0.00     0.167 HD
HETATM   19  C   UNL     1     -40.372 -55.645  17.096  1.00  0.00     0.032 A 
HETATM   20  C   UNL     1     -40.823 -54.739  14.900  1.00  0.00     0.062 A 
HETATM   21  C   UNL     1     -39.003 -55.510  16.841  1.00  0.00     0.002 A 
HETATM   22  C   UNL     1     -38.556 -54.989  15.627  1.00  0.00     0.002 A 
HETATM   23  C   UNL     1     -39.455 -54.595  14.627  1.00  0.00     0.032 A 
ENDBRANCH  12  13
ENDBRANCH  11  12
BRANCH  11  24
HETATM   24  O   UNL     1     -41.283 -52.337  11.172  1.00  0.00    -0.392 OA
HETATM   25  H   UNL     1     -41.793 -52.994  10.670  1.00  0.00     0.210 HD
ENDBRANCH  11  24
ENDBRANCH  10  11
ENDBRANCH   9  10
ENDBRANCH   1   9
TORSDOF 6
ENDMDL
MODEL 7
REMARK VINA RESULT:      -6.4      2.496      4.367
REMARK  6 active torsions:
REMARK  status: ('A' for Active; 'I' for Inactive)
REMARK    1  A    between atoms: N_11  and  C_12 
REMARK    2  A    between atoms: C_12  and  C_13 
REMARK    3  A    between atoms: C_13  and  O_14 
REMARK    4  A    between atoms: C_13  and  C_15 
REMARK    5  A    between atoms: C_15  and  O_16 
REMARK    6  A    between atoms: O_16  and  C_17 
ROOT
HETATM    1  C   UNL     1     -40.833 -52.907  13.410  1.00  0.00     0.069 A 
HETATM    2  C   UNL     1     -40.695 -52.580  14.761  1.00  0.00     0.038 A 
HETATM    3  C   UNL     1     -41.618 -53.043  15.706  1.00  0.00     0.025 A 
HETATM    4  C   UNL     1     -42.703 -53.822  15.297  1.00  0.00     0.044 A 
HETATM    5  C   UNL     1     -43.649 -54.306  16.262  1.00  0.00     0.099 C 
HETATM    6  N   UNL     1     -44.414 -54.701  17.041  1.00  0.00    -0.191 NA
HETATM    7  C   UNL     1     -42.859 -54.127  13.942  1.00  0.00     0.025 A 
HETATM    8  C   UNL     1     -41.928 -53.669  13.000  1.00  0.00     0.038 A 
ENDROOT
BRANCH   1   9
HETATM    9  O   UNL     1     -39.872 -52.388  12.587  1.00  0.00    -0.349 OA
BRANCH   9  10
HETATM   10  C   UNL     1     -39.789 -50.964  12.533  1.00  0.00     0.209 C 
BRANCH  10  11
HETATM   11  C   UNL     1     -40.950 -50.407  11.691  1.00  0.00     0.160 C 
BRANCH  11  12
HETATM   12  C   UNL     1     -41.586 -49.171  12.346  1.00  0.00     0.164 C 
BRANCH  12  13
HETATM   13  N   UNL     1     -42.145 -49.434  13.664  1.00  0.00    -0.332 N 
HETATM   14  C   UNL     1     -41.647 -48.965  14.863  1.00  0.00     0.080 A 
HETATM   15  C   UNL     1     -40.393 -48.181  15.003  1.00  0.00     0.089 C 
HETATM   16  N   UNL     1     -42.439 -49.297  15.863  1.00  0.00    -0.344 N 
HETATM   17  C   UNL     1     -43.477 -49.994  15.304  1.00  0.00     0.060 A 
ATOM     18  HN  UNL     1     -42.305 -49.080  16.851  1.00  0.00     0.167 HD
HETATM   19  C   UNL     1     -44.600 -50.560  15.926  1.00  0.00     0.032 A 
HETATM   20  C   UNL     1     -43.324 -50.101  13.925  1.00  0.00     0.062 A 
HETATM   21  C   UNL     1     -45.544 -51.230  15.140  1.00  0.00     0.002 A 
HETATM   22  C   UNL     1     -45.369 -51.334  13.760  1.00  0.00     0.002 A 
HETATM   23  C   UNL     1     -44.258 -50.770  13.120  1.00  0.00     0.032 A 
ENDBRANCH  12  13
ENDBRANCH  11  12
BRANCH  11  24
HETATM   24  O   UNL     1     -40.455 -50.116  10.379  1.00  0.00    -0.392 OA
HETATM   25  H   UNL     1     -40.231 -49.172  10.323  1.00  0.00     0.210 HD
ENDBRANCH  11  24
ENDBRANCH  10  11
ENDBRANCH   9  10
ENDBRANCH   1   9
TORSDOF 6
ENDMDL
MODEL 8
REMARK VINA RESULT:      -6.4      2.243      6.357
REMARK  6 active torsions:
REMARK  status: ('A' for Active; 'I' for Inactive)
REMARK    1  A    between atoms: N_11  and  C_12 
REMARK    2  A    between atoms: C_12  and  C_13 
REMARK    3  A    between atoms: C_13  and  O_14 
REMARK    4  A    between atoms: C_13  and  C_15 
REMARK    5  A    between atoms: C_15  and  O_16 
REMARK    6  A    between atoms: O_16  and  C_17 
ROOT
HETATM    1  C   UNL     1     -41.945 -49.790  12.151  1.00  0.00     0.069 A 
HETATM    2  C   UNL     1     -43.121 -49.095  12.442  1.00  0.00     0.038 A 
HETATM    3  C   UNL     1     -43.439 -47.915  11.762  1.00  0.00     0.025 A 
HETATM    4  C   UNL     1     -42.567 -47.410  10.795  1.00  0.00     0.044 A 
HETATM    5  C   UNL     1     -42.891 -46.203  10.089  1.00  0.00     0.099 C 
HETATM    6  N   UNL     1     -43.153 -45.229   9.513  1.00  0.00    -0.191 NA
HETATM    7  C   UNL     1     -41.375 -48.089  10.521  1.00  0.00     0.025 A 
HETATM    8  C   UNL     1     -41.064 -49.276  11.199  1.00  0.00     0.038 A 
ENDROOT
BRANCH   1   9
HETATM    9  O   UNL     1     -41.743 -50.925  12.889  1.00  0.00    -0.349 OA
BRANCH   9  10
HETATM   10  C   UNL     1     -41.422 -52.106  12.154  1.00  0.00     0.209 C 
BRANCH  10  11
HETATM   11  C   UNL     1     -41.286 -53.297  13.120  1.00  0.00     0.160 C 
BRANCH  11  12
HETATM   12  C   UNL     1     -42.533 -54.195  13.094  1.00  0.00     0.164 C 
BRANCH  12  13
HETATM   13  N   UNL     1     -43.491 -53.890  14.148  1.00  0.00    -0.332 N 
HETATM   14  C   UNL     1     -43.431 -54.339  15.452  1.00  0.00     0.080 A 
HETATM   15  C   UNL     1     -42.410 -55.288  15.967  1.00  0.00     0.089 C 
HETATM   16  N   UNL     1     -44.391 -53.803  16.179  1.00  0.00    -0.344 N 
HETATM   17  C   UNL     1     -45.090 -52.985  15.331  1.00  0.00     0.060 A 
ATOM     18  HN  UNL     1     -44.576 -53.965  17.169  1.00  0.00     0.167 HD
HETATM   19  C   UNL     1     -46.201 -52.172  15.602  1.00  0.00     0.032 A 
HETATM   20  C   UNL     1     -44.555 -53.018  14.047  1.00  0.00     0.062 A 
HETATM   21  C   UNL     1     -46.751 -51.410  14.565  1.00  0.00     0.002 A 
HETATM   22  C   UNL     1     -46.206 -51.461  13.283  1.00  0.00     0.002 A 
HETATM   23  C   UNL     1     -45.093 -52.264  12.994  1.00  0.00     0.032 A 
ENDBRANCH  12  13
ENDBRANCH  11  12
BRANCH  11  24
HETATM   24  O   UNL     1     -40.102 -54.024  12.771  1.00  0.00    -0.392 OA
HETATM   25  H   UNL     1     -40.314 -54.971  12.709  1.00  0.00     0.210 HD
ENDBRANCH  11  24
ENDBRANCH  10  11
ENDBRANCH   9  10
ENDBRANCH   1   9
TORSDOF 6
ENDMDL
MODEL 9
REMARK VINA RESULT:      -6.4      2.846      5.315
REMARK  6 active torsions:
REMARK  status: ('A' for Active; 'I' for Inactive)
REMARK    1  A    between atoms: N_11  and  C_12 
REMARK    2  A    between atoms: C_12  and  C_13 
REMARK    3  A    between atoms: C_13  and  O_14 
REMARK    4  A    between atoms: C_13  and  C_15 
REMARK    5  A    between atoms: C_15  and  O_16 
REMARK    6  A    between atoms: O_16  and  C_17 
ROOT
HETATM    1  C   UNL     1     -41.535 -53.221  15.831  1.00  0.00     0.069 A 
HETATM    2  C   UNL     1     -41.878 -54.574  15.886  1.00  0.00     0.038 A 
HETATM    3  C   UNL     1     -43.000 -54.998  16.605  1.00  0.00     0.025 A 
HETATM    4  C   UNL     1     -43.780 -54.065  17.295  1.00  0.00     0.044 A 
HETATM    5  C   UNL     1     -44.936 -54.492  18.029  1.00  0.00     0.099 C 
HETATM    6  N   UNL     1     -45.876 -54.835  18.620  1.00  0.00    -0.191 NA
HETATM    7  C   UNL     1     -43.423 -52.714  17.264  1.00  0.00     0.025 A 
HETATM    8  C   UNL     1     -42.302 -52.292  16.536  1.00  0.00     0.038 A 
ENDROOT
BRANCH   1   9
HETATM    9  O   UNL     1     -40.413 -52.936  15.103  1.00  0.00    -0.349 OA
BRANCH   9  10
HETATM   10  C   UNL     1     -40.595 -52.088  13.969  1.00  0.00     0.209 C 
BRANCH  10  11
HETATM   11  C   UNL     1     -41.235 -52.888  12.820  1.00  0.00     0.160 C 
BRANCH  11  12
HETATM   12  C   UNL     1     -42.438 -52.150  12.214  1.00  0.00     0.164 C 
BRANCH  12  13
HETATM   13  N   UNL     1     -43.566 -52.027  13.127  1.00  0.00    -0.332 N 
HETATM   14  C   UNL     1     -44.039 -50.852  13.676  1.00  0.00     0.080 A 
HETATM   15  C   UNL     1     -43.406 -49.522  13.486  1.00  0.00     0.089 C 
HETATM   16  N   UNL     1     -45.131 -51.069  14.381  1.00  0.00    -0.344 N 
HETATM   17  C   UNL     1     -45.378 -52.413  14.286  1.00  0.00     0.060 A 
ATOM     18  HN  UNL     1     -45.680 -50.377  14.891  1.00  0.00     0.167 HD
HETATM   19  C   UNL     1     -46.428 -53.161  14.840  1.00  0.00     0.032 A 
HETATM   20  C   UNL     1     -44.413 -53.046  13.509  1.00  0.00     0.062 A 
HETATM   21  C   UNL     1     -46.476 -54.539  14.601  1.00  0.00     0.002 A 
HETATM   22  C   UNL     1     -45.496 -55.158  13.826  1.00  0.00     0.002 A 
HETATM   23  C   UNL     1     -44.444 -54.426  13.259  1.00  0.00     0.032 A 
ENDBRANCH  12  13
ENDBRANCH  11  12
BRANCH  11  24
HETATM   24  O   UNL     1     -40.225 -53.150  11.839  1.00  0.00    -0.392 OA
HETATM   25  H   UNL     1     -39.496 -53.643  12.252  1.00  0.00     0.210 HD
ENDBRANCH  11  24
ENDBRANCH  10  11
ENDBRANCH   9  10
ENDBRANCH   1   9
TORSDOF 6
ENDMDL
