MODEL 1
REMARK VINA RESULT:      -5.9      0.000      0.000
REMARK  7 active torsions:
REMARK  status: ('A' for Active; 'I' for Inactive)
REMARK    1  A    between atoms: C_2  and  C_3 
REMARK    2  A    between atoms: C_2  and  N_18 
REMARK    3  A    between atoms: C_3  and  N_4 
REMARK    4  A    between atoms: N_4  and  C_5 
REMARK    5  A    between atoms: C_5  and  C_6 
REMARK    6  A    between atoms: C_5  and  C_14 
REMARK    7  A    between atoms: C_6  and  C_7 
ROOT
HETATM    1  C   UNL     1     -39.245 -50.270  11.776  1.00  0.00     0.331 C 
ENDROOT
BRANCH   1   2
HETATM    2  N   UNL     1     -39.673 -51.644  12.177  1.00  0.00     0.099 N 
HETATM    3  H   UNL     1     -39.312 -52.293  11.476  1.00  0.00     0.316 HD
BRANCH   2   4
HETATM    4  C   UNL     1     -41.119 -51.842  12.366  1.00  0.00     0.305 C 
BRANCH   4   5
HETATM    5  C   UNL     1     -41.409 -52.893  13.515  1.00  0.00     0.247 C 
HETATM    6  C   UNL     1     -40.119 -53.718  13.692  1.00  0.00     0.045 C 
BRANCH   5   7
HETATM    7  N   UNL     1     -42.619 -53.736  13.248  1.00  0.00     0.102 N 
HETATM    8  C   UNL     1     -43.657 -52.998  12.457  1.00  0.00     0.299 C 
HETATM    9  C   UNL     1     -44.402 -51.907  13.254  1.00  0.00     0.198 C 
HETATM   10  O   UNL     1     -45.016 -52.433  14.435  1.00  0.00    -0.387 OA
HETATM   11  C   UNL     1     -44.069 -53.138  15.248  1.00  0.00     0.203 C 
HETATM   12  C   UNL     1     -43.377 -54.259  14.437  1.00  0.00     0.243 C 
HETATM   13  C   UNL     1     -42.673 -55.258  15.357  1.00  0.00     0.045 C 
ENDBRANCH   5   7
ENDBRANCH   4   5
ENDBRANCH   2   4
ENDBRANCH   1   2
BRANCH   1  14
HETATM   14  C   UNL     1     -40.031 -49.117  12.450  1.00  0.00     0.083 C 
BRANCH  14  15
HETATM   15  C   UNL     1     -40.631 -48.072  11.535  1.00  0.00    -0.053 A 
HETATM   16  C   UNL     1     -41.808 -48.340  10.830  1.00  0.00     0.024 A 
HETATM   17  C   UNL     1     -42.333 -47.357  10.006  1.00  0.00     0.088 A 
HETATM   18  N   UNL     1     -41.786 -46.134   9.841  1.00  0.00    -0.375 N 
HETATM   19  C   UNL     1     -40.656 -45.889  10.531  1.00  0.00     0.088 A 
ATOM     20  HN  UNL     1     -42.206 -45.435   9.228  1.00  0.00     0.164 HD
HETATM   21  C   UNL     1     -40.061 -46.807  11.379  1.00  0.00     0.024 A 
ENDBRANCH  14  15
ENDBRANCH   1  14
BRANCH   1  22
HETATM   22  C   UNL     1     -37.700 -50.043  11.912  1.00  0.00     0.418 C 
HETATM   23  F   UNL     1     -37.143 -49.676  10.732  1.00  0.00    -0.169 F 
HETATM   24  F   UNL     1     -37.461 -49.025  12.780  1.00  0.00    -0.169 F 
HETATM   25  F   UNL     1     -37.023 -51.115  12.371  1.00  0.00    -0.169 F 
ENDBRANCH   1  22
TORSDOF 7
ENDMDL
MODEL 2
REMARK VINA RESULT:      -5.7      1.348      2.290
REMARK  7 active torsions:
REMARK  status: ('A' for Active; 'I' for Inactive)
REMARK    1  A    between atoms: C_2  and  C_3 
REMARK    2  A    between atoms: C_2  and  N_18 
REMARK    3  A    between atoms: C_3  and  N_4 
REMARK    4  A    between atoms: N_4  and  C_5 
REMARK    5  A    between atoms: C_5  and  C_6 
REMARK    6  A    between atoms: C_5  and  C_14 
REMARK    7  A    between atoms: C_6  and  C_7 
ROOT
HETATM    1  C   UNL     1     -39.453 -49.837  11.820  1.00  0.00     0.331 C 
ENDROOT
BRANCH   1   2
HETATM    2  N   UNL     1     -40.231 -50.954  12.434  1.00  0.00     0.099 N 
HETATM    3  H   UNL     1     -40.893 -51.288  11.732  1.00  0.00     0.316 HD
BRANCH   2   4
HETATM    4  C   UNL     1     -40.928 -50.643  13.693  1.00  0.00     0.305 C 
BRANCH   4   5
HETATM    5  C   UNL     1     -42.498 -50.737  13.518  1.00  0.00     0.247 C 
HETATM    6  C   UNL     1     -43.055 -49.324  13.780  1.00  0.00     0.045 C 
BRANCH   5   7
HETATM    7  N   UNL     1     -43.124 -51.789  14.384  1.00  0.00     0.102 N 
HETATM    8  C   UNL     1     -42.285 -53.028  14.462  1.00  0.00     0.299 C 
HETATM    9  C   UNL     1     -42.282 -53.873  13.170  1.00  0.00     0.198 C 
HETATM   10  O   UNL     1     -43.606 -54.242  12.772  1.00  0.00    -0.387 OA
HETATM   11  C   UNL     1     -44.459 -53.096  12.661  1.00  0.00     0.203 C 
HETATM   12  C   UNL     1     -44.482 -52.298  13.986  1.00  0.00     0.243 C 
HETATM   13  C   UNL     1     -45.658 -51.322  14.029  1.00  0.00     0.045 C 
ENDBRANCH   5   7
ENDBRANCH   4   5
ENDBRANCH   2   4
ENDBRANCH   1   2
BRANCH   1  14
HETATM   14  C   UNL     1     -39.894 -48.416  12.253  1.00  0.00     0.083 C 
BRANCH  14  15
HETATM   15  C   UNL     1     -40.766 -47.647  11.285  1.00  0.00    -0.053 A 
HETATM   16  C   UNL     1     -41.761 -48.301  10.554  1.00  0.00     0.024 A 
HETATM   17  C   UNL     1     -42.545 -47.563   9.681  1.00  0.00     0.088 A 
HETATM   18  N   UNL     1     -42.423 -46.232   9.492  1.00  0.00    -0.375 N 
HETATM   19  C   UNL     1     -41.464 -45.615  10.208  1.00  0.00     0.088 A 
ATOM     20  HN  UNL     1     -43.024 -45.723   8.844  1.00  0.00     0.164 HD
HETATM   21  C   UNL     1     -40.635 -46.268  11.104  1.00  0.00     0.024 A 
ENDBRANCH  14  15
ENDBRANCH   1  14
BRANCH   1  22
HETATM   22  C   UNL     1     -37.903 -50.009  11.975  1.00  0.00     0.418 C 
HETATM   23  F   UNL     1     -37.379 -49.080  12.812  1.00  0.00    -0.169 F 
HETATM   24  F   UNL     1     -37.629 -51.219  12.530  1.00  0.00    -0.169 F 
HETATM   25  F   UNL     1     -37.221 -49.949  10.814  1.00  0.00    -0.169 F 
ENDBRANCH   1  22
TORSDOF 7
ENDMDL
MODEL 3
REMARK VINA RESULT:      -5.6      2.990      4.396
REMARK  7 active torsions:
REMARK  status: ('A' for Active; 'I' for Inactive)
REMARK    1  A    between atoms: C_2  and  C_3 
REMARK    2  A    between atoms: C_2  and  N_18 
REMARK    3  A    between atoms: C_3  and  N_4 
REMARK    4  A    between atoms: N_4  and  C_5 
REMARK    5  A    between atoms: C_5  and  C_6 
REMARK    6  A    between atoms: C_5  and  C_14 
REMARK    7  A    between atoms: C_6  and  C_7 
ROOT
HETATM    1  C   UNL     1     -40.837 -52.751  14.654  1.00  0.00     0.331 C 
ENDROOT
BRANCH   1   2
HETATM    2  N   UNL     1     -41.460 -52.749  16.011  1.00  0.00     0.099 N 
HETATM    3  H   UNL     1     -41.689 -53.717  16.244  1.00  0.00     0.316 HD
BRANCH   2   4
HETATM    4  C   UNL     1     -42.639 -51.886  16.182  1.00  0.00     0.305 C 
BRANCH   4   5
HETATM    5  C   UNL     1     -43.570 -51.925  14.902  1.00  0.00     0.247 C 
HETATM    6  C   UNL     1     -43.728 -50.466  14.428  1.00  0.00     0.045 C 
BRANCH   5   7
HETATM    7  N   UNL     1     -44.880 -52.611  15.149  1.00  0.00     0.102 N 
HETATM    8  C   UNL     1     -44.700 -54.047  15.539  1.00  0.00     0.299 C 
HETATM    9  C   UNL     1     -44.259 -54.967  14.381  1.00  0.00     0.198 C 
HETATM   10  O   UNL     1     -45.164 -54.905  13.276  1.00  0.00    -0.387 OA
HETATM   11  C   UNL     1     -45.368 -53.555  12.840  1.00  0.00     0.203 C 
HETATM   12  C   UNL     1     -45.859 -52.668  14.008  1.00  0.00     0.243 C 
HETATM   13  C   UNL     1     -46.450 -51.353  13.500  1.00  0.00     0.045 C 
ENDBRANCH   5   7
ENDBRANCH   4   5
ENDBRANCH   2   4
ENDBRANCH   1   2
BRANCH   1  14
HETATM   14  C   UNL     1     -39.517 -51.947  14.539  1.00  0.00     0.083 C 
BRANCH  14  15
HETATM   15  C   UNL     1     -39.294 -51.179  13.255  1.00  0.00    -0.053 A 
HETATM   16  C   UNL     1     -40.381 -50.756  12.484  1.00  0.00     0.024 A 
HETATM   17  C   UNL     1     -40.139 -50.049  11.317  1.00  0.00     0.088 A 
HETATM   18  N   UNL     1     -38.908 -49.723  10.869  1.00  0.00    -0.375 N 
HETATM   19  C   UNL     1     -37.871 -50.132  11.625  1.00  0.00     0.088 A 
ATOM     20  HN  UNL     1     -38.771 -49.196  10.006  1.00  0.00     0.164 HD
HETATM   21  C   UNL     1     -38.016 -50.840  12.806  1.00  0.00     0.024 A 
ENDBRANCH  14  15
ENDBRANCH   1  14
BRANCH   1  22
HETATM   22  C   UNL     1     -40.664 -54.190  14.058  1.00  0.00     0.418 C 
HETATM   23  F   UNL     1     -41.395 -54.354  12.929  1.00  0.00    -0.169 F 
HETATM   24  F   UNL     1     -39.368 -54.388  13.705  1.00  0.00    -0.169 F 
HETATM   25  F   UNL     1     -40.994 -55.183  14.909  1.00  0.00    -0.169 F 
ENDBRANCH   1  22
TORSDOF 7
ENDMDL
MODEL 4
REMARK VINA RESULT:      -5.5      2.935      6.701
REMARK  7 active torsions:
REMARK  status: ('A' for Active; 'I' for Inactive)
REMARK    1  A    between atoms: C_2  and  C_3 
REMARK    2  A    between atoms: C_2  and  N_18 
REMARK    3  A    between atoms: C_3  and  N_4 
REMARK    4  A    between atoms: N_4  and  C_5 
REMARK    5  A    between atoms: C_5  and  C_6 
REMARK    6  A    between atoms: C_5  and  C_14 
REMARK    7  A    between atoms: C_6  and  C_7 
ROOT
HETATM    1  C   UNL     1     -41.726 -52.559  13.471  1.00  0.00     0.331 C 
ENDROOT
BRANCH   1   2
HETATM    2  N   UNL     1     -40.920 -51.317  13.271  1.00  0.00     0.099 N 
HETATM    3  H   UNL     1     -41.387 -50.565  13.781  1.00  0.00     0.316 HD
BRANCH   2   4
HETATM    4  C   UNL     1     -40.676 -50.919  11.876  1.00  0.00     0.305 C 
BRANCH   4   5
HETATM    5  C   UNL     1     -40.140 -49.432  11.787  1.00  0.00     0.247 C 
HETATM    6  C   UNL     1     -38.781 -49.410  12.515  1.00  0.00     0.045 C 
BRANCH   5   7
HETATM    7  N   UNL     1     -41.113 -48.424  12.319  1.00  0.00     0.102 N 
HETATM    8  C   UNL     1     -42.422 -48.465  11.591  1.00  0.00     0.299 C 
HETATM    9  C   UNL     1     -42.369 -47.889  10.160  1.00  0.00     0.198 C 
HETATM   10  O   UNL     1     -41.881 -46.544  10.144  1.00  0.00    -0.387 OA
HETATM   11  C   UNL     1     -40.616 -46.439  10.811  1.00  0.00     0.203 C 
HETATM   12  C   UNL     1     -40.713 -46.975  12.259  1.00  0.00     0.243 C 
HETATM   13  C   UNL     1     -39.521 -46.521  13.103  1.00  0.00     0.045 C 
ENDBRANCH   5   7
ENDBRANCH   4   5
ENDBRANCH   2   4
ENDBRANCH   1   2
BRANCH   1  14
HETATM   14  C   UNL     1     -42.904 -52.741  12.481  1.00  0.00     0.083 C 
BRANCH  14  15
HETATM   15  C   UNL     1     -44.222 -53.202  13.063  1.00  0.00    -0.053 A 
HETATM   16  C   UNL     1     -45.261 -52.292  13.271  1.00  0.00     0.024 A 
HETATM   17  C   UNL     1     -46.457 -52.752  13.801  1.00  0.00     0.088 A 
HETATM   18  N   UNL     1     -46.698 -54.039  14.125  1.00  0.00    -0.375 N 
HETATM   19  C   UNL     1     -45.689 -54.905  13.913  1.00  0.00     0.088 A 
ATOM     20  HN  UNL     1     -47.594 -54.339  14.508  1.00  0.00     0.164 HD
HETATM   21  C   UNL     1     -44.462 -54.539  13.387  1.00  0.00     0.024 A 
ENDBRANCH  14  15
ENDBRANCH   1  14
BRANCH   1  22
HETATM   22  C   UNL     1     -40.849 -53.856  13.536  1.00  0.00     0.418 C 
HETATM   23  F   UNL     1     -39.534 -53.563  13.689  1.00  0.00    -0.169 F 
HETATM   24  F   UNL     1     -41.204 -54.595  14.619  1.00  0.00    -0.169 F 
HETATM   25  F   UNL     1     -40.969 -54.658  12.459  1.00  0.00    -0.169 F 
ENDBRANCH   1  22
TORSDOF 7
ENDMDL
MODEL 5
REMARK VINA RESULT:      -5.5      3.533      4.858
REMARK  7 active torsions:
REMARK  status: ('A' for Active; 'I' for Inactive)
REMARK    1  A    between atoms: C_2  and  C_3 
REMARK    2  A    between atoms: C_2  and  N_18 
REMARK    3  A    between atoms: C_3  and  N_4 
REMARK    4  A    between atoms: N_4  and  C_5 
REMARK    5  A    between atoms: C_5  and  C_6 
REMARK    6  A    between atoms: C_5  and  C_14 
REMARK    7  A    between atoms: C_6  and  C_7 
ROOT
HETATM    1  C   UNL     1     -43.235 -47.506  10.747  1.00  0.00     0.331 C 
ENDROOT
BRANCH   1   2
HETATM    2  N   UNL     1     -43.594 -48.772  11.455  1.00  0.00     0.099 N 
HETATM    3  H   UNL     1     -44.612 -48.809  11.517  1.00  0.00     0.316 HD
BRANCH   2   4
HETATM    4  C   UNL     1     -42.989 -48.965  12.783  1.00  0.00     0.305 C 
BRANCH   4   5
HETATM    5  C   UNL     1     -42.994 -50.492  13.200  1.00  0.00     0.247 C 
HETATM    6  C   UNL     1     -44.354 -50.758  13.877  1.00  0.00     0.045 C 
BRANCH   5   7
HETATM    7  N   UNL     1     -41.824 -50.872  14.056  1.00  0.00     0.102 N 
HETATM    8  C   UNL     1     -40.593 -50.093  13.705  1.00  0.00     0.299 C 
HETATM    9  C   UNL     1     -39.944 -50.502  12.366  1.00  0.00     0.198 C 
HETATM   10  O   UNL     1     -39.627 -51.897  12.332  1.00  0.00    -0.387 OA
HETATM   11  C   UNL     1     -40.771 -52.703  12.642  1.00  0.00     0.203 C 
HETATM   12  C   UNL     1     -41.368 -52.305  14.013  1.00  0.00     0.243 C 
HETATM   13  C   UNL     1     -42.319 -53.380  14.540  1.00  0.00     0.045 C 
ENDBRANCH   5   7
ENDBRANCH   4   5
ENDBRANCH   2   4
ENDBRANCH   1   2
BRANCH   1  14
HETATM   14  C   UNL     1     -41.715 -47.225  10.639  1.00  0.00     0.083 C 
BRANCH  14  15
HETATM   15  C   UNL     1     -41.276 -45.782  10.763  1.00  0.00    -0.053 A 
HETATM   16  C   UNL     1     -39.992 -45.397  10.372  1.00  0.00     0.024 A 
HETATM   17  C   UNL     1     -39.627 -44.065  10.493  1.00  0.00     0.088 A 
HETATM   18  N   UNL     1     -40.441 -43.095  10.960  1.00  0.00    -0.375 N 
HETATM   19  C   UNL     1     -41.677 -43.481  11.329  1.00  0.00     0.088 A 
ATOM     20  HN  UNL     1     -40.136 -42.124  11.030  1.00  0.00     0.164 HD
HETATM   21  C   UNL     1     -42.131 -44.786  11.241  1.00  0.00     0.024 A 
ENDBRANCH  14  15
ENDBRANCH   1  14
BRANCH   1  22
HETATM   22  C   UNL     1     -43.927 -47.368   9.348  1.00  0.00     0.418 C 
HETATM   23  F   UNL     1     -43.227 -48.008   8.379  1.00  0.00    -0.169 F 
HETATM   24  F   UNL     1     -45.153 -47.953   9.383  1.00  0.00    -0.169 F 
HETATM   25  F   UNL     1     -44.113 -46.094   8.948  1.00  0.00    -0.169 F 
ENDBRANCH   1  22
TORSDOF 7
ENDMDL
MODEL 6
REMARK VINA RESULT:      -5.4      1.903      2.803
REMARK  7 active torsions:
REMARK  status: ('A' for Active; 'I' for Inactive)
REMARK    1  A    between atoms: C_2  and  C_3 
REMARK    2  A    between atoms: C_2  and  N_18 
REMARK    3  A    between atoms: C_3  and  N_4 
REMARK    4  A    between atoms: N_4  and  C_5 
REMARK    5  A    between atoms: C_5  and  C_6 
REMARK    6  A    between atoms: C_5  and  C_14 
REMARK    7  A    between atoms: C_6  and  C_7 
ROOT
HETATM    1  C   UNL     1     -39.506 -50.010  12.444  1.00  0.00     0.331 C 
ENDROOT
BRANCH   1   2
HETATM    2  N   UNL     1     -40.030 -49.369  13.688  1.00  0.00     0.099 N 
HETATM    3  H   UNL     1     -39.301 -48.748  14.042  1.00  0.00     0.316 HD
BRANCH   2   4
HETATM    4  C   UNL     1     -40.485 -50.285  14.745  1.00  0.00     0.305 C 
BRANCH   4   5
HETATM    5  C   UNL     1     -41.557 -51.312  14.195  1.00  0.00     0.247 C 
HETATM    6  C   UNL     1     -42.933 -50.634  14.344  1.00  0.00     0.045 C 
BRANCH   5   7
HETATM    7  N   UNL     1     -41.483 -52.653  14.861  1.00  0.00     0.102 N 
HETATM    8  C   UNL     1     -40.107 -52.951  15.375  1.00  0.00     0.299 C 
HETATM    9  C   UNL     1     -39.074 -53.269  14.273  1.00  0.00     0.198 C 
HETATM   10  O   UNL     1     -39.496 -54.355  13.443  1.00  0.00    -0.387 OA
HETATM   11  C   UNL     1     -40.803 -54.123  12.902  1.00  0.00     0.203 C 
HETATM   12  C   UNL     1     -41.827 -53.860  14.031  1.00  0.00     0.243 C 
HETATM   13  C   UNL     1     -43.263 -54.001  13.526  1.00  0.00     0.045 C 
ENDBRANCH   5   7
ENDBRANCH   4   5
ENDBRANCH   2   4
ENDBRANCH   1   2
BRANCH   1  14
HETATM   14  C   UNL     1     -40.280 -49.654  11.149  1.00  0.00     0.083 C 
BRANCH  14  15
HETATM   15  C   UNL     1     -41.152 -48.418  11.191  1.00  0.00    -0.053 A 
HETATM   16  C   UNL     1     -42.538 -48.533  11.329  1.00  0.00     0.024 A 
HETATM   17  C   UNL     1     -43.303 -47.378  11.371  1.00  0.00     0.088 A 
HETATM   18  N   UNL     1     -42.798 -46.129  11.297  1.00  0.00    -0.375 N 
HETATM   19  C   UNL     1     -41.460 -46.035  11.170  1.00  0.00     0.088 A 
ATOM     20  HN  UNL     1     -43.395 -45.303  11.336  1.00  0.00     0.164 HD
HETATM   21  C   UNL     1     -40.615 -47.130  11.122  1.00  0.00     0.024 A 
ENDBRANCH  14  15
ENDBRANCH   1  14
BRANCH   1  22
HETATM   22  C   UNL     1     -37.966 -49.800  12.245  1.00  0.00     0.418 C 
HETATM   23  F   UNL     1     -37.502 -48.769  12.993  1.00  0.00    -0.169 F 
HETATM   24  F   UNL     1     -37.295 -50.905  12.662  1.00  0.00    -0.169 F 
HETATM   25  F   UNL     1     -37.599 -49.579  10.968  1.00  0.00    -0.169 F 
ENDBRANCH   1  22
TORSDOF 7
ENDMDL
MODEL 7
REMARK VINA RESULT:      -5.4      4.101      7.147
REMARK  7 active torsions:
REMARK  status: ('A' for Active; 'I' for Inactive)
REMARK    1  A    between atoms: C_2  and  C_3 
REMARK    2  A    between atoms: C_2  and  N_18 
REMARK    3  A    between atoms: C_3  and  N_4 
REMARK    4  A    between atoms: N_4  and  C_5 
REMARK    5  A    between atoms: C_5  and  C_6 
REMARK    6  A    between atoms: C_5  and  C_14 
REMARK    7  A    between atoms: C_6  and  C_7 
ROOT
HETATM    1  C   UNL     1     -44.200 -52.387  13.580  1.00  0.00     0.331 C 
ENDROOT
BRANCH   1   2
HETATM    2  N   UNL     1     -43.428 -51.697  12.503  1.00  0.00     0.099 N 
HETATM    3  H   UNL     1     -42.842 -52.400  12.050  1.00  0.00     0.316 HD
BRANCH   2   4
HETATM    4  C   UNL     1     -42.618 -50.543  12.924  1.00  0.00     0.305 C 
BRANCH   4   5
HETATM    5  C   UNL     1     -41.162 -50.607  12.305  1.00  0.00     0.247 C 
HETATM    6  C   UNL     1     -40.863 -52.096  12.037  1.00  0.00     0.045 C 
BRANCH   5   7
HETATM    7  N   UNL     1     -40.129 -49.942  13.164  1.00  0.00     0.102 N 
HETATM    8  C   UNL     1     -40.737 -48.963  14.122  1.00  0.00     0.299 C 
HETATM    9  C   UNL     1     -41.247 -47.666  13.462  1.00  0.00     0.198 C 
HETATM   10  O   UNL     1     -40.218 -47.001  12.723  1.00  0.00    -0.387 OA
HETATM   11  C   UNL     1     -39.604 -47.881  11.772  1.00  0.00     0.203 C 
HETATM   12  C   UNL     1     -39.056 -49.148  12.470  1.00  0.00     0.243 C 
HETATM   13  C   UNL     1     -38.072 -49.898  11.572  1.00  0.00     0.045 C 
ENDBRANCH   5   7
ENDBRANCH   4   5
ENDBRANCH   2   4
ENDBRANCH   1   2
BRANCH   1  14
HETATM   14  C   UNL     1     -45.664 -51.905  13.747  1.00  0.00     0.083 C 
BRANCH  14  15
HETATM   15  C   UNL     1     -46.070 -51.414  15.118  1.00  0.00    -0.053 A 
HETATM   16  C   UNL     1     -45.162 -50.714  15.918  1.00  0.00     0.024 A 
HETATM   17  C   UNL     1     -45.572 -50.273  17.167  1.00  0.00     0.088 A 
HETATM   18  N   UNL     1     -46.809 -50.464  17.670  1.00  0.00    -0.375 N 
HETATM   19  C   UNL     1     -47.674 -51.134  16.886  1.00  0.00     0.088 A 
ATOM     20  HN  UNL     1     -47.074 -50.119  18.593  1.00  0.00     0.164 HD
HETATM   21  C   UNL     1     -47.357 -51.610  15.625  1.00  0.00     0.024 A 
ENDBRANCH  14  15
ENDBRANCH   1  14
BRANCH   1  22
HETATM   22  C   UNL     1     -44.137 -53.949  13.478  1.00  0.00     0.418 C 
HETATM   23  F   UNL     1     -45.184 -54.534  14.110  1.00  0.00    -0.169 F 
HETATM   24  F   UNL     1     -44.220 -54.327  12.175  1.00  0.00    -0.169 F 
HETATM   25  F   UNL     1     -43.005 -54.489  13.971  1.00  0.00    -0.169 F 
ENDBRANCH   1  22
TORSDOF 7
ENDMDL
MODEL 8
REMARK VINA RESULT:      -5.3      2.079      2.707
REMARK  7 active torsions:
REMARK  status: ('A' for Active; 'I' for Inactive)
REMARK    1  A    between atoms: C_2  and  C_3 
REMARK    2  A    between atoms: C_2  and  N_18 
REMARK    3  A    between atoms: C_3  and  N_4 
REMARK    4  A    between atoms: N_4  and  C_5 
REMARK    5  A    between atoms: C_5  and  C_6 
REMARK    6  A    between atoms: C_5  and  C_14 
REMARK    7  A    between atoms: C_6  and  C_7 
ROOT
HETATM    1  C   UNL     1     -41.499 -49.952  11.944  1.00  0.00     0.331 C 
ENDROOT
BRANCH   1   2
HETATM    2  N   UNL     1     -42.518 -51.041  12.039  1.00  0.00     0.099 N 
HETATM    3  H   UNL     1     -43.103 -50.985  11.204  1.00  0.00     0.316 HD
BRANCH   2   4
HETATM    4  C   UNL     1     -43.350 -51.046  13.253  1.00  0.00     0.305 C 
BRANCH   4   5
HETATM    5  C   UNL     1     -43.807 -52.513  13.631  1.00  0.00     0.247 C 
HETATM    6  C   UNL     1     -42.699 -53.462  13.128  1.00  0.00     0.045 C 
BRANCH   5   7
HETATM    7  N   UNL     1     -45.166 -52.860  13.103  1.00  0.00     0.102 N 
HETATM    8  C   UNL     1     -46.100 -51.688  13.137  1.00  0.00     0.299 C 
HETATM    9  C   UNL     1     -46.577 -51.300  14.552  1.00  0.00     0.198 C 
HETATM   10  O   UNL     1     -47.199 -52.398  15.226  1.00  0.00    -0.387 OA
HETATM   11  C   UNL     1     -46.348 -53.551  15.245  1.00  0.00     0.203 C 
HETATM   12  C   UNL     1     -45.928 -53.948  13.810  1.00  0.00     0.243 C 
HETATM   13  C   UNL     1     -45.363 -55.368  13.767  1.00  0.00     0.045 C 
ENDBRANCH   5   7
ENDBRANCH   4   5
ENDBRANCH   2   4
ENDBRANCH   1   2
BRANCH   1  14
HETATM   14  C   UNL     1     -41.880 -48.635  12.666  1.00  0.00     0.083 C 
BRANCH  14  15
HETATM   15  C   UNL     1     -41.113 -47.392  12.270  1.00  0.00    -0.053 A 
HETATM   16  C   UNL     1     -40.437 -46.640  13.235  1.00  0.00     0.024 A 
HETATM   17  C   UNL     1     -39.739 -45.511  12.835  1.00  0.00     0.088 A 
HETATM   18  N   UNL     1     -39.655 -45.085  11.557  1.00  0.00    -0.375 N 
HETATM   19  C   UNL     1     -40.307 -45.822  10.639  1.00  0.00     0.088 A 
ATOM     20  HN  UNL     1     -39.127 -44.250  11.302  1.00  0.00     0.164 HD
HETATM   21  C   UNL     1     -41.027 -46.965  10.943  1.00  0.00     0.024 A 
ENDBRANCH  14  15
ENDBRANCH   1  14
BRANCH   1  22
HETATM   22  C   UNL     1     -40.061 -50.417  12.358  1.00  0.00     0.418 C 
HETATM   23  F   UNL     1     -39.811 -50.162  13.666  1.00  0.00    -0.169 F 
HETATM   24  F   UNL     1     -39.953 -51.763  12.205  1.00  0.00    -0.169 F 
HETATM   25  F   UNL     1     -39.071 -49.861  11.633  1.00  0.00    -0.169 F 
ENDBRANCH   1  22
TORSDOF 7
ENDMDL
MODEL 9
REMARK VINA RESULT:      -5.3      3.706      6.178
REMARK  7 active torsions:
REMARK  status: ('A' for Active; 'I' for Inactive)
REMARK    1  A    between atoms: C_2  and  C_3 
REMARK    2  A    between atoms: C_2  and  N_18 
REMARK    3  A    between atoms: C_3  and  N_4 
REMARK    4  A    between atoms: N_4  and  C_5 
REMARK    5  A    between atoms: C_5  and  C_6 
REMARK    6  A    between atoms: C_5  and  C_14 
REMARK    7  A    between atoms: C_6  and  C_7 
ROOT
HETATM    1  C   UNL     1     -43.177 -52.485  13.041  1.00  0.00     0.331 C 
ENDROOT
BRANCH   1   2
HETATM    2  N   UNL     1     -42.362 -52.276  11.806  1.00  0.00     0.099 N 
HETATM    3  H   UNL     1     -41.987 -53.185  11.530  1.00  0.00     0.316 HD
BRANCH   2   4
HETATM    4  C   UNL     1     -41.283 -51.281  11.903  1.00  0.00     0.305 C 
BRANCH   4   5
HETATM    5  C   UNL     1     -41.358 -50.482  13.268  1.00  0.00     0.247 C 
HETATM    6  C   UNL     1     -41.897 -49.078  12.926  1.00  0.00     0.045 C 
BRANCH   5   7
HETATM    7  N   UNL     1     -40.052 -50.450  14.003  1.00  0.00     0.102 N 
HETATM    8  C   UNL     1     -39.147 -51.572  13.592  1.00  0.00     0.299 C 
HETATM    9  C   UNL     1     -39.583 -52.959  14.109  1.00  0.00     0.198 C 
HETATM   10  O   UNL     1     -39.717 -52.980  15.533  1.00  0.00    -0.387 OA
HETATM   11  C   UNL     1     -40.588 -51.938  15.993  1.00  0.00     0.203 C 
HETATM   12  C   UNL     1     -40.098 -50.555  15.503  1.00  0.00     0.243 C 
HETATM   13  C   UNL     1     -40.759 -49.420  16.285  1.00  0.00     0.045 C 
ENDBRANCH   5   7
ENDBRANCH   4   5
ENDBRANCH   2   4
ENDBRANCH   1   2
BRANCH   1  14
HETATM   14  C   UNL     1     -44.620 -51.923  12.975  1.00  0.00     0.083 C 
BRANCH  14  15
HETATM   15  C   UNL     1     -45.256 -51.517  14.286  1.00  0.00    -0.053 A 
HETATM   16  C   UNL     1     -46.608 -51.773  14.527  1.00  0.00     0.024 A 
HETATM   17  C   UNL     1     -47.155 -51.392  15.743  1.00  0.00     0.088 A 
HETATM   18  N   UNL     1     -46.461 -50.792  16.732  1.00  0.00    -0.375 N 
HETATM   19  C   UNL     1     -45.158 -50.556  16.487  1.00  0.00     0.088 A 
ATOM     20  HN  UNL     1     -46.899 -50.531  17.616  1.00  0.00     0.164 HD
HETATM   21  C   UNL     1     -44.525 -50.903  15.306  1.00  0.00     0.024 A 
ENDBRANCH  14  15
ENDBRANCH   1  14
BRANCH   1  22
HETATM   22  C   UNL     1     -43.182 -53.973  13.530  1.00  0.00     0.418 C 
HETATM   23  F   UNL     1     -42.127 -54.665  13.034  1.00  0.00    -0.169 F 
HETATM   24  F   UNL     1     -43.061 -54.012  14.883  1.00  0.00    -0.169 F 
HETATM   25  F   UNL     1     -44.303 -54.653  13.218  1.00  0.00    -0.169 F 
ENDBRANCH   1  22
TORSDOF 7
ENDMDL
