MODEL 1
REMARK VINA RESULT:      -5.6      0.000      0.000
REMARK  6 active torsions:
REMARK  status: ('A' for Active; 'I' for Inactive)
REMARK    1  A    between atoms: C_2  and  C_3 
REMARK       I    between atoms: C_2  and  N_11 
REMARK    2  A    between atoms: C_3  and  N_4 
REMARK    3  A    between atoms: N_11  and  C_12 
REMARK    4  A    between atoms: C_12  and  C_13 
REMARK    5  A    between atoms: C_13  and  S_14 
REMARK    6  A    between atoms: S_14  and  C_15 
ROOT
HETATM    1  O   UNL     1     -42.408 -54.666  15.215  1.00  0.00    -0.272 OA
HETATM    2  C   UNL     1     -43.081 -54.555  14.193  1.00  0.00     0.235 C 
HETATM    3  N   UNL     1     -42.554 -54.189  12.971  1.00  0.00    -0.359 N 
HETATM    4  H   UNL     1     -43.199 -53.750  12.312  1.00  0.00     0.162 HD
ENDROOT
BRANCH   2   5
HETATM    5  C   UNL     1     -44.590 -54.801  14.175  1.00  0.00     0.234 C 
BRANCH   5   6
HETATM    6  N   UNL     1     -45.354 -53.584  14.418  1.00  0.00    -0.316 N 
HETATM    7  C   UNL     1     -45.659 -53.212  15.716  1.00  0.00     0.095 A 
HETATM    8  C   UNL     1     -46.416 -52.136  15.966  1.00  0.00     0.017 A 
HETATM    9  C   UNL     1     -46.929 -51.348  14.875  1.00  0.00     0.007 A 
HETATM   10  C   UNL     1     -46.624 -51.660  13.608  1.00  0.00     0.074 A 
HETATM   11  C   UNL     1     -45.760 -52.836  13.315  1.00  0.00     0.247 A 
HETATM   12  O   UNL     1     -45.457 -53.104  12.157  1.00  0.00    -0.268 OA
ENDBRANCH   5   6
ENDBRANCH   2   5
BRANCH   3  13
HETATM   13  C   UNL     1     -41.147 -53.861  12.814  1.00  0.00     0.132 C 
BRANCH  13  14
HETATM   14  C   UNL     1     -40.934 -52.535  12.077  1.00  0.00     0.094 C 
BRANCH  14  15
HETATM   15  S   UNL     1     -41.146 -51.133  13.229  1.00  0.00    -0.163 SA
BRANCH  15  16
HETATM   16  C   UNL     1     -39.491 -50.380  13.147  1.00  0.00     0.047 C 
HETATM   17  C   UNL     1     -39.094 -49.864  11.762  1.00  0.00     0.015 C 
HETATM   18  C   UNL     1     -37.607 -50.191  11.595  1.00  0.00     0.001 C 
HETATM   19  C   UNL     1     -37.161 -50.841  12.897  1.00  0.00     0.001 C 
HETATM   20  C   UNL     1     -38.435 -51.434  13.474  1.00  0.00     0.015 C 
ENDBRANCH  15  16
ENDBRANCH  14  15
ENDBRANCH  13  14
ENDBRANCH   3  13
TORSDOF 6
ENDMDL
MODEL 2
REMARK VINA RESULT:      -5.5      1.858      2.580
REMARK  6 active torsions:
REMARK  status: ('A' for Active; 'I' for Inactive)
REMARK    1  A    between atoms: C_2  and  C_3 
REMARK       I    between atoms: C_2  and  N_11 
REMARK    2  A    between atoms: C_3  and  N_4 
REMARK    3  A    between atoms: N_11  and  C_12 
REMARK    4  A    between atoms: C_12  and  C_13 
REMARK    5  A    between atoms: C_13  and  S_14 
REMARK    6  A    between atoms: S_14  and  C_15 
ROOT
HETATM    1  O   UNL     1     -42.328 -54.599  15.652  1.00  0.00    -0.272 OA
HETATM    2  C   UNL     1     -42.865 -54.587  14.547  1.00  0.00     0.235 C 
HETATM    3  N   UNL     1     -42.183 -54.341  13.373  1.00  0.00    -0.359 N 
HETATM    4  H   UNL     1     -42.734 -53.967  12.598  1.00  0.00     0.162 HD
ENDROOT
BRANCH   2   5
HETATM    5  C   UNL     1     -44.363 -54.832  14.361  1.00  0.00     0.234 C 
BRANCH   5   6
HETATM    6  N   UNL     1     -45.132 -53.594  14.364  1.00  0.00    -0.316 N 
HETATM    7  C   UNL     1     -45.581 -53.068  15.563  1.00  0.00     0.095 A 
HETATM    8  C   UNL     1     -46.346 -51.969  15.592  1.00  0.00     0.017 A 
HETATM    9  C   UNL     1     -46.717 -51.319  14.361  1.00  0.00     0.007 A 
HETATM   10  C   UNL     1     -46.271 -51.782  13.186  1.00  0.00     0.074 A 
HETATM   11  C   UNL     1     -45.396 -52.985  13.140  1.00  0.00     0.247 A 
HETATM   12  O   UNL     1     -44.963 -53.391  12.066  1.00  0.00    -0.268 OA
ENDBRANCH   5   6
ENDBRANCH   2   5
BRANCH   3  13
HETATM   13  C   UNL     1     -40.763 -54.033  13.365  1.00  0.00     0.132 C 
BRANCH  13  14
HETATM   14  C   UNL     1     -40.491 -52.529  13.490  1.00  0.00     0.094 C 
BRANCH  14  15
HETATM   15  S   UNL     1     -41.145 -51.649  12.029  1.00  0.00    -0.163 SA
BRANCH  15  16
HETATM   16  C   UNL     1     -42.548 -50.760  12.775  1.00  0.00     0.047 C 
HETATM   17  C   UNL     1     -42.559 -49.252  12.515  1.00  0.00     0.015 C 
HETATM   18  C   UNL     1     -43.042 -48.598  13.812  1.00  0.00     0.001 C 
HETATM   19  C   UNL     1     -43.349 -49.735  14.778  1.00  0.00     0.001 C 
HETATM   20  C   UNL     1     -42.476 -50.880  14.296  1.00  0.00     0.015 C 
ENDBRANCH  15  16
ENDBRANCH  14  15
ENDBRANCH  13  14
ENDBRANCH   3  13
TORSDOF 6
ENDMDL
MODEL 3
REMARK VINA RESULT:      -5.3      1.226      1.742
REMARK  6 active torsions:
REMARK  status: ('A' for Active; 'I' for Inactive)
REMARK    1  A    between atoms: C_2  and  C_3 
REMARK       I    between atoms: C_2  and  N_11 
REMARK    2  A    between atoms: C_3  and  N_4 
REMARK    3  A    between atoms: N_11  and  C_12 
REMARK    4  A    between atoms: C_12  and  C_13 
REMARK    5  A    between atoms: C_13  and  S_14 
REMARK    6  A    between atoms: S_14  and  C_15 
ROOT
HETATM    1  O   UNL     1     -42.561 -54.379  15.130  1.00  0.00    -0.272 OA
HETATM    2  C   UNL     1     -43.019 -54.430  13.991  1.00  0.00     0.235 C 
HETATM    3  N   UNL     1     -42.264 -54.212  12.857  1.00  0.00    -0.359 N 
HETATM    4  H   UNL     1     -42.768 -53.888  12.030  1.00  0.00     0.162 HD
ENDROOT
BRANCH   2   5
HETATM    5  C   UNL     1     -44.492 -54.731  13.713  1.00  0.00     0.234 C 
BRANCH   5   6
HETATM    6  N   UNL     1     -45.358 -53.601  14.027  1.00  0.00    -0.316 N 
HETATM    7  C   UNL     1     -45.488 -52.563  13.121  1.00  0.00     0.095 A 
HETATM    8  C   UNL     1     -46.223 -51.481  13.410  1.00  0.00     0.017 A 
HETATM    9  C   UNL     1     -46.891 -51.385  14.683  1.00  0.00     0.007 A 
HETATM   10  C   UNL     1     -46.813 -52.387  15.569  1.00  0.00     0.074 A 
HETATM   11  C   UNL     1     -46.024 -53.608  15.250  1.00  0.00     0.247 A 
HETATM   12  O   UNL     1     -45.979 -54.538  16.049  1.00  0.00    -0.268 OA
ENDBRANCH   5   6
ENDBRANCH   2   5
BRANCH   3  13
HETATM   13  C   UNL     1     -40.856 -53.858  12.934  1.00  0.00     0.132 C 
BRANCH  13  14
HETATM   14  C   UNL     1     -40.627 -52.346  12.839  1.00  0.00     0.094 C 
BRANCH  14  15
HETATM   15  S   UNL     1     -39.830 -51.733  14.365  1.00  0.00    -0.163 SA
BRANCH  15  16
HETATM   16  C   UNL     1     -38.816 -50.380  13.691  1.00  0.00     0.047 C 
HETATM   17  C   UNL     1     -39.614 -49.173  13.193  1.00  0.00     0.015 C 
HETATM   18  C   UNL     1     -38.907 -48.688  11.924  1.00  0.00     0.001 C 
HETATM   19  C   UNL     1     -37.691 -49.586  11.740  1.00  0.00     0.001 C 
HETATM   20  C   UNL     1     -38.065 -50.872  12.456  1.00  0.00     0.015 C 
ENDBRANCH  15  16
ENDBRANCH  14  15
ENDBRANCH  13  14
ENDBRANCH   3  13
TORSDOF 6
ENDMDL
MODEL 4
REMARK VINA RESULT:      -5.3      2.460      3.173
REMARK  6 active torsions:
REMARK  status: ('A' for Active; 'I' for Inactive)
REMARK    1  A    between atoms: C_2  and  C_3 
REMARK       I    between atoms: C_2  and  N_11 
REMARK    2  A    between atoms: C_3  and  N_4 
REMARK    3  A    between atoms: N_11  and  C_12 
REMARK    4  A    between atoms: C_12  and  C_13 
REMARK    5  A    between atoms: C_13  and  S_14 
REMARK    6  A    between atoms: S_14  and  C_15 
ROOT
HETATM    1  O   UNL     1     -42.149 -53.030  13.877  1.00  0.00    -0.272 OA
HETATM    2  C   UNL     1     -42.685 -52.942  12.775  1.00  0.00     0.235 C 
HETATM    3  N   UNL     1     -42.155 -52.219  11.726  1.00  0.00    -0.359 N 
HETATM    4  H   UNL     1     -42.817 -51.881  11.026  1.00  0.00     0.162 HD
ENDROOT
BRANCH   2   5
HETATM    5  C   UNL     1     -44.017 -53.621  12.455  1.00  0.00     0.234 C 
BRANCH   5   6
HETATM    6  N   UNL     1     -45.093 -53.173  13.330  1.00  0.00    -0.316 N 
HETATM    7  C   UNL     1     -45.589 -51.887  13.205  1.00  0.00     0.095 A 
HETATM    8  C   UNL     1     -46.530 -51.425  14.039  1.00  0.00     0.017 A 
HETATM    9  C   UNL     1     -47.039 -52.271  15.088  1.00  0.00     0.007 A 
HETATM   10  C   UNL     1     -46.606 -53.532  15.215  1.00  0.00     0.074 A 
HETATM   11  C   UNL     1     -45.581 -54.069  14.278  1.00  0.00     0.247 A 
HETATM   12  O   UNL     1     -45.207 -55.234  14.377  1.00  0.00    -0.268 OA
ENDBRANCH   5   6
ENDBRANCH   2   5
BRANCH   3  13
HETATM   13  C   UNL     1     -40.922 -51.462  11.868  1.00  0.00     0.132 C 
BRANCH  13  14
HETATM   14  C   UNL     1     -41.119 -49.967  11.594  1.00  0.00     0.094 C 
BRANCH  14  15
HETATM   15  S   UNL     1     -40.613 -48.989  13.052  1.00  0.00    -0.163 SA
BRANCH  15  16
HETATM   16  C   UNL     1     -39.731 -47.617  12.244  1.00  0.00     0.047 C 
HETATM   17  C   UNL     1     -39.487 -46.400  13.140  1.00  0.00     0.015 C 
HETATM   18  C   UNL     1     -39.690 -45.169  12.252  1.00  0.00     0.001 C 
HETATM   19  C   UNL     1     -39.997 -45.692  10.856  1.00  0.00     0.001 C 
HETATM   20  C   UNL     1     -40.577 -47.075  11.094  1.00  0.00     0.015 C 
ENDBRANCH  15  16
ENDBRANCH  14  15
ENDBRANCH  13  14
ENDBRANCH   3  13
TORSDOF 6
ENDMDL
MODEL 5
REMARK VINA RESULT:      -5.1      2.878      7.250
REMARK  6 active torsions:
REMARK  status: ('A' for Active; 'I' for Inactive)
REMARK    1  A    between atoms: C_2  and  C_3 
REMARK       I    between atoms: C_2  and  N_11 
REMARK    2  A    between atoms: C_3  and  N_4 
REMARK    3  A    between atoms: N_11  and  C_12 
REMARK    4  A    between atoms: C_12  and  C_13 
REMARK    5  A    between atoms: C_13  and  S_14 
REMARK    6  A    between atoms: S_14  and  C_15 
ROOT
HETATM    1  O   UNL     1     -41.884 -49.829  12.269  1.00  0.00    -0.272 OA
HETATM    2  C   UNL     1     -40.900 -50.437  11.853  1.00  0.00     0.235 C 
HETATM    3  N   UNL     1     -40.889 -51.796  11.619  1.00  0.00    -0.359 N 
HETATM    4  H   UNL     1     -39.978 -52.258  11.665  1.00  0.00     0.162 HD
ENDROOT
BRANCH   2   5
HETATM    5  C   UNL     1     -39.570 -49.741  11.563  1.00  0.00     0.234 C 
BRANCH   5   6
HETATM    6  N   UNL     1     -38.807 -49.475  12.776  1.00  0.00    -0.316 N 
HETATM    7  C   UNL     1     -38.842 -48.215  13.348  1.00  0.00     0.095 A 
HETATM    8  C   UNL     1     -38.099 -47.924  14.423  1.00  0.00     0.017 A 
HETATM    9  C   UNL     1     -37.242 -48.928  15.000  1.00  0.00     0.007 A 
HETATM   10  C   UNL     1     -37.211 -50.168  14.492  1.00  0.00     0.074 A 
HETATM   11  C   UNL     1     -38.053 -50.516  13.315  1.00  0.00     0.247 A 
HETATM   12  O   UNL     1     -38.046 -51.659  12.869  1.00  0.00    -0.268 OA
ENDBRANCH   5   6
ENDBRANCH   2   5
BRANCH   3  13
HETATM   13  C   UNL     1     -42.049 -52.627  11.893  1.00  0.00     0.132 C 
BRANCH  13  14
HETATM   14  C   UNL     1     -41.864 -53.496  13.142  1.00  0.00     0.094 C 
BRANCH  14  15
HETATM   15  S   UNL     1     -43.491 -53.971  13.824  1.00  0.00    -0.163 SA
BRANCH  15  16
HETATM   16  C   UNL     1     -44.462 -52.480  13.442  1.00  0.00     0.047 C 
HETATM   17  C   UNL     1     -45.065 -51.781  14.663  1.00  0.00     0.015 C 
HETATM   18  C   UNL     1     -46.456 -51.303  14.237  1.00  0.00     0.001 C 
HETATM   19  C   UNL     1     -46.612 -51.685  12.772  1.00  0.00     0.001 C 
HETATM   20  C   UNL     1     -45.671 -52.864  12.591  1.00  0.00     0.015 C 
ENDBRANCH  15  16
ENDBRANCH  14  15
ENDBRANCH  13  14
ENDBRANCH   3  13
TORSDOF 6
ENDMDL
MODEL 6
REMARK VINA RESULT:      -5.0      1.877      6.265
REMARK  6 active torsions:
REMARK  status: ('A' for Active; 'I' for Inactive)
REMARK    1  A    between atoms: C_2  and  C_3 
REMARK       I    between atoms: C_2  and  N_11 
REMARK    2  A    between atoms: C_3  and  N_4 
REMARK    3  A    between atoms: N_11  and  C_12 
REMARK    4  A    between atoms: C_12  and  C_13 
REMARK    5  A    between atoms: C_13  and  S_14 
REMARK    6  A    between atoms: S_14  and  C_15 
ROOT
HETATM    1  O   UNL     1     -42.501 -54.753  14.615  1.00  0.00    -0.272 OA
HETATM    2  C   UNL     1     -42.228 -54.294  13.509  1.00  0.00     0.235 C 
HETATM    3  N   UNL     1     -43.179 -53.868  12.605  1.00  0.00    -0.359 N 
HETATM    4  H   UNL     1     -42.910 -53.884  11.620  1.00  0.00     0.162 HD
ENDROOT
BRANCH   2   5
HETATM    5  C   UNL     1     -40.788 -54.161  13.010  1.00  0.00     0.234 C 
BRANCH   5   6
HETATM    6  N   UNL     1     -40.146 -52.943  13.488  1.00  0.00    -0.316 N 
HETATM    7  C   UNL     1     -39.364 -52.982  14.630  1.00  0.00     0.095 A 
HETATM    8  C   UNL     1     -38.817 -51.867  15.130  1.00  0.00     0.017 A 
HETATM    9  C   UNL     1     -39.040 -50.601  14.479  1.00  0.00     0.007 A 
HETATM   10  C   UNL     1     -39.762 -50.534  13.353  1.00  0.00     0.074 A 
HETATM   11  C   UNL     1     -40.353 -51.769  12.769  1.00  0.00     0.247 A 
HETATM   12  O   UNL     1     -40.989 -51.710  11.721  1.00  0.00    -0.268 OA
ENDBRANCH   5   6
ENDBRANCH   2   5
BRANCH   3  13
HETATM   13  C   UNL     1     -44.601 -53.973  12.889  1.00  0.00     0.132 C 
BRANCH  13  14
HETATM   14  C   UNL     1     -45.342 -52.650  12.661  1.00  0.00     0.094 C 
BRANCH  14  15
HETATM   15  S   UNL     1     -44.432 -51.277  13.451  1.00  0.00    -0.163 SA
BRANCH  15  16
HETATM   16  C   UNL     1     -45.358 -51.116  15.011  1.00  0.00     0.047 C 
HETATM   17  C   UNL     1     -44.981 -52.140  16.084  1.00  0.00     0.015 C 
HETATM   18  C   UNL     1     -46.289 -52.534  16.777  1.00  0.00     0.001 C 
HETATM   19  C   UNL     1     -47.386 -51.700  16.130  1.00  0.00     0.001 C 
HETATM   20  C   UNL     1     -46.841 -51.372  14.750  1.00  0.00     0.015 C 
ENDBRANCH  15  16
ENDBRANCH  14  15
ENDBRANCH  13  14
ENDBRANCH   3  13
TORSDOF 6
ENDMDL
MODEL 7
REMARK VINA RESULT:      -4.9      3.259      4.769
REMARK  6 active torsions:
REMARK  status: ('A' for Active; 'I' for Inactive)
REMARK    1  A    between atoms: C_2  and  C_3 
REMARK       I    between atoms: C_2  and  N_11 
REMARK    2  A    between atoms: C_3  and  N_4 
REMARK    3  A    between atoms: N_11  and  C_12 
REMARK    4  A    between atoms: C_12  and  C_13 
REMARK    5  A    between atoms: C_13  and  S_14 
REMARK    6  A    between atoms: S_14  and  C_15 
ROOT
HETATM    1  O   UNL     1     -41.161 -50.930  13.452  1.00  0.00    -0.272 OA
HETATM    2  C   UNL     1     -40.993 -51.399  12.329  1.00  0.00     0.235 C 
HETATM    3  N   UNL     1     -40.673 -50.634  11.226  1.00  0.00    -0.359 N 
HETATM    4  H   UNL     1     -40.938 -51.016  10.316  1.00  0.00     0.162 HD
ENDROOT
BRANCH   2   5
HETATM    5  C   UNL     1     -41.136 -52.892  12.035  1.00  0.00     0.234 C 
BRANCH   5   6
HETATM    6  N   UNL     1     -42.216 -53.507  12.797  1.00  0.00    -0.316 N 
HETATM    7  C   UNL     1     -43.528 -53.334  12.391  1.00  0.00     0.095 A 
HETATM    8  C   UNL     1     -44.544 -53.830  13.109  1.00  0.00     0.017 A 
HETATM    9  C   UNL     1     -44.280 -54.554  14.325  1.00  0.00     0.007 A 
HETATM   10  C   UNL     1     -43.020 -54.770  14.728  1.00  0.00     0.074 A 
HETATM   11  C   UNL     1     -41.879 -54.249  13.926  1.00  0.00     0.247 A 
HETATM   12  O   UNL     1     -40.726 -54.473  14.280  1.00  0.00    -0.268 OA
ENDBRANCH   5   6
ENDBRANCH   2   5
BRANCH   3  13
HETATM   13  C   UNL     1     -40.552 -49.188  11.309  1.00  0.00     0.132 C 
BRANCH  13  14
HETATM   14  C   UNL     1     -41.828 -48.468  10.858  1.00  0.00     0.094 C 
BRANCH  14  15
HETATM   15  S   UNL     1     -42.474 -47.427  12.214  1.00  0.00    -0.163 SA
BRANCH  15  16
HETATM   16  C   UNL     1     -41.656 -45.845  11.838  1.00  0.00     0.047 C 
HETATM   17  C   UNL     1     -41.207 -45.688  10.383  1.00  0.00     0.015 C 
HETATM   18  C   UNL     1     -39.856 -44.968  10.429  1.00  0.00     0.001 C 
HETATM   19  C   UNL     1     -39.573 -44.678  11.895  1.00  0.00     0.001 C 
HETATM   20  C   UNL     1     -40.364 -45.736  12.645  1.00  0.00     0.015 C 
ENDBRANCH  15  16
ENDBRANCH  14  15
ENDBRANCH  13  14
ENDBRANCH   3  13
TORSDOF 6
ENDMDL
MODEL 8
REMARK VINA RESULT:      -4.7      2.631      6.869
REMARK  6 active torsions:
REMARK  status: ('A' for Active; 'I' for Inactive)
REMARK    1  A    between atoms: C_2  and  C_3 
REMARK       I    between atoms: C_2  and  N_11 
REMARK    2  A    between atoms: C_3  and  N_4 
REMARK    3  A    between atoms: N_11  and  C_12 
REMARK    4  A    between atoms: C_12  and  C_13 
REMARK    5  A    between atoms: C_13  and  S_14 
REMARK    6  A    between atoms: S_14  and  C_15 
ROOT
HETATM    1  O   UNL     1     -40.507 -51.757  15.405  1.00  0.00    -0.272 OA
HETATM    2  C   UNL     1     -41.030 -52.340  14.458  1.00  0.00     0.235 C 
HETATM    3  N   UNL     1     -42.213 -53.044  14.557  1.00  0.00    -0.359 N 
HETATM    4  H   UNL     1     -42.356 -53.790  13.875  1.00  0.00     0.162 HD
ENDROOT
BRANCH   2   5
HETATM    5  C   UNL     1     -40.408 -52.356  13.062  1.00  0.00     0.234 C 
BRANCH   5   6
HETATM    6  N   UNL     1     -39.914 -51.046  12.659  1.00  0.00    -0.316 N 
HETATM    7  C   UNL     1     -40.811 -50.035  12.360  1.00  0.00     0.095 A 
HETATM    8  C   UNL     1     -40.388 -48.843  11.922  1.00  0.00     0.017 A 
HETATM    9  C   UNL     1     -38.979 -48.597  11.754  1.00  0.00     0.007 A 
HETATM   10  C   UNL     1     -38.082 -49.541  12.067  1.00  0.00     0.074 A 
HETATM   11  C   UNL     1     -38.535 -50.863  12.581  1.00  0.00     0.247 A 
HETATM   12  O   UNL     1     -37.712 -51.716  12.896  1.00  0.00    -0.268 OA
ENDBRANCH   5   6
ENDBRANCH   2   5
BRANCH   3  13
HETATM   13  C   UNL     1     -42.914 -53.182  15.823  1.00  0.00     0.132 C 
BRANCH  13  14
HETATM   14  C   UNL     1     -44.003 -54.260  15.773  1.00  0.00     0.094 C 
BRANCH  14  15
HETATM   15  S   UNL     1     -45.592 -53.576  16.362  1.00  0.00    -0.163 SA
BRANCH  15  16
HETATM   16  C   UNL     1     -46.386 -53.163  14.777  1.00  0.00     0.047 C 
HETATM   17  C   UNL     1     -45.692 -53.747  13.544  1.00  0.00     0.015 C 
HETATM   18  C   UNL     1     -45.771 -52.669  12.459  1.00  0.00     0.001 C 
HETATM   19  C   UNL     1     -46.549 -51.508  13.062  1.00  0.00     0.001 C 
HETATM   20  C   UNL     1     -46.334 -51.653  14.559  1.00  0.00     0.015 C 
ENDBRANCH  15  16
ENDBRANCH  14  15
ENDBRANCH  13  14
ENDBRANCH   3  13
TORSDOF 6
ENDMDL
MODEL 9
REMARK VINA RESULT:      -4.5      2.160      2.378
REMARK  6 active torsions:
REMARK  status: ('A' for Active; 'I' for Inactive)
REMARK    1  A    between atoms: C_2  and  C_3 
REMARK       I    between atoms: C_2  and  N_11 
REMARK    2  A    between atoms: C_3  and  N_4 
REMARK    3  A    between atoms: N_11  and  C_12 
REMARK    4  A    between atoms: C_12  and  C_13 
REMARK    5  A    between atoms: C_13  and  S_14 
REMARK    6  A    between atoms: S_14  and  C_15 
ROOT
HETATM    1  O   UNL     1     -42.147 -54.309  13.733  1.00  0.00    -0.272 OA
HETATM    2  C   UNL     1     -42.237 -53.266  13.090  1.00  0.00     0.235 C 
HETATM    3  N   UNL     1     -41.207 -52.358  12.964  1.00  0.00    -0.359 N 
HETATM    4  H   UNL     1     -41.474 -51.391  12.772  1.00  0.00     0.162 HD
ENDROOT
BRANCH   2   5
HETATM    5  C   UNL     1     -43.522 -52.859  12.368  1.00  0.00     0.234 C 
BRANCH   5   6
HETATM    6  N   UNL     1     -44.499 -52.259  13.268  1.00  0.00    -0.316 N 
HETATM    7  C   UNL     1     -44.079 -51.699  14.462  1.00  0.00     0.095 A 
HETATM    8  C   UNL     1     -44.960 -51.201  15.339  1.00  0.00     0.017 A 
HETATM    9  C   UNL     1     -46.370 -51.247  15.047  1.00  0.00     0.007 A 
HETATM   10  C   UNL     1     -46.807 -51.750  13.885  1.00  0.00     0.074 A 
HETATM   11  C   UNL     1     -45.839 -52.281  12.888  1.00  0.00     0.247 A 
HETATM   12  O   UNL     1     -46.238 -52.714  11.812  1.00  0.00    -0.268 OA
ENDBRANCH   5   6
ENDBRANCH   2   5
BRANCH   3  13
HETATM   13  C   UNL     1     -39.930 -52.555  13.631  1.00  0.00     0.132 C 
BRANCH  13  14
HETATM   14  C   UNL     1     -38.914 -51.461  13.283  1.00  0.00     0.094 C 
BRANCH  14  15
HETATM   15  S   UNL     1     -39.781 -49.952  12.728  1.00  0.00    -0.163 SA
BRANCH  15  16
HETATM   16  C   UNL     1     -39.214 -48.760  13.982  1.00  0.00     0.047 C 
HETATM   17  C   UNL     1     -39.642 -47.313  13.726  1.00  0.00     0.015 C 
HETATM   18  C   UNL     1     -38.453 -46.438  14.132  1.00  0.00     0.001 C 
HETATM   19  C   UNL     1     -37.383 -47.384  14.660  1.00  0.00     0.001 C 
HETATM   20  C   UNL     1     -37.687 -48.707  13.980  1.00  0.00     0.015 C 
ENDBRANCH  15  16
ENDBRANCH  14  15
ENDBRANCH  13  14
ENDBRANCH   3  13
TORSDOF 6
ENDMDL
