MODEL 1
REMARK VINA RESULT:      -7.1      0.000      0.000
REMARK  4 active torsions:
REMARK  status: ('A' for Active; 'I' for Inactive)
REMARK       I    between atoms: C_2  and  N_3 
REMARK    1  A    between atoms: C_2  and  C_13 
REMARK    2  A    between atoms: N_3  and  C_4 
REMARK    3  A    between atoms: C_4  and  C_5 
REMARK    4  A    between atoms: C_5  and  C_6 
ROOT
HETATM    1  C   UNL     1     -41.994 -51.440  12.703  1.00  0.00     0.076 A 
HETATM    2  C   UNL     1     -40.859 -52.170  12.699  1.00  0.00     0.022 A 
HETATM    3  C   UNL     1     -40.862 -53.603  12.880  1.00  0.00     0.018 A 
HETATM    4  C   UNL     1     -42.019 -54.232  13.115  1.00  0.00     0.092 A 
HETATM    5  N   UNL     1     -43.242 -53.573  13.174  1.00  0.00    -0.341 N 
HETATM    6  C   UNL     1     -44.470 -54.341  13.391  1.00  0.00     0.146 C 
HETATM    7  C   UNL     1     -45.500 -53.500  14.091  1.00  0.00     0.183 C 
HETATM    8  S   UNL     1     -45.841 -52.126  13.045  1.00  0.00     0.233 S 
HETATM    9  O   UNL     1     -46.327 -52.641  11.782  1.00  0.00    -0.206 OA
HETATM   10  O   UNL     1     -46.648 -51.200  13.814  1.00  0.00    -0.206 OA
HETATM   11  N   UNL     1     -44.384 -51.475  12.830  1.00  0.00    -0.269 N 
ATOM     12  HN  UNL     1     -44.310 -50.478  12.633  1.00  0.00     0.180 HD
HETATM   13  C   UNL     1     -43.299 -52.191  12.903  1.00  0.00     0.132 A 
ENDROOT
BRANCH   1  14
HETATM   14  C   UNL     1     -41.846 -49.964  12.555  1.00  0.00     0.255 C 
HETATM   15  O   UNL     1     -42.091 -49.207  13.492  1.00  0.00    -0.268 OA
HETATM   16  N   UNL     1     -41.415 -49.525  11.330  1.00  0.00    -0.356 N 
HETATM   17  H   UNL     1     -41.379 -50.198  10.568  1.00  0.00     0.162 HD
BRANCH  16  18
HETATM   18  C   UNL     1     -41.305 -48.113  10.998  1.00  0.00     0.129 C 
BRANCH  18  19
HETATM   19  C   UNL     1     -42.649 -47.388  11.045  1.00  0.00     0.076 C 
BRANCH  19  20
HETATM   20  C   UNL     1     -43.477 -47.668   9.821  1.00  0.00     0.010 A 
HETATM   21  C   UNL     1     -44.867 -47.642   9.895  1.00  0.00     0.025 A 
HETATM   22  C   UNL     1     -45.606 -47.877   8.739  1.00  0.00     0.003 A 
HETATM   23  C   UNL     1     -44.939 -48.131   7.548  1.00  0.00     0.017 A 
HETATM   24  C   UNL     1     -43.555 -48.140   7.562  1.00  0.00     0.088 A 
HETATM   25  N   UNL     1     -42.812 -47.914   8.667  1.00  0.00    -0.369 N 
ATOM     26  HN  UNL     1     -41.793 -47.928   8.634  1.00  0.00     0.165 HD
ENDBRANCH  19  20
ENDBRANCH  18  19
ENDBRANCH  16  18
ENDBRANCH   1  14
TORSDOF 4
ENDMDL
MODEL 2
REMARK VINA RESULT:      -6.9      2.161      3.935
REMARK  4 active torsions:
REMARK  status: ('A' for Active; 'I' for Inactive)
REMARK       I    between atoms: C_2  and  N_3 
REMARK    1  A    between atoms: C_2  and  C_13 
REMARK    2  A    between atoms: N_3  and  C_4 
REMARK    3  A    between atoms: C_4  and  C_5 
REMARK    4  A    between atoms: C_5  and  C_6 
ROOT
HETATM    1  C   UNL     1     -42.207 -51.530  12.661  1.00  0.00     0.076 A 
HETATM    2  C   UNL     1     -41.079 -52.268  12.678  1.00  0.00     0.022 A 
HETATM    3  C   UNL     1     -41.092 -53.696  12.893  1.00  0.00     0.018 A 
HETATM    4  C   UNL     1     -42.255 -54.311  13.141  1.00  0.00     0.092 A 
HETATM    5  N   UNL     1     -43.473 -53.642  13.180  1.00  0.00    -0.341 N 
HETATM    6  C   UNL     1     -44.708 -54.395  13.412  1.00  0.00     0.146 C 
HETATM    7  C   UNL     1     -45.732 -53.530  14.089  1.00  0.00     0.183 C 
HETATM    8  S   UNL     1     -46.061 -52.179  13.009  1.00  0.00     0.233 S 
HETATM    9  O   UNL     1     -46.547 -52.721  11.758  1.00  0.00    -0.206 OA
HETATM   10  O   UNL     1     -46.863 -51.229  13.754  1.00  0.00    -0.206 OA
HETATM   11  N   UNL     1     -44.599 -51.544  12.783  1.00  0.00    -0.269 N 
ATOM     12  HN  UNL     1     -44.516 -50.552  12.562  1.00  0.00     0.180 HD
HETATM   13  C   UNL     1     -43.519 -52.266  12.876  1.00  0.00     0.132 A 
ENDROOT
BRANCH   1  14
HETATM   14  C   UNL     1     -42.048 -50.059  12.478  1.00  0.00     0.255 C 
HETATM   15  O   UNL     1     -42.521 -49.266  13.289  1.00  0.00    -0.268 OA
HETATM   16  N   UNL     1     -41.342 -49.666  11.371  1.00  0.00    -0.356 N 
HETATM   17  H   UNL     1     -41.116 -50.373  10.675  1.00  0.00     0.162 HD
BRANCH  16  18
HETATM   18  C   UNL     1     -41.174 -48.270  11.003  1.00  0.00     0.129 C 
BRANCH  18  19
HETATM   19  C   UNL     1     -39.878 -47.667  11.544  1.00  0.00     0.076 C 
BRANCH  19  20
HETATM   20  C   UNL     1     -38.909 -48.731  11.981  1.00  0.00     0.010 A 
HETATM   21  C   UNL     1     -38.749 -49.020  13.334  1.00  0.00     0.025 A 
HETATM   22  C   UNL     1     -37.867 -50.030  13.706  1.00  0.00     0.003 A 
HETATM   23  C   UNL     1     -37.170 -50.719  12.721  1.00  0.00     0.017 A 
HETATM   24  C   UNL     1     -37.387 -50.367  11.400  1.00  0.00     0.088 A 
HETATM   25  N   UNL     1     -38.237 -49.394  11.009  1.00  0.00    -0.369 N 
ATOM     26  HN  UNL     1     -38.369 -49.167  10.024  1.00  0.00     0.165 HD
ENDBRANCH  19  20
ENDBRANCH  18  19
ENDBRANCH  16  18
ENDBRANCH   1  14
TORSDOF 4
ENDMDL
MODEL 3
REMARK VINA RESULT:      -6.8      2.823      6.853
REMARK  4 active torsions:
REMARK  status: ('A' for Active; 'I' for Inactive)
REMARK       I    between atoms: C_2  and  N_3 
REMARK    1  A    between atoms: C_2  and  C_13 
REMARK    2  A    between atoms: N_3  and  C_4 
REMARK    3  A    between atoms: C_4  and  C_5 
REMARK    4  A    between atoms: C_5  and  C_6 
ROOT
HETATM    1  C   UNL     1     -41.342 -48.306  11.571  1.00  0.00     0.076 A 
HETATM    2  C   UNL     1     -40.905 -47.616  12.644  1.00  0.00     0.022 A 
HETATM    3  C   UNL     1     -41.284 -46.243  12.887  1.00  0.00     0.018 A 
HETATM    4  C   UNL     1     -42.049 -45.606  11.993  1.00  0.00     0.092 A 
HETATM    5  N   UNL     1     -42.527 -46.211  10.836  1.00  0.00    -0.341 N 
HETATM    6  C   UNL     1     -43.397 -45.460   9.929  1.00  0.00     0.146 C 
HETATM    7  C   UNL     1     -43.238 -45.951   8.519  1.00  0.00     0.183 C 
HETATM    8  S   UNL     1     -43.703 -47.649   8.508  1.00  0.00     0.233 S 
HETATM    9  O   UNL     1     -45.076 -47.734   8.963  1.00  0.00    -0.206 OA
HETATM   10  O   UNL     1     -43.330 -48.181   7.213  1.00  0.00    -0.206 OA
HETATM   11  N   UNL     1     -42.732 -48.287   9.621  1.00  0.00    -0.269 N 
ATOM     12  HN  UNL     1     -42.474 -49.271   9.551  1.00  0.00     0.180 HD
HETATM   13  C   UNL     1     -42.266 -47.579  10.609  1.00  0.00     0.132 A 
ENDROOT
BRANCH   1  14
HETATM   14  C   UNL     1     -40.836 -49.700  11.415  1.00  0.00     0.255 C 
HETATM   15  O   UNL     1     -39.711 -49.918  10.970  1.00  0.00    -0.268 OA
HETATM   16  N   UNL     1     -41.693 -50.695  11.806  1.00  0.00    -0.356 N 
HETATM   17  H   UNL     1     -42.655 -50.439  12.019  1.00  0.00     0.162 HD
BRANCH  16  18
HETATM   18  C   UNL     1     -41.385 -52.106  11.635  1.00  0.00     0.129 C 
BRANCH  18  19
HETATM   19  C   UNL     1     -41.238 -52.844  12.965  1.00  0.00     0.076 C 
BRANCH  19  20
HETATM   20  C   UNL     1     -42.482 -53.612  13.317  1.00  0.00     0.010 A 
HETATM   21  C   UNL     1     -42.527 -54.377  14.480  1.00  0.00     0.025 A 
HETATM   22  C   UNL     1     -43.702 -55.054  14.795  1.00  0.00     0.003 A 
HETATM   23  C   UNL     1     -44.794 -54.948  13.942  1.00  0.00     0.017 A 
HETATM   24  C   UNL     1     -44.664 -54.168  12.806  1.00  0.00     0.088 A 
HETATM   25  N   UNL     1     -43.538 -53.500  12.477  1.00  0.00    -0.369 N 
ATOM     26  HN  UNL     1     -43.485 -52.934  11.630  1.00  0.00     0.165 HD
ENDBRANCH  19  20
ENDBRANCH  18  19
ENDBRANCH  16  18
ENDBRANCH   1  14
TORSDOF 4
ENDMDL
MODEL 4
REMARK VINA RESULT:      -6.6      2.668      6.135
REMARK  4 active torsions:
REMARK  status: ('A' for Active; 'I' for Inactive)
REMARK       I    between atoms: C_2  and  N_3 
REMARK    1  A    between atoms: C_2  and  C_13 
REMARK    2  A    between atoms: N_3  and  C_4 
REMARK    3  A    between atoms: C_4  and  C_5 
REMARK    4  A    between atoms: C_5  and  C_6 
ROOT
HETATM    1  C   UNL     1     -41.423 -51.001  12.659  1.00  0.00     0.076 A 
HETATM    2  C   UNL     1     -40.158 -51.456  12.767  1.00  0.00     0.022 A 
HETATM    3  C   UNL     1     -39.018 -50.683  12.331  1.00  0.00     0.018 A 
HETATM    4  C   UNL     1     -39.216 -49.496  11.745  1.00  0.00     0.092 A 
HETATM    5  N   UNL     1     -40.479 -48.947  11.552  1.00  0.00    -0.341 N 
HETATM    6  C   UNL     1     -40.609 -47.622  10.944  1.00  0.00     0.146 C 
HETATM    7  C   UNL     1     -41.913 -47.505  10.209  1.00  0.00     0.183 C 
HETATM    8  S   UNL     1     -43.195 -47.738  11.393  1.00  0.00     0.233 S 
HETATM    9  O   UNL     1     -43.050 -46.716  12.408  1.00  0.00    -0.206 OA
HETATM   10  O   UNL     1     -44.435 -47.860  10.654  1.00  0.00    -0.206 OA
HETATM   11  N   UNL     1     -42.834 -49.174  12.025  1.00  0.00    -0.269 N 
ATOM     12  HN  UNL     1     -43.583 -49.747  12.413  1.00  0.00     0.180 HD
HETATM   13  C   UNL     1     -41.612 -49.620  12.053  1.00  0.00     0.132 A 
ENDROOT
BRANCH   1  14
HETATM   14  C   UNL     1     -42.510 -51.919  13.103  1.00  0.00     0.255 C 
HETATM   15  O   UNL     1     -42.793 -52.035  14.293  1.00  0.00    -0.268 OA
HETATM   16  N   UNL     1     -43.162 -52.599  12.108  1.00  0.00    -0.356 N 
HETATM   17  H   UNL     1     -42.770 -52.562  11.169  1.00  0.00     0.162 HD
BRANCH  16  18
HETATM   18  C   UNL     1     -44.184 -53.597  12.380  1.00  0.00     0.129 C 
BRANCH  18  19
HETATM   19  C   UNL     1     -45.587 -52.997  12.474  1.00  0.00     0.076 C 
BRANCH  19  20
HETATM   20  C   UNL     1     -45.970 -52.696  13.897  1.00  0.00     0.010 A 
HETATM   21  C   UNL     1     -46.716 -51.559  14.196  1.00  0.00     0.025 A 
HETATM   22  C   UNL     1     -47.081 -51.323  15.518  1.00  0.00     0.003 A 
HETATM   23  C   UNL     1     -46.691 -52.224  16.500  1.00  0.00     0.017 A 
HETATM   24  C   UNL     1     -45.949 -53.328  16.118  1.00  0.00     0.088 A 
HETATM   25  N   UNL     1     -45.583 -53.584  14.843  1.00  0.00    -0.369 N 
ATOM     26  HN  UNL     1     -45.037 -54.411  14.604  1.00  0.00     0.165 HD
ENDBRANCH  19  20
ENDBRANCH  18  19
ENDBRANCH  16  18
ENDBRANCH   1  14
TORSDOF 4
ENDMDL
MODEL 5
REMARK VINA RESULT:      -6.5      2.131      2.697
REMARK  4 active torsions:
REMARK  status: ('A' for Active; 'I' for Inactive)
REMARK       I    between atoms: C_2  and  N_3 
REMARK    1  A    between atoms: C_2  and  C_13 
REMARK    2  A    between atoms: N_3  and  C_4 
REMARK    3  A    between atoms: C_4  and  C_5 
REMARK    4  A    between atoms: C_5  and  C_6 
ROOT
HETATM    1  C   UNL     1     -43.045 -49.923  13.484  1.00  0.00     0.076 A 
HETATM    2  C   UNL     1     -42.583 -49.277  14.575  1.00  0.00     0.022 A 
HETATM    3  C   UNL     1     -43.180 -49.440  15.880  1.00  0.00     0.018 A 
HETATM    4  C   UNL     1     -44.265 -50.212  16.014  1.00  0.00     0.092 A 
HETATM    5  N   UNL     1     -44.844 -50.896  14.951  1.00  0.00    -0.341 N 
HETATM    6  C   UNL     1     -46.004 -51.758  15.188  1.00  0.00     0.146 C 
HETATM    7  C   UNL     1     -46.867 -51.828  13.961  1.00  0.00     0.183 C 
HETATM    8  S   UNL     1     -45.878 -52.512  12.675  1.00  0.00     0.233 S 
HETATM    9  O   UNL     1     -45.436 -53.822  13.105  1.00  0.00    -0.206 OA
HETATM   10  O   UNL     1     -46.627 -52.364  11.443  1.00  0.00    -0.206 OA
HETATM   11  N   UNL     1     -44.618 -51.512  12.629  1.00  0.00    -0.269 N 
ATOM     12  HN  UNL     1     -44.106 -51.398  11.754  1.00  0.00     0.180 HD
HETATM   13  C   UNL     1     -44.236 -50.847  13.680  1.00  0.00     0.132 A 
ENDROOT
BRANCH   1  14
HETATM   14  C   UNL     1     -42.369 -49.627  12.189  1.00  0.00     0.255 C 
HETATM   15  O   UNL     1     -41.539 -50.402  11.718  1.00  0.00    -0.268 OA
HETATM   16  N   UNL     1     -42.741 -48.462  11.572  1.00  0.00    -0.356 N 
HETATM   17  H   UNL     1     -43.318 -47.808  12.096  1.00  0.00     0.162 HD
BRANCH  16  18
HETATM   18  C   UNL     1     -42.113 -47.987  10.349  1.00  0.00     0.129 C 
BRANCH  18  19
HETATM   19  C   UNL     1     -42.934 -46.909   9.642  1.00  0.00     0.076 C 
BRANCH  19  20
HETATM   20  C   UNL     1     -44.189 -47.473   9.035  1.00  0.00     0.010 A 
HETATM   21  C   UNL     1     -44.142 -48.120   7.803  1.00  0.00     0.025 A 
HETATM   22  C   UNL     1     -45.314 -48.657   7.280  1.00  0.00     0.003 A 
HETATM   23  C   UNL     1     -46.496 -48.532   7.999  1.00  0.00     0.017 A 
HETATM   24  C   UNL     1     -46.456 -47.873   9.216  1.00  0.00     0.088 A 
HETATM   25  N   UNL     1     -45.333 -47.344   9.748  1.00  0.00    -0.369 N 
ATOM     26  HN  UNL     1     -45.347 -46.867  10.649  1.00  0.00     0.165 HD
ENDBRANCH  19  20
ENDBRANCH  18  19
ENDBRANCH  16  18
ENDBRANCH   1  14
TORSDOF 4
ENDMDL
MODEL 6
REMARK VINA RESULT:      -6.5      3.960      6.603
REMARK  4 active torsions:
REMARK  status: ('A' for Active; 'I' for Inactive)
REMARK       I    between atoms: C_2  and  N_3 
REMARK    1  A    between atoms: C_2  and  C_13 
REMARK    2  A    between atoms: N_3  and  C_4 
REMARK    3  A    between atoms: C_4  and  C_5 
REMARK    4  A    between atoms: C_5  and  C_6 
ROOT
HETATM    1  C   UNL     1     -41.681 -50.787  13.221  1.00  0.00     0.076 A 
HETATM    2  C   UNL     1     -42.650 -49.967  13.675  1.00  0.00     0.022 A 
HETATM    3  C   UNL     1     -42.407 -48.575  13.974  1.00  0.00     0.018 A 
HETATM    4  C   UNL     1     -41.168 -48.084  13.853  1.00  0.00     0.092 A 
HETATM    5  N   UNL     1     -40.088 -48.850  13.426  1.00  0.00    -0.341 N 
HETATM    6  C   UNL     1     -38.771 -48.227  13.275  1.00  0.00     0.146 C 
HETATM    7  C   UNL     1     -37.682 -49.238  13.498  1.00  0.00     0.183 C 
HETATM    8  S   UNL     1     -37.885 -50.490  12.278  1.00  0.00     0.233 S 
HETATM    9  O   UNL     1     -37.785 -49.861  10.977  1.00  0.00    -0.206 OA
HETATM   10  O   UNL     1     -36.991 -51.574  12.633  1.00  0.00    -0.206 OA
HETATM   11  N   UNL     1     -39.399 -50.978  12.520  1.00  0.00    -0.269 N 
ATOM     12  HN  UNL     1     -39.660 -51.931  12.270  1.00  0.00     0.180 HD
HETATM   13  C   UNL     1     -40.299 -50.186  13.027  1.00  0.00     0.132 A 
ENDROOT
BRANCH   1  14
HETATM   14  C   UNL     1     -42.054 -52.214  12.999  1.00  0.00     0.255 C 
HETATM   15  O   UNL     1     -42.250 -52.647  11.866  1.00  0.00    -0.268 OA
HETATM   16  N   UNL     1     -42.148 -52.989  14.125  1.00  0.00    -0.356 N 
HETATM   17  H   UNL     1     -42.119 -52.523  15.029  1.00  0.00     0.162 HD
BRANCH  16  18
HETATM   18  C   UNL     1     -42.587 -54.375  14.087  1.00  0.00     0.129 C 
BRANCH  18  19
HETATM   19  C   UNL     1     -43.996 -54.565  14.649  1.00  0.00     0.076 C 
BRANCH  19  20
HETATM   20  C   UNL     1     -44.928 -53.474  14.197  1.00  0.00     0.010 A 
HETATM   21  C   UNL     1     -45.390 -52.527  15.106  1.00  0.00     0.025 A 
HETATM   22  C   UNL     1     -46.228 -51.512  14.653  1.00  0.00     0.003 A 
HETATM   23  C   UNL     1     -46.580 -51.474  13.310  1.00  0.00     0.017 A 
HETATM   24  C   UNL     1     -46.077 -52.455  12.473  1.00  0.00     0.088 A 
HETATM   25  N   UNL     1     -45.262 -53.450  12.885  1.00  0.00    -0.369 N 
ATOM     26  HN  UNL     1     -44.911 -54.153  12.234  1.00  0.00     0.165 HD
ENDBRANCH  19  20
ENDBRANCH  18  19
ENDBRANCH  16  18
ENDBRANCH   1  14
TORSDOF 4
ENDMDL
MODEL 7
REMARK VINA RESULT:      -6.4      1.970      3.309
REMARK  4 active torsions:
REMARK  status: ('A' for Active; 'I' for Inactive)
REMARK       I    between atoms: C_2  and  N_3 
REMARK    1  A    between atoms: C_2  and  C_13 
REMARK    2  A    between atoms: N_3  and  C_4 
REMARK    3  A    between atoms: C_4  and  C_5 
REMARK    4  A    between atoms: C_5  and  C_6 
ROOT
HETATM    1  C   UNL     1     -42.145 -51.220  12.508  1.00  0.00     0.076 A 
HETATM    2  C   UNL     1     -40.959 -51.861  12.487  1.00  0.00     0.022 A 
HETATM    3  C   UNL     1     -40.841 -53.277  12.748  1.00  0.00     0.018 A 
HETATM    4  C   UNL     1     -41.933 -53.977  13.079  1.00  0.00     0.092 A 
HETATM    5  N   UNL     1     -43.200 -53.409  13.163  1.00  0.00    -0.341 N 
HETATM    6  C   UNL     1     -44.353 -54.252  13.486  1.00  0.00     0.146 C 
HETATM    7  C   UNL     1     -45.410 -53.450  14.190  1.00  0.00     0.183 C 
HETATM    8  S   UNL     1     -45.907 -52.171  13.088  1.00  0.00     0.233 S 
HETATM    9  O   UNL     1     -46.410 -52.796  11.883  1.00  0.00    -0.206 OA
HETATM   10  O   UNL     1     -46.746 -51.264  13.844  1.00  0.00    -0.206 OA
HETATM   11  N   UNL     1     -44.517 -51.427  12.762  1.00  0.00    -0.269 N 
ATOM     12  HN  UNL     1     -44.530 -50.440  12.505  1.00  0.00     0.180 HD
HETATM   13  C   UNL     1     -43.377 -52.053  12.818  1.00  0.00     0.132 A 
ENDROOT
BRANCH   1  14
HETATM   14  C   UNL     1     -42.120 -49.748  12.270  1.00  0.00     0.255 C 
HETATM   15  O   UNL     1     -42.495 -48.961  13.137  1.00  0.00    -0.268 OA
HETATM   16  N   UNL     1     -41.648 -49.348  11.048  1.00  0.00    -0.356 N 
HETATM   17  H   UNL     1     -41.501 -50.061  10.337  1.00  0.00     0.162 HD
BRANCH  16  18
HETATM   18  C   UNL     1     -41.642 -47.956  10.628  1.00  0.00     0.129 C 
BRANCH  18  19
HETATM   19  C   UNL     1     -40.389 -47.207  11.081  1.00  0.00     0.076 C 
BRANCH  19  20
HETATM   20  C   UNL     1     -40.728 -46.031  11.955  1.00  0.00     0.010 A 
HETATM   21  C   UNL     1     -39.765 -45.065  12.234  1.00  0.00     0.025 A 
HETATM   22  C   UNL     1     -40.117 -43.973  13.022  1.00  0.00     0.003 A 
HETATM   23  C   UNL     1     -41.415 -43.877  13.508  1.00  0.00     0.017 A 
HETATM   24  C   UNL     1     -42.310 -44.882  13.184  1.00  0.00     0.088 A 
HETATM   25  N   UNL     1     -41.997 -45.952  12.421  1.00  0.00    -0.369 N 
ATOM     26  HN  UNL     1     -42.689 -46.669  12.204  1.00  0.00     0.165 HD
ENDBRANCH  19  20
ENDBRANCH  18  19
ENDBRANCH  16  18
ENDBRANCH   1  14
TORSDOF 4
ENDMDL
MODEL 8
REMARK VINA RESULT:      -6.4      2.085      2.928
REMARK  4 active torsions:
REMARK  status: ('A' for Active; 'I' for Inactive)
REMARK       I    between atoms: C_2  and  N_3 
REMARK    1  A    between atoms: C_2  and  C_13 
REMARK    2  A    between atoms: N_3  and  C_4 
REMARK    3  A    between atoms: C_4  and  C_5 
REMARK    4  A    between atoms: C_5  and  C_6 
ROOT
HETATM    1  C   UNL     1     -40.705 -52.875  13.380  1.00  0.00     0.076 A 
HETATM    2  C   UNL     1     -39.654 -53.435  14.013  1.00  0.00     0.022 A 
HETATM    3  C   UNL     1     -39.811 -54.487  14.991  1.00  0.00     0.018 A 
HETATM    4  C   UNL     1     -41.042 -54.889  15.330  1.00  0.00     0.092 A 
HETATM    5  N   UNL     1     -42.195 -54.356  14.765  1.00  0.00    -0.341 N 
HETATM    6  C   UNL     1     -43.505 -54.883  15.157  1.00  0.00     0.146 C 
HETATM    7  C   UNL     1     -44.559 -53.820  15.030  1.00  0.00     0.183 C 
HETATM    8  S   UNL     1     -44.601 -53.335  13.339  1.00  0.00     0.233 S 
HETATM    9  O   UNL     1     -44.914 -54.508  12.550  1.00  0.00    -0.206 OA
HETATM   10  O   UNL     1     -45.441 -52.156  13.259  1.00  0.00    -0.206 OA
HETATM   11  N   UNL     1     -43.078 -52.895  13.060  1.00  0.00    -0.269 N 
ATOM     12  HN  UNL     1     -42.885 -52.203  12.336  1.00  0.00     0.180 HD
HETATM   13  C   UNL     1     -42.087 -53.400  13.735  1.00  0.00     0.132 A 
ENDROOT
BRANCH   1  14
HETATM   14  C   UNL     1     -40.407 -51.765  12.431  1.00  0.00     0.255 C 
HETATM   15  O   UNL     1     -41.152 -51.526  11.483  1.00  0.00    -0.268 OA
HETATM   16  N   UNL     1     -39.274 -51.041  12.694  1.00  0.00    -0.356 N 
HETATM   17  H   UNL     1     -38.636 -51.395  13.403  1.00  0.00     0.162 HD
BRANCH  16  18
HETATM   18  C   UNL     1     -38.797 -49.985  11.815  1.00  0.00     0.129 C 
BRANCH  18  19
HETATM   19  C   UNL     1     -39.087 -48.587  12.359  1.00  0.00     0.076 C 
BRANCH  19  20
HETATM   20  C   UNL     1     -40.436 -48.087  11.919  1.00  0.00     0.010 A 
HETATM   21  C   UNL     1     -41.168 -47.232  12.739  1.00  0.00     0.025 A 
HETATM   22  C   UNL     1     -42.399 -46.762  12.292  1.00  0.00     0.003 A 
HETATM   23  C   UNL     1     -42.864 -47.158  11.045  1.00  0.00     0.017 A 
HETATM   24  C   UNL     1     -42.074 -48.011  10.293  1.00  0.00     0.088 A 
HETATM   25  N   UNL     1     -40.875 -48.481  10.700  1.00  0.00    -0.369 N 
ATOM     26  HN  UNL     1     -40.323 -49.107  10.113  1.00  0.00     0.165 HD
ENDBRANCH  19  20
ENDBRANCH  18  19
ENDBRANCH  16  18
ENDBRANCH   1  14
TORSDOF 4
ENDMDL
MODEL 9
REMARK VINA RESULT:      -6.3      3.371      7.125
REMARK  4 active torsions:
REMARK  status: ('A' for Active; 'I' for Inactive)
REMARK       I    between atoms: C_2  and  N_3 
REMARK    1  A    between atoms: C_2  and  C_13 
REMARK    2  A    between atoms: N_3  and  C_4 
REMARK    3  A    between atoms: C_4  and  C_5 
REMARK    4  A    between atoms: C_5  and  C_6 
ROOT
HETATM    1  C   UNL     1     -41.993 -47.590  10.709  1.00  0.00     0.076 A 
HETATM    2  C   UNL     1     -42.763 -47.800   9.622  1.00  0.00     0.022 A 
HETATM    3  C   UNL     1     -43.463 -46.729   8.952  1.00  0.00     0.018 A 
HETATM    4  C   UNL     1     -43.398 -45.489   9.451  1.00  0.00     0.092 A 
HETATM    5  N   UNL     1     -42.662 -45.167  10.586  1.00  0.00    -0.341 N 
HETATM    6  C   UNL     1     -42.604 -43.777  11.043  1.00  0.00     0.146 C 
HETATM    7  C   UNL     1     -42.404 -43.720  12.531  1.00  0.00     0.183 C 
HETATM    8  S   UNL     1     -40.874 -44.517  12.876  1.00  0.00     0.233 S 
HETATM    9  O   UNL     1     -39.834 -43.808  12.160  1.00  0.00    -0.206 OA
HETATM   10  O   UNL     1     -40.793 -44.671  14.315  1.00  0.00    -0.206 OA
HETATM   11  N   UNL     1     -41.077 -45.972  12.218  1.00  0.00    -0.269 N 
ATOM     12  HN  UNL     1     -40.563 -46.766  12.599  1.00  0.00     0.180 HD
HETATM   13  C   UNL     1     -41.882 -46.160  11.213  1.00  0.00     0.132 A 
ENDROOT
BRANCH   1  14
HETATM   14  C   UNL     1     -41.366 -48.790  11.333  1.00  0.00     0.255 C 
HETATM   15  O   UNL     1     -40.158 -48.828  11.558  1.00  0.00    -0.268 OA
HETATM   16  N   UNL     1     -42.218 -49.817  11.642  1.00  0.00    -0.356 N 
HETATM   17  H   UNL     1     -43.171 -49.769  11.289  1.00  0.00     0.162 HD
BRANCH  16  18
HETATM   18  C   UNL     1     -41.753 -51.088  12.173  1.00  0.00     0.129 C 
BRANCH  18  19
HETATM   19  C   UNL     1     -42.339 -51.406  13.548  1.00  0.00     0.076 C 
BRANCH  19  20
HETATM   20  C   UNL     1     -43.815 -51.683  13.474  1.00  0.00     0.010 A 
HETATM   21  C   UNL     1     -44.694 -51.038  14.340  1.00  0.00     0.025 A 
HETATM   22  C   UNL     1     -46.058 -51.293  14.228  1.00  0.00     0.003 A 
HETATM   23  C   UNL     1     -46.503 -52.183  13.258  1.00  0.00     0.017 A 
HETATM   24  C   UNL     1     -45.563 -52.782  12.438  1.00  0.00     0.088 A 
HETATM   25  N   UNL     1     -44.235 -52.553  12.523  1.00  0.00    -0.369 N 
ATOM     26  HN  UNL     1     -43.575 -53.014  11.898  1.00  0.00     0.165 HD
ENDBRANCH  19  20
ENDBRANCH  18  19
ENDBRANCH  16  18
ENDBRANCH   1  14
TORSDOF 4
ENDMDL
