MODEL 1
REMARK VINA RESULT:      -5.9      0.000      0.000
REMARK  7 active torsions:
REMARK  status: ('A' for Active; 'I' for Inactive)
REMARK    1  A    between atoms: C_2  and  O_3 
REMARK    2  A    between atoms: O_3  and  C_4 
REMARK    3  A    between atoms: C_6  and  N_7 
REMARK    4  A    between atoms: N_7  and  C_8 
REMARK    5  A    between atoms: C_8  and  C_9 
REMARK    6  A    between atoms: C_9  and  O_11 
REMARK    7  A    between atoms: C_9  and  C_12 
ROOT
HETATM    1  N   UNL     1     -40.409 -47.716  10.857  1.00  0.00     0.092 N 
HETATM    2  H   UNL     1     -40.234 -47.408   9.904  1.00  0.00     0.316 HD
ENDROOT
BRANCH   1   3
HETATM    3  C   UNL     1     -40.484 -49.171  11.021  1.00  0.00     0.234 C 
HETATM    4  C   UNL     1     -41.642 -49.529  11.996  1.00  0.00     0.069 C 
HETATM    5  C   UNL     1     -40.694 -50.660  12.542  1.00  0.00     0.134 C 
HETATM    6  C   UNL     1     -39.566 -49.723  12.090  1.00  0.00     0.017 C 
HETATM    7  C   UNL     1     -38.950 -48.868  13.193  1.00  0.00     0.014 C 
HETATM    8  C   UNL     1     -38.201 -50.261  11.734  1.00  0.00     0.014 C 
HETATM    9  C   UNL     1     -37.770 -49.871  13.172  1.00  0.00     0.002 C 
BRANCH   5  10
HETATM   10  O   UNL     1     -40.859 -51.918  11.842  1.00  0.00    -0.385 OA
BRANCH  10  11
HETATM   11  C   UNL     1     -40.897 -53.105  12.626  1.00  0.00     0.163 C 
HETATM   12  C   UNL     1     -40.052 -52.890  13.864  1.00  0.00     0.033 C 
ENDBRANCH  10  11
ENDBRANCH   5  10
ENDBRANCH   1   3
BRANCH   1  13
HETATM   13  C   UNL     1     -41.687 -47.134  11.326  1.00  0.00     0.312 C 
BRANCH  13  14
HETATM   14  C   UNL     1     -42.183 -45.909  10.502  1.00  0.00     0.110 C 
HETATM   15  C   UNL     1     -42.283 -44.654  11.378  1.00  0.00     0.053 C 
BRANCH  14  16
HETATM   16  O   UNL     1     -41.201 -45.651   9.477  1.00  0.00    -0.383 OA
HETATM   17  H   UNL     1     -41.234 -44.697   9.296  1.00  0.00     0.211 HD
ENDBRANCH  14  16
BRANCH  14  18
HETATM   18  C   UNL     1     -43.513 -46.227   9.864  1.00  0.00     0.011 A 
HETATM   19  C   UNL     1     -44.361 -45.356   9.133  1.00  0.00     0.119 A 
HETATM   20  N   UNL     1     -45.488 -45.946   8.729  1.00  0.00    -0.310 N 
HETATM   21  N   UNL     1     -45.372 -47.200   9.195  1.00  0.00    -0.307 N 
ATOM     22  HN  UNL     1     -46.255 -45.541   8.194  1.00  0.00     0.186 HD
HETATM   23  C   UNL     1     -46.423 -48.159   8.970  1.00  0.00     0.177 C 
HETATM   24  C   UNL     1     -44.211 -47.420   9.875  1.00  0.00     0.121 A 
ENDBRANCH  14  18
ENDBRANCH  13  14
ENDBRANCH   1  13
TORSDOF 7
ENDMDL
MODEL 2
REMARK VINA RESULT:      -5.9      2.540      4.475
REMARK  7 active torsions:
REMARK  status: ('A' for Active; 'I' for Inactive)
REMARK    1  A    between atoms: C_2  and  O_3 
REMARK    2  A    between atoms: O_3  and  C_4 
REMARK    3  A    between atoms: C_6  and  N_7 
REMARK    4  A    between atoms: N_7  and  C_8 
REMARK    5  A    between atoms: C_8  and  C_9 
REMARK    6  A    between atoms: C_9  and  O_11 
REMARK    7  A    between atoms: C_9  and  C_12 
ROOT
HETATM    1  N   UNL     1     -42.107 -51.324  11.879  1.00  0.00     0.092 N 
HETATM    2  H   UNL     1     -43.049 -51.485  11.530  1.00  0.00     0.316 HD
ENDROOT
BRANCH   1   3
HETATM    3  C   UNL     1     -41.776 -52.065  13.099  1.00  0.00     0.234 C 
HETATM    4  C   UNL     1     -40.864 -53.275  12.746  1.00  0.00     0.069 C 
HETATM    5  C   UNL     1     -41.664 -54.067  13.845  1.00  0.00     0.134 C 
HETATM    6  C   UNL     1     -42.805 -53.102  13.493  1.00  0.00     0.017 C 
HETATM    7  C   UNL     1     -43.852 -53.656  12.531  1.00  0.00     0.014 C 
HETATM    8  C   UNL     1     -43.888 -52.777  14.494  1.00  0.00     0.014 C 
HETATM    9  C   UNL     1     -44.750 -53.848  13.778  1.00  0.00     0.002 C 
BRANCH   5  10
HETATM   10  O   UNL     1     -41.065 -53.965  15.160  1.00  0.00    -0.385 OA
BRANCH  10  11
HETATM   11  C   UNL     1     -40.986 -55.153  15.939  1.00  0.00     0.163 C 
HETATM   12  C   UNL     1     -42.374 -55.751  16.044  1.00  0.00     0.033 C 
ENDBRANCH  10  11
ENDBRANCH   5  10
ENDBRANCH   1   3
BRANCH   1  13
HETATM   13  C   UNL     1     -41.937 -49.880  12.158  1.00  0.00     0.312 C 
BRANCH  13  14
HETATM   14  C   UNL     1     -40.858 -49.172  11.286  1.00  0.00     0.110 C 
HETATM   15  C   UNL     1     -39.619 -48.814  12.117  1.00  0.00     0.053 C 
BRANCH  14  16
HETATM   16  O   UNL     1     -40.447 -50.105  10.266  1.00  0.00    -0.383 OA
HETATM   17  H   UNL     1     -40.685 -49.706   9.414  1.00  0.00     0.211 HD
ENDBRANCH  14  16
BRANCH  14  18
HETATM   18  C   UNL     1     -41.449 -47.941  10.642  1.00  0.00     0.011 A 
HETATM   19  C   UNL     1     -40.939 -46.618  10.660  1.00  0.00     0.119 A 
HETATM   20  N   UNL     1     -41.724 -45.750  10.019  1.00  0.00    -0.310 N 
HETATM   21  N   UNL     1     -42.742 -46.510   9.582  1.00  0.00    -0.307 N 
ATOM     22  HN  UNL     1     -41.585 -44.749   9.890  1.00  0.00     0.186 HD
HETATM   23  C   UNL     1     -43.826 -45.916   8.842  1.00  0.00     0.177 C 
HETATM   24  C   UNL     1     -42.623 -47.823   9.924  1.00  0.00     0.121 A 
ENDBRANCH  14  18
ENDBRANCH  13  14
ENDBRANCH   1  13
TORSDOF 7
ENDMDL
MODEL 3
REMARK VINA RESULT:      -5.6      2.862      7.631
REMARK  7 active torsions:
REMARK  status: ('A' for Active; 'I' for Inactive)
REMARK    1  A    between atoms: C_2  and  O_3 
REMARK    2  A    between atoms: O_3  and  C_4 
REMARK    3  A    between atoms: C_6  and  N_7 
REMARK    4  A    between atoms: N_7  and  C_8 
REMARK    5  A    between atoms: C_8  and  C_9 
REMARK    6  A    between atoms: C_9  and  O_11 
REMARK    7  A    between atoms: C_9  and  C_12 
ROOT
HETATM    1  N   UNL     1     -41.582 -50.387  11.538  1.00  0.00     0.092 N 
HETATM    2  H   UNL     1     -42.050 -50.928  10.815  1.00  0.00     0.316 HD
ENDROOT
BRANCH   1   3
HETATM    3  C   UNL     1     -40.995 -49.128  11.070  1.00  0.00     0.234 C 
HETATM    4  C   UNL     1     -40.488 -48.302  12.286  1.00  0.00     0.069 C 
HETATM    5  C   UNL     1     -40.997 -47.033  11.507  1.00  0.00     0.134 C 
HETATM    6  C   UNL     1     -41.998 -48.011  10.876  1.00  0.00     0.017 C 
HETATM    7  C   UNL     1     -43.389 -48.011  11.501  1.00  0.00     0.014 C 
HETATM    8  C   UNL     1     -42.601 -47.741   9.518  1.00  0.00     0.014 C 
HETATM    9  C   UNL     1     -43.831 -47.176  10.274  1.00  0.00     0.002 C 
BRANCH   5  10
HETATM   10  O   UNL     1     -39.979 -46.452  10.654  1.00  0.00    -0.385 OA
BRANCH  10  11
HETATM   11  C   UNL     1     -40.059 -45.055  10.397  1.00  0.00     0.163 C 
HETATM   12  C   UNL     1     -40.991 -44.431  11.416  1.00  0.00     0.033 C 
ENDBRANCH  10  11
ENDBRANCH   5  10
ENDBRANCH   1   3
BRANCH   1  13
HETATM   13  C   UNL     1     -40.499 -51.207  12.128  1.00  0.00     0.312 C 
BRANCH  13  14
HETATM   14  C   UNL     1     -40.902 -52.676  12.455  1.00  0.00     0.110 C 
HETATM   15  C   UNL     1     -42.416 -52.803  12.665  1.00  0.00     0.053 C 
BRANCH  14  16
HETATM   16  O   UNL     1     -40.549 -53.484  11.314  1.00  0.00    -0.383 OA
HETATM   17  H   UNL     1     -40.814 -52.983  10.526  1.00  0.00     0.211 HD
ENDBRANCH  14  16
BRANCH  14  18
HETATM   18  C   UNL     1     -40.147 -53.153  13.671  1.00  0.00     0.011 A 
HETATM   19  C   UNL     1     -39.689 -52.384  14.771  1.00  0.00     0.119 A 
HETATM   20  N   UNL     1     -39.021 -53.109  15.670  1.00  0.00    -0.310 N 
HETATM   21  N   UNL     1     -39.048 -54.350  15.156  1.00  0.00    -0.307 N 
ATOM     22  HN  UNL     1     -38.593 -52.796  16.541  1.00  0.00     0.186 HD
HETATM   23  C   UNL     1     -38.402 -55.436  15.848  1.00  0.00     0.177 C 
HETATM   24  C   UNL     1     -39.710 -54.430  13.968  1.00  0.00     0.121 A 
ENDBRANCH  14  18
ENDBRANCH  13  14
ENDBRANCH   1  13
TORSDOF 7
ENDMDL
MODEL 4
REMARK VINA RESULT:      -5.6      3.193      4.630
REMARK  7 active torsions:
REMARK  status: ('A' for Active; 'I' for Inactive)
REMARK    1  A    between atoms: C_2  and  O_3 
REMARK    2  A    between atoms: O_3  and  C_4 
REMARK    3  A    between atoms: C_6  and  N_7 
REMARK    4  A    between atoms: N_7  and  C_8 
REMARK    5  A    between atoms: C_8  and  C_9 
REMARK    6  A    between atoms: C_9  and  O_11 
REMARK    7  A    between atoms: C_9  and  C_12 
ROOT
HETATM    1  N   UNL     1     -41.539 -51.370  12.366  1.00  0.00     0.092 N 
HETATM    2  H   UNL     1     -41.272 -51.592  11.410  1.00  0.00     0.316 HD
ENDROOT
BRANCH   1   3
HETATM    3  C   UNL     1     -42.983 -51.403  12.617  1.00  0.00     0.234 C 
HETATM    4  C   UNL     1     -43.325 -50.495  13.832  1.00  0.00     0.069 C 
HETATM    5  C   UNL     1     -44.385 -51.591  14.222  1.00  0.00     0.134 C 
HETATM    6  C   UNL     1     -43.434 -52.551  13.493  1.00  0.00     0.017 C 
HETATM    7  C   UNL     1     -42.492 -53.342  14.395  1.00  0.00     0.014 C 
HETATM    8  C   UNL     1     -43.941 -53.837  12.884  1.00  0.00     0.014 C 
HETATM    9  C   UNL     1     -43.449 -54.540  14.175  1.00  0.00     0.002 C 
BRANCH   5  10
HETATM   10  O   UNL     1     -45.688 -51.346  13.639  1.00  0.00    -0.385 OA
BRANCH  10  11
HETATM   11  C   UNL     1     -46.816 -51.404  14.504  1.00  0.00     0.163 C 
HETATM   12  C   UNL     1     -46.682 -52.629  15.385  1.00  0.00     0.033 C 
ENDBRANCH  10  11
ENDBRANCH   5  10
ENDBRANCH   1   3
BRANCH   1  13
HETATM   13  C   UNL     1     -41.046 -50.015  12.703  1.00  0.00     0.312 C 
BRANCH  13  14
HETATM   14  C   UNL     1     -40.647 -49.146  11.473  1.00  0.00     0.110 C 
HETATM   15  C   UNL     1     -39.358 -48.359  11.744  1.00  0.00     0.053 C 
BRANCH  14  16
HETATM   16  O   UNL     1     -40.390 -50.043  10.374  1.00  0.00    -0.383 OA
HETATM   17  H   UNL     1     -39.527 -50.454  10.547  1.00  0.00     0.211 HD
ENDBRANCH  14  16
BRANCH  14  18
HETATM   18  C   UNL     1     -41.780 -48.215  11.117  1.00  0.00     0.011 A 
HETATM   19  C   UNL     1     -42.564 -47.419  11.991  1.00  0.00     0.119 A 
HETATM   20  N   UNL     1     -43.514 -46.731  11.356  1.00  0.00    -0.310 N 
HETATM   21  N   UNL     1     -43.346 -47.077  10.069  1.00  0.00    -0.307 N 
ATOM     22  HN  UNL     1     -44.203 -46.093  11.753  1.00  0.00     0.186 HD
HETATM   23  C   UNL     1     -44.215 -46.538   9.053  1.00  0.00     0.177 C 
HETATM   24  C   UNL     1     -42.324 -47.956   9.873  1.00  0.00     0.121 A 
ENDBRANCH  14  18
ENDBRANCH  13  14
ENDBRANCH   1  13
TORSDOF 7
ENDMDL
MODEL 5
REMARK VINA RESULT:      -5.6      3.085      5.115
REMARK  7 active torsions:
REMARK  status: ('A' for Active; 'I' for Inactive)
REMARK    1  A    between atoms: C_2  and  O_3 
REMARK    2  A    between atoms: O_3  and  C_4 
REMARK    3  A    between atoms: C_6  and  N_7 
REMARK    4  A    between atoms: N_7  and  C_8 
REMARK    5  A    between atoms: C_8  and  C_9 
REMARK    6  A    between atoms: C_9  and  O_11 
REMARK    7  A    between atoms: C_9  and  C_12 
ROOT
HETATM    1  N   UNL     1     -42.608 -50.334  12.131  1.00  0.00     0.092 N 
HETATM    2  H   UNL     1     -43.417 -49.717  12.121  1.00  0.00     0.316 HD
ENDROOT
BRANCH   1   3
HETATM    3  C   UNL     1     -42.759 -51.519  12.981  1.00  0.00     0.234 C 
HETATM    4  C   UNL     1     -42.878 -52.790  12.093  1.00  0.00     0.069 C 
HETATM    5  C   UNL     1     -43.927 -53.304  13.147  1.00  0.00     0.134 C 
HETATM    6  C   UNL     1     -44.187 -51.810  13.390  1.00  0.00     0.017 C 
HETATM    7  C   UNL     1     -45.402 -51.237  12.669  1.00  0.00     0.014 C 
HETATM    8  C   UNL     1     -44.729 -51.318  14.711  1.00  0.00     0.014 C 
HETATM    9  C   UNL     1     -46.125 -51.317  14.037  1.00  0.00     0.002 C 
BRANCH   5  10
HETATM   10  O   UNL     1     -43.320 -54.074  14.214  1.00  0.00    -0.385 OA
BRANCH  10  11
HETATM   11  C   UNL     1     -44.032 -55.210  14.691  1.00  0.00     0.163 C 
HETATM   12  C   UNL     1     -45.359 -55.284  13.964  1.00  0.00     0.033 C 
ENDBRANCH  10  11
ENDBRANCH   5  10
ENDBRANCH   1   3
BRANCH   1  13
HETATM   13  C   UNL     1     -41.428 -49.576  12.604  1.00  0.00     0.312 C 
BRANCH  13  14
HETATM   14  C   UNL     1     -40.424 -49.172  11.483  1.00  0.00     0.110 C 
HETATM   15  C   UNL     1     -38.973 -49.341  11.950  1.00  0.00     0.053 C 
BRANCH  14  16
HETATM   16  O   UNL     1     -40.635 -50.066  10.371  1.00  0.00    -0.383 OA
HETATM   17  H   UNL     1     -40.668 -50.963  10.740  1.00  0.00     0.211 HD
ENDBRANCH  14  16
BRANCH  14  18
HETATM   18  C   UNL     1     -40.688 -47.750  11.051  1.00  0.00     0.011 A 
HETATM   19  C   UNL     1     -41.759 -47.264  10.257  1.00  0.00     0.119 A 
HETATM   20  N   UNL     1     -41.681 -45.952  10.028  1.00  0.00    -0.310 N 
HETATM   21  N   UNL     1     -40.562 -45.585  10.674  1.00  0.00    -0.307 N 
ATOM     22  HN  UNL     1     -42.320 -45.367   9.490  1.00  0.00     0.186 HD
HETATM   23  C   UNL     1     -40.125 -44.213  10.645  1.00  0.00     0.177 C 
HETATM   24  C   UNL     1     -39.936 -46.619  11.303  1.00  0.00     0.121 A 
ENDBRANCH  14  18
ENDBRANCH  13  14
ENDBRANCH   1  13
TORSDOF 7
ENDMDL
MODEL 6
REMARK VINA RESULT:      -5.5      4.318      7.262
REMARK  7 active torsions:
REMARK  status: ('A' for Active; 'I' for Inactive)
REMARK    1  A    between atoms: C_2  and  O_3 
REMARK    2  A    between atoms: O_3  and  C_4 
REMARK    3  A    between atoms: C_6  and  N_7 
REMARK    4  A    between atoms: N_7  and  C_8 
REMARK    5  A    between atoms: C_8  and  C_9 
REMARK    6  A    between atoms: C_9  and  O_11 
REMARK    7  A    between atoms: C_9  and  C_12 
ROOT
HETATM    1  N   UNL     1     -43.517 -53.194  12.548  1.00  0.00     0.092 N 
HETATM    2  H   UNL     1     -44.286 -53.046  11.898  1.00  0.00     0.316 HD
ENDROOT
BRANCH   1   3
HETATM    3  C   UNL     1     -43.931 -53.454  13.930  1.00  0.00     0.234 C 
HETATM    4  C   UNL     1     -44.646 -54.833  14.012  1.00  0.00     0.069 C 
HETATM    5  C   UNL     1     -45.611 -54.157  15.054  1.00  0.00     0.134 C 
HETATM    6  C   UNL     1     -45.276 -52.864  14.296  1.00  0.00     0.017 C 
HETATM    7  C   UNL     1     -46.312 -52.429  13.264  1.00  0.00     0.014 C 
HETATM    8  C   UNL     1     -45.372 -51.517  14.971  1.00  0.00     0.014 C 
HETATM    9  C   UNL     1     -46.769 -51.385  14.313  1.00  0.00     0.002 C 
BRANCH   5  10
HETATM   10  O   UNL     1     -45.144 -54.288  16.420  1.00  0.00    -0.385 OA
BRANCH  10  11
HETATM   11  C   UNL     1     -46.090 -54.069  17.460  1.00  0.00     0.163 C 
HETATM   12  C   UNL     1     -45.569 -54.717  18.726  1.00  0.00     0.033 C 
ENDBRANCH  10  11
ENDBRANCH   5  10
ENDBRANCH   1   3
BRANCH   1  13
HETATM   13  C   UNL     1     -42.648 -51.995  12.547  1.00  0.00     0.312 C 
BRANCH  13  14
HETATM   14  C   UNL     1     -41.182 -52.257  12.089  1.00  0.00     0.110 C 
HETATM   15  C   UNL     1     -40.529 -53.368  12.922  1.00  0.00     0.053 C 
BRANCH  14  16
HETATM   16  O   UNL     1     -41.231 -52.707  10.720  1.00  0.00    -0.383 OA
HETATM   17  H   UNL     1     -41.568 -51.964  10.195  1.00  0.00     0.211 HD
ENDBRANCH  14  16
BRANCH  14  18
HETATM   18  C   UNL     1     -40.385 -50.979  12.177  1.00  0.00     0.011 A 
HETATM   19  C   UNL     1     -40.316 -49.926  11.229  1.00  0.00     0.119 A 
HETATM   20  N   UNL     1     -39.488 -48.947  11.597  1.00  0.00    -0.310 N 
HETATM   21  N   UNL     1     -39.019 -49.363  12.786  1.00  0.00    -0.307 N 
ATOM     22  HN  UNL     1     -39.263 -48.089  11.096  1.00  0.00     0.186 HD
HETATM   23  C   UNL     1     -38.064 -48.563  13.509  1.00  0.00     0.177 C 
HETATM   24  C   UNL     1     -39.526 -50.565  13.177  1.00  0.00     0.121 A 
ENDBRANCH  14  18
ENDBRANCH  13  14
ENDBRANCH   1  13
TORSDOF 7
ENDMDL
MODEL 7
REMARK VINA RESULT:      -5.4      1.891      2.656
REMARK  7 active torsions:
REMARK  status: ('A' for Active; 'I' for Inactive)
REMARK    1  A    between atoms: C_2  and  O_3 
REMARK    2  A    between atoms: O_3  and  C_4 
REMARK    3  A    between atoms: C_6  and  N_7 
REMARK    4  A    between atoms: N_7  and  C_8 
REMARK    5  A    between atoms: C_8  and  C_9 
REMARK    6  A    between atoms: C_9  and  O_11 
REMARK    7  A    between atoms: C_9  and  C_12 
ROOT
HETATM    1  N   UNL     1     -39.946 -47.697  11.209  1.00  0.00     0.092 N 
HETATM    2  H   UNL     1     -39.239 -48.029  10.556  1.00  0.00     0.316 HD
ENDROOT
BRANCH   1   3
HETATM    3  C   UNL     1     -39.824 -48.241  12.564  1.00  0.00     0.234 C 
HETATM    4  C   UNL     1     -38.919 -47.312  13.422  1.00  0.00     0.069 C 
HETATM    5  C   UNL     1     -38.355 -48.630  14.070  1.00  0.00     0.134 C 
HETATM    6  C   UNL     1     -38.724 -49.269  12.724  1.00  0.00     0.017 C 
HETATM    7  C   UNL     1     -37.570 -49.424  11.740  1.00  0.00     0.014 C 
HETATM    8  C   UNL     1     -39.024 -50.745  12.617  1.00  0.00     0.014 C 
HETATM    9  C   UNL     1     -37.557 -50.919  12.147  1.00  0.00     0.002 C 
BRANCH   5  10
HETATM   10  O   UNL     1     -39.095 -49.040  15.247  1.00  0.00    -0.385 OA
BRANCH  10  11
HETATM   11  C   UNL     1     -38.347 -49.520  16.358  1.00  0.00     0.163 C 
HETATM   12  C   UNL     1     -38.795 -48.774  17.597  1.00  0.00     0.033 C 
ENDBRANCH  10  11
ENDBRANCH   5  10
ENDBRANCH   1   3
BRANCH   1  13
HETATM   13  C   UNL     1     -41.286 -48.053  10.690  1.00  0.00     0.312 C 
BRANCH  13  14
HETATM   14  C   UNL     1     -42.189 -46.834  10.334  1.00  0.00     0.110 C 
HETATM   15  C   UNL     1     -42.631 -46.083  11.596  1.00  0.00     0.053 C 
BRANCH  14  16
HETATM   16  O   UNL     1     -41.398 -45.928   9.539  1.00  0.00    -0.383 OA
HETATM   17  H   UNL     1     -42.016 -45.291   9.147  1.00  0.00     0.211 HD
ENDBRANCH  14  16
BRANCH  14  18
HETATM   18  C   UNL     1     -43.384 -47.299   9.538  1.00  0.00     0.011 A 
HETATM   19  C   UNL     1     -43.439 -47.633   8.161  1.00  0.00     0.119 A 
HETATM   20  N   UNL     1     -44.663 -47.978   7.758  1.00  0.00    -0.310 N 
HETATM   21  N   UNL     1     -45.403 -47.871   8.874  1.00  0.00    -0.307 N 
ATOM     22  HN  UNL     1     -44.964 -48.257   6.825  1.00  0.00     0.186 HD
HETATM   23  C   UNL     1     -46.816 -48.152   8.837  1.00  0.00     0.177 C 
HETATM   24  C   UNL     1     -44.687 -47.474   9.962  1.00  0.00     0.121 A 
ENDBRANCH  14  18
ENDBRANCH  13  14
ENDBRANCH   1  13
TORSDOF 7
ENDMDL
MODEL 8
REMARK VINA RESULT:      -5.4      2.235      3.753
REMARK  7 active torsions:
REMARK  status: ('A' for Active; 'I' for Inactive)
REMARK    1  A    between atoms: C_2  and  O_3 
REMARK    2  A    between atoms: O_3  and  C_4 
REMARK    3  A    between atoms: C_6  and  N_7 
REMARK    4  A    between atoms: N_7  and  C_8 
REMARK    5  A    between atoms: C_8  and  C_9 
REMARK    6  A    between atoms: C_9  and  O_11 
REMARK    7  A    between atoms: C_9  and  C_12 
ROOT
HETATM    1  N   UNL     1     -40.041 -51.392  11.784  1.00  0.00     0.092 N 
HETATM    2  H   UNL     1     -39.470 -51.632  10.976  1.00  0.00     0.316 HD
ENDROOT
BRANCH   1   3
HETATM    3  C   UNL     1     -40.929 -52.464  12.241  1.00  0.00     0.234 C 
HETATM    4  C   UNL     1     -42.169 -51.851  12.951  1.00  0.00     0.069 C 
HETATM    5  C   UNL     1     -42.066 -53.061  13.952  1.00  0.00     0.134 C 
HETATM    6  C   UNL     1     -40.572 -53.028  13.599  1.00  0.00     0.017 C 
HETATM    7  C   UNL     1     -39.683 -52.302  14.604  1.00  0.00     0.014 C 
HETATM    8  C   UNL     1     -39.714 -54.264  13.723  1.00  0.00     0.014 C 
HETATM    9  C   UNL     1     -39.266 -53.709  15.099  1.00  0.00     0.002 C 
BRANCH   5  10
HETATM   10  O   UNL     1     -42.843 -54.208  13.529  1.00  0.00    -0.385 OA
BRANCH  10  11
HETATM   11  C   UNL     1     -43.625 -54.871  14.516  1.00  0.00     0.163 C 
HETATM   12  C   UNL     1     -42.721 -55.249  15.671  1.00  0.00     0.033 C 
ENDBRANCH  10  11
ENDBRANCH   5  10
ENDBRANCH   1   3
BRANCH   1  13
HETATM   13  C   UNL     1     -40.875 -50.215  11.451  1.00  0.00     0.312 C 
BRANCH  13  14
HETATM   14  C   UNL     1     -40.179 -48.840  11.680  1.00  0.00     0.110 C 
HETATM   15  C   UNL     1     -40.085 -48.506  13.174  1.00  0.00     0.053 C 
BRANCH  14  16
HETATM   16  O   UNL     1     -38.835 -48.946  11.169  1.00  0.00    -0.383 OA
HETATM   17  H   UNL     1     -38.549 -49.860  11.328  1.00  0.00     0.211 HD
ENDBRANCH  14  16
BRANCH  14  18
HETATM   18  C   UNL     1     -40.924 -47.761  10.933  1.00  0.00     0.011 A 
HETATM   19  C   UNL     1     -40.571 -46.394  10.792  1.00  0.00     0.119 A 
HETATM   20  N   UNL     1     -41.467 -45.695  10.093  1.00  0.00    -0.310 N 
HETATM   21  N   UNL     1     -42.401 -46.607   9.778  1.00  0.00    -0.307 N 
ATOM     22  HN  UNL     1     -41.447 -44.704   9.855  1.00  0.00     0.186 HD
HETATM   23  C   UNL     1     -43.565 -46.222   9.021  1.00  0.00     0.177 C 
HETATM   24  C   UNL     1     -42.122 -47.854  10.251  1.00  0.00     0.121 A 
ENDBRANCH  14  18
ENDBRANCH  13  14
ENDBRANCH   1  13
TORSDOF 7
ENDMDL
MODEL 9
REMARK VINA RESULT:      -5.3      3.837      5.872
REMARK  7 active torsions:
REMARK  status: ('A' for Active; 'I' for Inactive)
REMARK    1  A    between atoms: C_2  and  O_3 
REMARK    2  A    between atoms: O_3  and  C_4 
REMARK    3  A    between atoms: C_6  and  N_7 
REMARK    4  A    between atoms: N_7  and  C_8 
REMARK    5  A    between atoms: C_8  and  C_9 
REMARK    6  A    between atoms: C_9  and  O_11 
REMARK    7  A    between atoms: C_9  and  C_12 
ROOT
HETATM    1  N   UNL     1     -42.873 -52.018  12.545  1.00  0.00     0.092 N 
HETATM    2  H   UNL     1     -43.560 -51.986  11.795  1.00  0.00     0.316 HD
ENDROOT
BRANCH   1   3
HETATM    3  C   UNL     1     -43.397 -52.492  13.829  1.00  0.00     0.234 C 
HETATM    4  C   UNL     1     -43.631 -54.029  13.763  1.00  0.00     0.069 C 
HETATM    5  C   UNL     1     -44.917 -53.766  14.631  1.00  0.00     0.134 C 
HETATM    6  C   UNL     1     -44.900 -52.384  13.963  1.00  0.00     0.017 C 
HETATM    7  C   UNL     1     -45.842 -52.226  12.773  1.00  0.00     0.014 C 
HETATM    8  C   UNL     1     -45.533 -51.187  14.632  1.00  0.00     0.014 C 
HETATM    9  C   UNL     1     -46.774 -51.457  13.742  1.00  0.00     0.002 C 
BRANCH   5  10
HETATM   10  O   UNL     1     -44.658 -53.840  16.055  1.00  0.00    -0.385 OA
BRANCH  10  11
HETATM   11  C   UNL     1     -45.763 -54.112  16.909  1.00  0.00     0.163 C 
HETATM   12  C   UNL     1     -45.954 -52.930  17.838  1.00  0.00     0.033 C 
ENDBRANCH  10  11
ENDBRANCH   5  10
ENDBRANCH   1   3
BRANCH   1  13
HETATM   13  C   UNL     1     -42.320 -50.660  12.748  1.00  0.00     0.312 C 
BRANCH  13  14
HETATM   14  C   UNL     1     -40.998 -50.375  11.975  1.00  0.00     0.110 C 
HETATM   15  C   UNL     1     -39.775 -50.523  12.889  1.00  0.00     0.053 C 
BRANCH  14  16
HETATM   16  O   UNL     1     -40.886 -51.363  10.930  1.00  0.00    -0.383 OA
HETATM   17  H   UNL     1     -39.952 -51.385  10.668  1.00  0.00     0.211 HD
ENDBRANCH  14  16
BRANCH  14  18
HETATM   18  C   UNL     1     -41.050 -48.995  11.366  1.00  0.00     0.011 A 
HETATM   19  C   UNL     1     -40.000 -48.047  11.261  1.00  0.00     0.119 A 
HETATM   20  N   UNL     1     -40.388 -46.902  10.695  1.00  0.00    -0.310 N 
HETATM   21  N   UNL     1     -41.689 -47.107  10.430  1.00  0.00    -0.307 N 
ATOM     22  HN  UNL     1     -39.829 -46.070  10.508  1.00  0.00     0.186 HD
HETATM   23  C   UNL     1     -42.477 -46.068   9.818  1.00  0.00     0.177 C 
HETATM   24  C   UNL     1     -42.130 -48.339  10.807  1.00  0.00     0.121 A 
ENDBRANCH  14  18
ENDBRANCH  13  14
ENDBRANCH   1  13
TORSDOF 7
ENDMDL
