MODEL 1
REMARK VINA RESULT:      -6.1      0.000      0.000
REMARK  4 active torsions:
REMARK  status: ('A' for Active; 'I' for Inactive)
REMARK       I    between atoms: C_2  and  N_3 
REMARK       I    between atoms: C_2  and  N_12 
REMARK    1  A    between atoms: N_3  and  C_4 
REMARK    2  A    between atoms: C_4  and  C_5 
REMARK    3  A    between atoms: C_5  and  N_6 
REMARK    4  A    between atoms: N_12  and  C_13 
ROOT
HETATM    1  O   UNL     1     -42.937 -49.846  13.493  1.00  0.00    -0.247 OA
HETATM    2  C   UNL     1     -42.560 -50.250  12.406  1.00  0.00     0.316 C 
HETATM    3  N   UNL     1     -42.192 -49.431  11.358  1.00  0.00    -0.342 N 
HETATM    4  N   UNL     1     -42.443 -51.563  12.045  1.00  0.00    -0.339 N 
HETATM    5  H   UNL     1     -41.486 -49.832  10.760  1.00  0.00     0.164 HD
HETATM    6  H   UNL     1     -42.371 -51.744  11.055  1.00  0.00     0.164 HD
ENDROOT
BRANCH   3   7
HETATM    7  C   UNL     1     -42.182 -47.986  11.542  1.00  0.00     0.144 C 
BRANCH   7   8
HETATM    8  C   UNL     1     -42.213 -47.245  10.209  1.00  0.00     0.149 C 
BRANCH   8   9
HETATM    9  N   UNL     1     -43.409 -47.521   9.445  1.00  0.00    -0.350 N 
HETATM   10  C   UNL     1     -44.696 -47.458   9.903  1.00  0.00     0.108 A 
HETATM   11  C   UNL     1     -45.473 -47.759   8.809  1.00  0.00     0.106 A 
HETATM   12  N   UNL     1     -44.692 -47.992   7.706  1.00  0.00    -0.361 N 
HETATM   13  C   UNL     1     -43.454 -47.840   8.120  1.00  0.00     0.182 A 
ATOM     14  HN  UNL     1     -45.005 -48.233   6.765  1.00  0.00     0.166 HD
ENDBRANCH   8   9
ENDBRANCH   7   8
ENDBRANCH   3   7
BRANCH   4  15
HETATM   15  C   UNL     1     -42.768 -52.711  12.890  1.00  0.00     0.086 C 
HETATM   16  C   UNL     1     -41.555 -53.611  13.159  1.00  0.00     0.025 C 
HETATM   17  C   UNL     1     -41.682 -54.583  14.341  1.00  0.00     0.002 C 
HETATM   18  C   UNL     1     -42.330 -54.000  15.598  1.00  0.00     0.000 C 
HETATM   19  C   UNL     1     -43.808 -54.353  15.801  1.00  0.00     0.000 C 
HETATM   20  C   UNL     1     -44.836 -53.841  14.784  1.00  0.00     0.000 C 
HETATM   21  C   UNL     1     -44.689 -54.399  13.365  1.00  0.00     0.002 C 
HETATM   22  C   UNL     1     -43.996 -53.466  12.366  1.00  0.00     0.025 C 
ENDBRANCH   4  15
TORSDOF 4
ENDMDL
MODEL 2
REMARK VINA RESULT:      -6.0      3.822      5.164
REMARK  4 active torsions:
REMARK  status: ('A' for Active; 'I' for Inactive)
REMARK       I    between atoms: C_2  and  N_3 
REMARK       I    between atoms: C_2  and  N_12 
REMARK    1  A    between atoms: N_3  and  C_4 
REMARK    2  A    between atoms: C_4  and  C_5 
REMARK    3  A    between atoms: C_5  and  N_6 
REMARK    4  A    between atoms: N_12  and  C_13 
ROOT
HETATM    1  O   UNL     1     -41.957 -52.719  15.090  1.00  0.00    -0.247 OA
HETATM    2  C   UNL     1     -41.851 -53.114  13.941  1.00  0.00     0.316 C 
HETATM    3  N   UNL     1     -40.648 -53.295  13.289  1.00  0.00    -0.342 N 
HETATM    4  N   UNL     1     -42.891 -53.436  13.114  1.00  0.00    -0.339 N 
HETATM    5  H   UNL     1     -40.667 -54.034  12.602  1.00  0.00     0.164 HD
HETATM    6  H   UNL     1     -42.671 -53.496  12.131  1.00  0.00     0.164 HD
ENDROOT
BRANCH   3   7
HETATM    7  C   UNL     1     -39.400 -53.069  14.005  1.00  0.00     0.144 C 
BRANCH   7   8
HETATM    8  C   UNL     1     -39.109 -51.582  14.181  1.00  0.00     0.149 C 
BRANCH   8   9
HETATM    9  N   UNL     1     -38.640 -50.958  12.964  1.00  0.00    -0.350 N 
HETATM   10  C   UNL     1     -37.349 -50.923  12.516  1.00  0.00     0.108 A 
HETATM   11  C   UNL     1     -37.413 -50.264  11.310  1.00  0.00     0.106 A 
HETATM   12  N   UNL     1     -38.704 -49.909  11.017  1.00  0.00    -0.361 N 
HETATM   13  C   UNL     1     -39.421 -50.341  12.030  1.00  0.00     0.182 A 
ATOM     14  HN  UNL     1     -39.037 -49.415  10.189  1.00  0.00     0.166 HD
ENDBRANCH   8   9
ENDBRANCH   7   8
ENDBRANCH   3   7
BRANCH   4  15
HETATM   15  C   UNL     1     -44.310 -53.344  13.455  1.00  0.00     0.086 C 
HETATM   16  C   UNL     1     -44.908 -54.695  13.870  1.00  0.00     0.025 C 
HETATM   17  C   UNL     1     -46.241 -54.641  14.629  1.00  0.00     0.002 C 
HETATM   18  C   UNL     1     -46.339 -53.549  15.697  1.00  0.00     0.000 C 
HETATM   19  C   UNL     1     -47.104 -52.287  15.279  1.00  0.00     0.000 C 
HETATM   20  C   UNL     1     -46.534 -51.418  14.150  1.00  0.00     0.000 C 
HETATM   21  C   UNL     1     -46.482 -52.086  12.773  1.00  0.00     0.002 C 
HETATM   22  C   UNL     1     -45.106 -52.623  12.361  1.00  0.00     0.025 C 
ENDBRANCH   4  15
TORSDOF 4
ENDMDL
MODEL 3
REMARK VINA RESULT:      -6.0      2.167      3.064
REMARK  4 active torsions:
REMARK  status: ('A' for Active; 'I' for Inactive)
REMARK       I    between atoms: C_2  and  N_3 
REMARK       I    between atoms: C_2  and  N_12 
REMARK    1  A    between atoms: N_3  and  C_4 
REMARK    2  A    between atoms: C_4  and  C_5 
REMARK    3  A    between atoms: C_5  and  N_6 
REMARK    4  A    between atoms: N_12  and  C_13 
ROOT
HETATM    1  O   UNL     1     -42.500 -50.621  13.821  1.00  0.00    -0.247 OA
HETATM    2  C   UNL     1     -42.624 -51.266  12.793  1.00  0.00     0.316 C 
HETATM    3  N   UNL     1     -41.756 -51.198  11.723  1.00  0.00    -0.342 N 
HETATM    4  N   UNL     1     -43.633 -52.151  12.530  1.00  0.00    -0.339 N 
HETATM    5  H   UNL     1     -41.682 -52.061  11.206  1.00  0.00     0.164 HD
HETATM    6  H   UNL     1     -43.751 -52.410  11.562  1.00  0.00     0.164 HD
ENDROOT
BRANCH   3   7
HETATM    7  C   UNL     1     -40.569 -50.359  11.811  1.00  0.00     0.144 C 
BRANCH   7   8
HETATM    8  C   UNL     1     -40.679 -49.125  10.921  1.00  0.00     0.149 C 
BRANCH   8   9
HETATM    9  N   UNL     1     -41.696 -48.201  11.372  1.00  0.00    -0.350 N 
HETATM   10  C   UNL     1     -41.682 -47.489  12.539  1.00  0.00     0.108 A 
HETATM   11  C   UNL     1     -42.828 -46.727  12.498  1.00  0.00     0.106 A 
HETATM   12  N   UNL     1     -43.523 -46.955  11.339  1.00  0.00    -0.361 N 
HETATM   13  C   UNL     1     -42.817 -47.846  10.680  1.00  0.00     0.182 A 
ATOM     14  HN  UNL     1     -44.402 -46.525  11.049  1.00  0.00     0.166 HD
ENDBRANCH   8   9
ENDBRANCH   7   8
ENDBRANCH   3   7
BRANCH   4  15
HETATM   15  C   UNL     1     -44.747 -52.463  13.423  1.00  0.00     0.086 C 
HETATM   16  C   UNL     1     -45.164 -53.938  13.358  1.00  0.00     0.025 C 
HETATM   17  C   UNL     1     -46.019 -54.452  14.525  1.00  0.00     0.002 C 
HETATM   18  C   UNL     1     -45.581 -53.978  15.912  1.00  0.00     0.000 C 
HETATM   19  C   UNL     1     -46.389 -52.813  16.495  1.00  0.00     0.000 C 
HETATM   20  C   UNL     1     -46.338 -51.452  15.788  1.00  0.00     0.000 C 
HETATM   21  C   UNL     1     -46.933 -51.423  14.377  1.00  0.00     0.002 C 
HETATM   22  C   UNL     1     -45.910 -51.480  13.236  1.00  0.00     0.025 C 
ENDBRANCH   4  15
TORSDOF 4
ENDMDL
MODEL 4
REMARK VINA RESULT:      -5.9      1.851      2.411
REMARK  4 active torsions:
REMARK  status: ('A' for Active; 'I' for Inactive)
REMARK       I    between atoms: C_2  and  N_3 
REMARK       I    between atoms: C_2  and  N_12 
REMARK    1  A    between atoms: N_3  and  C_4 
REMARK    2  A    between atoms: C_4  and  C_5 
REMARK    3  A    between atoms: C_5  and  N_6 
REMARK    4  A    between atoms: N_12  and  C_13 
ROOT
HETATM    1  O   UNL     1     -43.339 -49.623  14.026  1.00  0.00    -0.247 OA
HETATM    2  C   UNL     1     -43.391 -50.144  12.925  1.00  0.00     0.316 C 
HETATM    3  N   UNL     1     -42.752 -49.656  11.803  1.00  0.00    -0.342 N 
HETATM    4  N   UNL     1     -44.085 -51.281  12.618  1.00  0.00    -0.339 N 
HETATM    5  H   UNL     1     -42.476 -50.373  11.151  1.00  0.00     0.164 HD
HETATM    6  H   UNL     1     -44.248 -51.447  11.636  1.00  0.00     0.164 HD
ENDROOT
BRANCH   3   7
HETATM    7  C   UNL     1     -41.901 -48.479  11.915  1.00  0.00     0.144 C 
BRANCH   7   8
HETATM    8  C   UNL     1     -41.501 -47.937  10.545  1.00  0.00     0.149 C 
BRANCH   8   9
HETATM    9  N   UNL     1     -42.533 -47.121   9.946  1.00  0.00    -0.350 N 
HETATM   10  C   UNL     1     -43.453 -47.528   9.021  1.00  0.00     0.108 A 
HETATM   11  C   UNL     1     -44.236 -46.420   8.794  1.00  0.00     0.106 A 
HETATM   12  N   UNL     1     -43.819 -45.363   9.561  1.00  0.00    -0.361 N 
HETATM   13  C   UNL     1     -42.792 -45.815  10.246  1.00  0.00     0.182 A 
ATOM     14  HN  UNL     1     -44.220 -44.425   9.594  1.00  0.00     0.166 HD
ENDBRANCH   8   9
ENDBRANCH   7   8
ENDBRANCH   3   7
BRANCH   4  15
HETATM   15  C   UNL     1     -44.900 -52.059  13.549  1.00  0.00     0.086 C 
HETATM   16  C   UNL     1     -44.990 -53.541  13.162  1.00  0.00     0.025 C 
HETATM   17  C   UNL     1     -45.458 -54.501  14.265  1.00  0.00     0.002 C 
HETATM   18  C   UNL     1     -44.863 -54.243  15.650  1.00  0.00     0.000 C 
HETATM   19  C   UNL     1     -45.770 -53.484  16.626  1.00  0.00     0.000 C 
HETATM   20  C   UNL     1     -46.160 -52.037  16.298  1.00  0.00     0.000 C 
HETATM   21  C   UNL     1     -47.020 -51.858  15.043  1.00  0.00     0.002 C 
HETATM   22  C   UNL     1     -46.262 -51.397  13.793  1.00  0.00     0.025 C 
ENDBRANCH   4  15
TORSDOF 4
ENDMDL
MODEL 5
REMARK VINA RESULT:      -5.8      1.635      2.581
REMARK  4 active torsions:
REMARK  status: ('A' for Active; 'I' for Inactive)
REMARK       I    between atoms: C_2  and  N_3 
REMARK       I    between atoms: C_2  and  N_12 
REMARK    1  A    between atoms: N_3  and  C_4 
REMARK    2  A    between atoms: C_4  and  C_5 
REMARK    3  A    between atoms: C_5  and  N_6 
REMARK    4  A    between atoms: N_12  and  C_13 
ROOT
HETATM    1  O   UNL     1     -40.523 -49.257  11.836  1.00  0.00    -0.247 OA
HETATM    2  C   UNL     1     -41.708 -49.462  11.634  1.00  0.00     0.316 C 
HETATM    3  N   UNL     1     -42.519 -48.646  10.872  1.00  0.00    -0.342 N 
HETATM    4  N   UNL     1     -42.425 -50.518  12.125  1.00  0.00    -0.339 N 
HETATM    5  H   UNL     1     -43.264 -49.140  10.405  1.00  0.00     0.164 HD
HETATM    6  H   UNL     1     -43.429 -50.422  12.095  1.00  0.00     0.164 HD
ENDROOT
BRANCH   3   7
HETATM    7  C   UNL     1     -41.947 -47.489  10.198  1.00  0.00     0.144 C 
BRANCH   7   8
HETATM    8  C   UNL     1     -43.026 -46.569   9.635  1.00  0.00     0.149 C 
BRANCH   8   9
HETATM    9  N   UNL     1     -44.106 -47.297   9.006  1.00  0.00    -0.350 N 
HETATM   10  C   UNL     1     -45.385 -47.412   9.472  1.00  0.00     0.108 A 
HETATM   11  C   UNL     1     -46.042 -48.153   8.517  1.00  0.00     0.106 A 
HETATM   12  N   UNL     1     -45.197 -48.479   7.488  1.00  0.00    -0.361 N 
HETATM   13  C   UNL     1     -44.038 -47.949   7.809  1.00  0.00     0.182 A 
ATOM     14  HN  UNL     1     -45.420 -49.019   6.651  1.00  0.00     0.166 HD
ENDBRANCH   8   9
ENDBRANCH   7   8
ENDBRANCH   3   7
BRANCH   4  15
HETATM   15  C   UNL     1     -41.903 -51.572  12.993  1.00  0.00     0.086 C 
HETATM   16  C   UNL     1     -42.729 -52.863  12.920  1.00  0.00     0.025 C 
HETATM   17  C   UNL     1     -42.050 -54.133  13.452  1.00  0.00     0.002 C 
HETATM   18  C   UNL     1     -40.581 -54.299  13.061  1.00  0.00     0.000 C 
HETATM   19  C   UNL     1     -39.564 -53.910  14.141  1.00  0.00     0.000 C 
HETATM   20  C   UNL     1     -39.491 -52.446  14.594  1.00  0.00     0.000 C 
HETATM   21  C   UNL     1     -40.743 -51.914  15.296  1.00  0.00     0.002 C 
HETATM   22  C   UNL     1     -41.671 -51.063  14.421  1.00  0.00     0.025 C 
ENDBRANCH   4  15
TORSDOF 4
ENDMDL
MODEL 6
REMARK VINA RESULT:      -5.6      3.433      4.684
REMARK  4 active torsions:
REMARK  status: ('A' for Active; 'I' for Inactive)
REMARK       I    between atoms: C_2  and  N_3 
REMARK       I    between atoms: C_2  and  N_12 
REMARK    1  A    between atoms: N_3  and  C_4 
REMARK    2  A    between atoms: C_4  and  C_5 
REMARK    3  A    between atoms: C_5  and  N_6 
REMARK    4  A    between atoms: N_12  and  C_13 
ROOT
HETATM    1  O   UNL     1     -41.932 -51.591  13.884  1.00  0.00    -0.247 OA
HETATM    2  C   UNL     1     -42.239 -51.856  12.733  1.00  0.00     0.316 C 
HETATM    3  N   UNL     1     -41.394 -51.716  11.651  1.00  0.00    -0.342 N 
HETATM    4  N   UNL     1     -43.457 -52.326  12.327  1.00  0.00    -0.339 N 
HETATM    5  H   UNL     1     -41.569 -52.380  10.913  1.00  0.00     0.164 HD
HETATM    6  H   UNL     1     -43.650 -52.254  11.339  1.00  0.00     0.164 HD
ENDROOT
BRANCH   3   7
HETATM    7  C   UNL     1     -40.019 -51.284  11.863  1.00  0.00     0.144 C 
BRANCH   7   8
HETATM    8  C   UNL     1     -39.854 -49.785  11.633  1.00  0.00     0.149 C 
BRANCH   8   9
HETATM    9  N   UNL     1     -39.303 -49.102  12.783  1.00  0.00    -0.350 N 
HETATM   10  C   UNL     1     -40.011 -48.491  13.778  1.00  0.00     0.108 A 
HETATM   11  C   UNL     1     -39.057 -48.030  14.656  1.00  0.00     0.106 A 
HETATM   12  N   UNL     1     -37.798 -48.354  14.221  1.00  0.00    -0.361 N 
HETATM   13  C   UNL     1     -37.978 -49.000  13.091  1.00  0.00     0.182 A 
ATOM     14  HN  UNL     1     -36.911 -48.138  14.677  1.00  0.00     0.166 HD
ENDBRANCH   8   9
ENDBRANCH   7   8
ENDBRANCH   3   7
BRANCH   4  15
HETATM   15  C   UNL     1     -44.607 -52.574  13.194  1.00  0.00     0.086 C 
HETATM   16  C   UNL     1     -45.031 -54.048  13.208  1.00  0.00     0.025 C 
HETATM   17  C   UNL     1     -45.935 -54.482  14.371  1.00  0.00     0.002 C 
HETATM   18  C   UNL     1     -45.547 -53.921  15.741  1.00  0.00     0.000 C 
HETATM   19  C   UNL     1     -46.369 -52.716  16.215  1.00  0.00     0.000 C 
HETATM   20  C   UNL     1     -46.281 -51.404  15.424  1.00  0.00     0.000 C 
HETATM   21  C   UNL     1     -46.821 -51.465  13.992  1.00  0.00     0.002 C 
HETATM   22  C   UNL     1     -45.755 -51.600  12.898  1.00  0.00     0.025 C 
ENDBRANCH   4  15
TORSDOF 4
ENDMDL
MODEL 7
REMARK VINA RESULT:      -5.6      2.402      3.175
REMARK  4 active torsions:
REMARK  status: ('A' for Active; 'I' for Inactive)
REMARK       I    between atoms: C_2  and  N_3 
REMARK       I    between atoms: C_2  and  N_12 
REMARK    1  A    between atoms: N_3  and  C_4 
REMARK    2  A    between atoms: C_4  and  C_5 
REMARK    3  A    between atoms: C_5  and  N_6 
REMARK    4  A    between atoms: N_12  and  C_13 
ROOT
HETATM    1  O   UNL     1     -43.168 -49.549  13.504  1.00  0.00    -0.247 OA
HETATM    2  C   UNL     1     -42.871 -50.408  12.690  1.00  0.00     0.316 C 
HETATM    3  N   UNL     1     -41.898 -50.258  11.723  1.00  0.00    -0.342 N 
HETATM    4  N   UNL     1     -43.445 -51.645  12.597  1.00  0.00    -0.339 N 
HETATM    5  H   UNL     1     -41.438 -51.120  11.475  1.00  0.00     0.164 HD
HETATM    6  H   UNL     1     -43.287 -52.141  11.733  1.00  0.00     0.164 HD
ENDROOT
BRANCH   3   7
HETATM    7  C   UNL     1     -41.111 -49.033  11.677  1.00  0.00     0.144 C 
BRANCH   7   8
HETATM    8  C   UNL     1     -41.495 -48.158  10.487  1.00  0.00     0.149 C 
BRANCH   8   9
HETATM    9  N   UNL     1     -41.313 -46.748  10.751  1.00  0.00    -0.350 N 
HETATM   10  C   UNL     1     -42.294 -45.850  11.065  1.00  0.00     0.108 A 
HETATM   11  C   UNL     1     -41.631 -44.661  11.265  1.00  0.00     0.106 A 
HETATM   12  N   UNL     1     -40.281 -44.821  11.089  1.00  0.00    -0.361 N 
HETATM   13  C   UNL     1     -40.119 -46.088  10.781  1.00  0.00     0.182 A 
ATOM     14  HN  UNL     1     -39.556 -44.108  11.178  1.00  0.00     0.166 HD
ENDBRANCH   8   9
ENDBRANCH   7   8
ENDBRANCH   3   7
BRANCH   4  15
HETATM   15  C   UNL     1     -44.528 -52.147  13.441  1.00  0.00     0.086 C 
HETATM   16  C   UNL     1     -44.620 -53.678  13.438  1.00  0.00     0.025 C 
HETATM   17  C   UNL     1     -45.426 -54.311  14.582  1.00  0.00     0.002 C 
HETATM   18  C   UNL     1     -45.193 -53.693  15.962  1.00  0.00     0.000 C 
HETATM   19  C   UNL     1     -46.266 -52.702  16.429  1.00  0.00     0.000 C 
HETATM   20  C   UNL     1     -46.453 -51.395  15.648  1.00  0.00     0.000 C 
HETATM   21  C   UNL     1     -46.943 -51.556  14.206  1.00  0.00     0.002 C 
HETATM   22  C   UNL     1     -45.856 -51.445  13.131  1.00  0.00     0.025 C 
ENDBRANCH   4  15
TORSDOF 4
ENDMDL
MODEL 8
REMARK VINA RESULT:      -5.5      2.508      3.860
REMARK  4 active torsions:
REMARK  status: ('A' for Active; 'I' for Inactive)
REMARK       I    between atoms: C_2  and  N_3 
REMARK       I    between atoms: C_2  and  N_12 
REMARK    1  A    between atoms: N_3  and  C_4 
REMARK    2  A    between atoms: C_4  and  C_5 
REMARK    3  A    between atoms: C_5  and  N_6 
REMARK    4  A    between atoms: N_12  and  C_13 
ROOT
HETATM    1  O   UNL     1     -42.912 -49.841  14.079  1.00  0.00    -0.247 OA
HETATM    2  C   UNL     1     -43.518 -49.796  13.022  1.00  0.00     0.316 C 
HETATM    3  N   UNL     1     -43.312 -48.840  12.048  1.00  0.00    -0.342 N 
HETATM    4  N   UNL     1     -44.494 -50.669  12.630  1.00  0.00    -0.339 N 
HETATM    5  H   UNL     1     -43.483 -49.173  11.112  1.00  0.00     0.164 HD
HETATM    6  H   UNL     1     -45.077 -50.366  11.865  1.00  0.00     0.164 HD
ENDROOT
BRANCH   3   7
HETATM    7  C   UNL     1     -42.269 -47.840  12.230  1.00  0.00     0.144 C 
BRANCH   7   8
HETATM    8  C   UNL     1     -41.189 -47.946  11.159  1.00  0.00     0.149 C 
BRANCH   8   9
HETATM    9  N   UNL     1     -40.121 -48.848  11.530  1.00  0.00    -0.350 N 
HETATM   10  C   UNL     1     -39.024 -48.538  12.284  1.00  0.00     0.108 A 
HETATM   11  C   UNL     1     -38.332 -49.721  12.399  1.00  0.00     0.106 A 
HETATM   12  N   UNL     1     -38.984 -50.734  11.744  1.00  0.00    -0.361 N 
HETATM   13  C   UNL     1     -40.059 -50.178  11.231  1.00  0.00     0.182 A 
ATOM     14  HN  UNL     1     -38.697 -51.710  11.670  1.00  0.00     0.166 HD
ENDBRANCH   8   9
ENDBRANCH   7   8
ENDBRANCH   3   7
BRANCH   4  15
HETATM   15  C   UNL     1     -44.995 -51.796  13.416  1.00  0.00     0.086 C 
HETATM   16  C   UNL     1     -44.923 -53.127  12.655  1.00  0.00     0.025 C 
HETATM   17  C   UNL     1     -45.026 -54.400  13.507  1.00  0.00     0.002 C 
HETATM   18  C   UNL     1     -44.234 -54.375  14.816  1.00  0.00     0.000 C 
HETATM   19  C   UNL     1     -45.054 -54.071  16.075  1.00  0.00     0.000 C 
HETATM   20  C   UNL     1     -45.717 -52.694  16.211  1.00  0.00     0.000 C 
HETATM   21  C   UNL     1     -46.810 -52.389  15.182  1.00  0.00     0.002 C 
HETATM   22  C   UNL     1     -46.374 -51.497  14.014  1.00  0.00     0.025 C 
ENDBRANCH   4  15
TORSDOF 4
ENDMDL
MODEL 9
REMARK VINA RESULT:      -5.5      4.504      7.462
REMARK  4 active torsions:
REMARK  status: ('A' for Active; 'I' for Inactive)
REMARK       I    between atoms: C_2  and  N_3 
REMARK       I    between atoms: C_2  and  N_12 
REMARK    1  A    between atoms: N_3  and  C_4 
REMARK    2  A    between atoms: C_4  and  C_5 
REMARK    3  A    between atoms: C_5  and  N_6 
REMARK    4  A    between atoms: N_12  and  C_13 
ROOT
HETATM    1  O   UNL     1     -41.995 -52.929  14.888  1.00  0.00    -0.247 OA
HETATM    2  C   UNL     1     -41.986 -53.518  13.820  1.00  0.00     0.316 C 
HETATM    3  N   UNL     1     -40.841 -53.922  13.164  1.00  0.00    -0.342 N 
HETATM    4  N   UNL     1     -43.093 -53.869  13.100  1.00  0.00    -0.339 N 
HETATM    5  H   UNL     1     -40.963 -54.758  12.615  1.00  0.00     0.164 HD
HETATM    6  H   UNL     1     -42.933 -54.114  12.134  1.00  0.00     0.164 HD
ENDROOT
BRANCH   3   7
HETATM    7  C   UNL     1     -39.541 -53.703  13.785  1.00  0.00     0.144 C 
BRANCH   7   8
HETATM    8  C   UNL     1     -38.981 -54.984  14.394  1.00  0.00     0.149 C 
BRANCH   8   9
HETATM    9  N   UNL     1     -38.599 -54.823  15.779  1.00  0.00    -0.350 N 
HETATM   10  C   UNL     1     -37.924 -55.732  16.545  1.00  0.00     0.108 A 
HETATM   11  C   UNL     1     -37.759 -55.112  17.762  1.00  0.00     0.106 A 
HETATM   12  N   UNL     1     -38.308 -53.855  17.747  1.00  0.00    -0.361 N 
HETATM   13  C   UNL     1     -38.805 -53.708  16.539  1.00  0.00     0.182 A 
ATOM     14  HN  UNL     1     -38.326 -53.179  18.510  1.00  0.00     0.166 HD
ENDBRANCH   8   9
ENDBRANCH   7   8
ENDBRANCH   3   7
BRANCH   4  15
HETATM   15  C   UNL     1     -44.478 -53.584  13.472  1.00  0.00     0.086 C 
HETATM   16  C   UNL     1     -45.228 -54.829  13.963  1.00  0.00     0.025 C 
HETATM   17  C   UNL     1     -46.520 -54.573  14.753  1.00  0.00     0.002 C 
HETATM   18  C   UNL     1     -46.447 -53.435  15.772  1.00  0.00     0.000 C 
HETATM   19  C   UNL     1     -47.058 -52.105  15.317  1.00  0.00     0.000 C 
HETATM   20  C   UNL     1     -46.420 -51.363  14.136  1.00  0.00     0.000 C 
HETATM   21  C   UNL     1     -46.494 -52.088  12.789  1.00  0.00     0.002 C 
HETATM   22  C   UNL     1     -45.211 -52.813  12.367  1.00  0.00     0.025 C 
ENDBRANCH   4  15
TORSDOF 4
ENDMDL
