MODEL 1
REMARK VINA RESULT:      -5.2      0.000      0.000
REMARK  4 active torsions:
REMARK  status: ('A' for Active; 'I' for Inactive)
REMARK    1  A    between atoms: C_2  and  C_3 
REMARK    2  A    between atoms: C_3  and  N_5 
REMARK       I    between atoms: N_5  and  C_6 
REMARK    3  A    between atoms: C_6  and  C_8 
REMARK    4  A    between atoms: C_8  and  N_9 
ROOT
HETATM    1  N   UNL     1     -44.023 -54.237  13.625  1.00  0.00    -0.301 N 
HETATM    2  C   UNL     1     -42.802 -54.543  14.193  1.00  0.00     0.102 A 
HETATM    3  C   UNL     1     -41.656 -54.080  13.691  1.00  0.00     0.092 A 
HETATM    4  C   UNL     1     -41.701 -53.225  12.495  1.00  0.00     0.250 A 
HETATM    5  O   UNL     1     -40.672 -52.807  11.976  1.00  0.00    -0.268 OA
HETATM    6  N   UNL     1     -42.946 -52.934  12.016  1.00  0.00    -0.275 N 
HETATM    7  C   UNL     1     -44.132 -53.386  12.536  1.00  0.00     0.329 A 
HETATM    8  O   UNL     1     -45.206 -53.044  12.044  1.00  0.00    -0.246 OA
HETATM    9  H   UNL     1     -42.997 -52.340  11.206  1.00  0.00     0.173 HD
ENDROOT
BRANCH   1  10
HETATM   10  C   UNL     1     -45.248 -54.794  14.196  1.00  0.00     0.235 C 
BRANCH  10  11
HETATM   11  C   UNL     1     -45.665 -54.038  15.455  1.00  0.00     0.236 C 
HETATM   12  N   UNL     1     -45.728 -52.666  15.312  1.00  0.00    -0.355 N 
HETATM   13  H   UNL     1     -45.487 -52.256  14.415  1.00  0.00     0.162 HD
HETATM   14  O   UNL     1     -45.862 -54.617  16.521  1.00  0.00    -0.272 OA
BRANCH  12  15
HETATM   15  C   UNL     1     -46.110 -51.791  16.414  1.00  0.00     0.080 C 
HETATM   16  C   UNL     1     -47.582 -51.396  16.287  1.00  0.00     0.032 C 
BRANCH  15  17
HETATM   17  C   UNL     1     -45.227 -50.535  16.464  1.00  0.00     0.020 C 
HETATM   18  C   UNL     1     -44.203 -50.487  15.338  1.00  0.00     0.007 C 
ENDBRANCH  15  17
ENDBRANCH  12  15
ENDBRANCH  10  11
ENDBRANCH   1  10
TORSDOF 4
ENDMDL
MODEL 2
REMARK VINA RESULT:      -4.8      2.121      2.888
REMARK  4 active torsions:
REMARK  status: ('A' for Active; 'I' for Inactive)
REMARK    1  A    between atoms: C_2  and  C_3 
REMARK    2  A    between atoms: C_3  and  N_5 
REMARK       I    between atoms: N_5  and  C_6 
REMARK    3  A    between atoms: C_6  and  C_8 
REMARK    4  A    between atoms: C_8  and  N_9 
ROOT
HETATM    1  N   UNL     1     -42.257 -54.054  14.646  1.00  0.00    -0.301 N 
HETATM    2  C   UNL     1     -41.936 -54.304  13.327  1.00  0.00     0.102 A 
HETATM    3  C   UNL     1     -40.953 -53.651  12.705  1.00  0.00     0.092 A 
HETATM    4  C   UNL     1     -40.197 -52.632  13.450  1.00  0.00     0.250 A 
HETATM    5  O   UNL     1     -39.311 -51.980  12.910  1.00  0.00    -0.268 OA
HETATM    6  N   UNL     1     -40.545 -52.471  14.760  1.00  0.00    -0.275 N 
HETATM    7  C   UNL     1     -41.538 -53.151  15.417  1.00  0.00     0.329 A 
HETATM    8  O   UNL     1     -41.758 -52.950  16.610  1.00  0.00    -0.246 OA
HETATM    9  H   UNL     1     -40.030 -51.788  15.290  1.00  0.00     0.173 HD
ENDROOT
BRANCH   1  10
HETATM   10  C   UNL     1     -43.362 -54.776  15.274  1.00  0.00     0.235 C 
BRANCH  10  11
HETATM   11  C   UNL     1     -44.685 -54.483  14.571  1.00  0.00     0.236 C 
HETATM   12  N   UNL     1     -45.040 -53.149  14.537  1.00  0.00    -0.355 N 
HETATM   13  H   UNL     1     -44.428 -52.469  14.979  1.00  0.00     0.162 HD
HETATM   14  O   UNL     1     -45.397 -55.384  14.132  1.00  0.00    -0.272 OA
BRANCH  12  15
HETATM   15  C   UNL     1     -46.271 -52.692  13.904  1.00  0.00     0.080 C 
HETATM   16  C   UNL     1     -46.031 -52.420  12.418  1.00  0.00     0.032 C 
BRANCH  15  17
HETATM   17  C   UNL     1     -46.820 -51.433  14.591  1.00  0.00     0.020 C 
HETATM   18  C   UNL     1     -47.195 -51.671  16.048  1.00  0.00     0.007 C 
ENDBRANCH  15  17
ENDBRANCH  12  15
ENDBRANCH  10  11
ENDBRANCH   1  10
TORSDOF 4
ENDMDL
MODEL 3
REMARK VINA RESULT:      -4.8      2.820      5.749
REMARK  4 active torsions:
REMARK  status: ('A' for Active; 'I' for Inactive)
REMARK    1  A    between atoms: C_2  and  C_3 
REMARK    2  A    between atoms: C_3  and  N_5 
REMARK       I    between atoms: N_5  and  C_6 
REMARK    3  A    between atoms: C_6  and  C_8 
REMARK    4  A    between atoms: C_8  and  N_9 
ROOT
HETATM    1  N   UNL     1     -42.418 -53.902  13.249  1.00  0.00    -0.301 N 
HETATM    2  C   UNL     1     -43.550 -53.545  12.544  1.00  0.00     0.102 A 
HETATM    3  C   UNL     1     -44.773 -53.882  12.958  1.00  0.00     0.092 A 
HETATM    4  C   UNL     1     -44.912 -54.660  14.198  1.00  0.00     0.250 A 
HETATM    5  O   UNL     1     -46.012 -55.025  14.598  1.00  0.00    -0.268 OA
HETATM    6  N   UNL     1     -43.751 -54.939  14.860  1.00  0.00    -0.275 N 
HETATM    7  C   UNL     1     -42.490 -54.580  14.457  1.00  0.00     0.329 A 
HETATM    8  O   UNL     1     -41.507 -54.859  15.141  1.00  0.00    -0.246 OA
HETATM    9  H   UNL     1     -43.827 -55.459  15.718  1.00  0.00     0.173 HD
ENDROOT
BRANCH   1  10
HETATM   10  C   UNL     1     -41.099 -53.534  12.738  1.00  0.00     0.235 C 
BRANCH  10  11
HETATM   11  C   UNL     1     -40.809 -52.054  12.971  1.00  0.00     0.236 C 
HETATM   12  N   UNL     1     -40.113 -51.433  11.953  1.00  0.00    -0.355 N 
HETATM   13  H   UNL     1     -39.834 -51.982  11.145  1.00  0.00     0.162 HD
HETATM   14  O   UNL     1     -41.121 -51.490  14.018  1.00  0.00    -0.272 OA
BRANCH  12  15
HETATM   15  C   UNL     1     -39.753 -50.021  12.010  1.00  0.00     0.080 C 
HETATM   16  C   UNL     1     -40.727 -49.193  11.170  1.00  0.00     0.032 C 
BRANCH  15  17
HETATM   17  C   UNL     1     -38.312 -49.790  11.533  1.00  0.00     0.020 C 
HETATM   18  C   UNL     1     -37.322 -50.773  12.145  1.00  0.00     0.007 C 
ENDBRANCH  15  17
ENDBRANCH  12  15
ENDBRANCH  10  11
ENDBRANCH   1  10
TORSDOF 4
ENDMDL
MODEL 4
REMARK VINA RESULT:      -4.7      2.739      4.299
REMARK  4 active torsions:
REMARK  status: ('A' for Active; 'I' for Inactive)
REMARK    1  A    between atoms: C_2  and  C_3 
REMARK    2  A    between atoms: C_3  and  N_5 
REMARK       I    between atoms: N_5  and  C_6 
REMARK    3  A    between atoms: C_6  and  C_8 
REMARK    4  A    between atoms: C_8  and  N_9 
ROOT
HETATM    1  N   UNL     1     -40.785 -52.891  14.462  1.00  0.00    -0.301 N 
HETATM    2  C   UNL     1     -41.170 -53.733  15.485  1.00  0.00     0.102 A 
HETATM    3  C   UNL     1     -40.427 -54.778  15.854  1.00  0.00     0.092 A 
HETATM    4  C   UNL     1     -39.166 -55.037  15.143  1.00  0.00     0.250 A 
HETATM    5  O   UNL     1     -38.469 -56.006  15.421  1.00  0.00    -0.268 OA
HETATM    6  N   UNL     1     -38.834 -54.137  14.172  1.00  0.00    -0.275 N 
HETATM    7  C   UNL     1     -39.578 -53.047  13.798  1.00  0.00     0.329 A 
HETATM    8  O   UNL     1     -39.176 -52.279  12.925  1.00  0.00    -0.246 OA
HETATM    9  H   UNL     1     -37.968 -54.290  13.683  1.00  0.00     0.173 HD
ENDROOT
BRANCH   1  10
HETATM   10  C   UNL     1     -41.650 -51.776  14.076  1.00  0.00     0.235 C 
BRANCH  10  11
HETATM   11  C   UNL     1     -42.819 -52.254  13.219  1.00  0.00     0.236 C 
HETATM   12  N   UNL     1     -44.040 -52.272  13.863  1.00  0.00    -0.355 N 
HETATM   13  H   UNL     1     -44.083 -51.990  14.838  1.00  0.00     0.162 HD
HETATM   14  O   UNL     1     -42.656 -52.650  12.066  1.00  0.00    -0.272 OA
BRANCH  12  15
HETATM   15  C   UNL     1     -45.262 -52.699  13.192  1.00  0.00     0.080 C 
HETATM   16  C   UNL     1     -46.227 -51.521  13.052  1.00  0.00     0.032 C 
BRANCH  15  17
HETATM   17  C   UNL     1     -45.940 -53.853  13.945  1.00  0.00     0.020 C 
HETATM   18  C   UNL     1     -45.134 -55.145  13.896  1.00  0.00     0.007 C 
ENDBRANCH  15  17
ENDBRANCH  12  15
ENDBRANCH  10  11
ENDBRANCH   1  10
TORSDOF 4
ENDMDL
MODEL 5
REMARK VINA RESULT:      -4.7      1.752      5.294
REMARK  4 active torsions:
REMARK  status: ('A' for Active; 'I' for Inactive)
REMARK    1  A    between atoms: C_2  and  C_3 
REMARK    2  A    between atoms: C_3  and  N_5 
REMARK       I    between atoms: N_5  and  C_6 
REMARK    3  A    between atoms: C_6  and  C_8 
REMARK    4  A    between atoms: C_8  and  N_9 
ROOT
HETATM    1  N   UNL     1     -46.117 -53.627  15.118  1.00  0.00    -0.301 N 
HETATM    2  C   UNL     1     -46.583 -52.493  14.483  1.00  0.00     0.102 A 
HETATM    3  C   UNL     1     -47.034 -51.439  15.165  1.00  0.00     0.092 A 
HETATM    4  C   UNL     1     -47.036 -51.495  16.636  1.00  0.00     0.250 A 
HETATM    5  O   UNL     1     -47.475 -50.566  17.304  1.00  0.00    -0.268 OA
HETATM    6  N   UNL     1     -46.522 -52.631  17.189  1.00  0.00    -0.275 N 
HETATM    7  C   UNL     1     -46.036 -53.712  16.500  1.00  0.00     0.329 A 
HETATM    8  O   UNL     1     -45.568 -54.682  17.095  1.00  0.00    -0.246 OA
HETATM    9  H   UNL     1     -46.502 -52.683  18.194  1.00  0.00     0.173 HD
ENDROOT
BRANCH   1  10
HETATM   10  C   UNL     1     -45.661 -54.766  14.324  1.00  0.00     0.235 C 
BRANCH  10  11
HETATM   11  C   UNL     1     -44.493 -54.380  13.421  1.00  0.00     0.236 C 
HETATM   12  N   UNL     1     -43.309 -54.126  14.081  1.00  0.00    -0.355 N 
HETATM   13  H   UNL     1     -43.289 -54.195  15.095  1.00  0.00     0.162 HD
HETATM   14  O   UNL     1     -44.632 -54.247  12.206  1.00  0.00    -0.272 OA
BRANCH  12  15
HETATM   15  C   UNL     1     -42.093 -53.746  13.373  1.00  0.00     0.080 C 
HETATM   16  C   UNL     1     -40.863 -54.267  14.116  1.00  0.00     0.032 C 
BRANCH  15  17
HETATM   17  C   UNL     1     -42.000 -52.223  13.197  1.00  0.00     0.020 C 
HETATM   18  C   UNL     1     -41.157 -51.817  11.995  1.00  0.00     0.007 C 
ENDBRANCH  15  17
ENDBRANCH  12  15
ENDBRANCH  10  11
ENDBRANCH   1  10
TORSDOF 4
ENDMDL
MODEL 6
REMARK VINA RESULT:      -4.7      2.386      4.676
REMARK  4 active torsions:
REMARK  status: ('A' for Active; 'I' for Inactive)
REMARK    1  A    between atoms: C_2  and  C_3 
REMARK    2  A    between atoms: C_3  and  N_5 
REMARK       I    between atoms: N_5  and  C_6 
REMARK    3  A    between atoms: C_6  and  C_8 
REMARK    4  A    between atoms: C_8  and  N_9 
ROOT
HETATM    1  N   UNL     1     -45.048 -53.124  14.949  1.00  0.00    -0.301 N 
HETATM    2  C   UNL     1     -44.742 -51.842  14.541  1.00  0.00     0.102 A 
HETATM    3  C   UNL     1     -45.369 -51.259  13.519  1.00  0.00     0.092 A 
HETATM    4  C   UNL     1     -46.413 -52.012  12.806  1.00  0.00     0.250 A 
HETATM    5  O   UNL     1     -46.990 -51.533  11.837  1.00  0.00    -0.268 OA
HETATM    6  N   UNL     1     -46.688 -53.257  13.294  1.00  0.00    -0.275 N 
HETATM    7  C   UNL     1     -46.066 -53.859  14.357  1.00  0.00     0.329 A 
HETATM    8  O   UNL     1     -46.406 -54.979  14.736  1.00  0.00    -0.246 OA
HETATM    9  H   UNL     1     -47.408 -53.782  12.827  1.00  0.00     0.173 HD
ENDROOT
BRANCH   1  10
HETATM   10  C   UNL     1     -44.311 -53.729  16.057  1.00  0.00     0.235 C 
BRANCH  10  11
HETATM   11  C   UNL     1     -43.125 -54.546  15.552  1.00  0.00     0.236 C 
HETATM   12  N   UNL     1     -42.022 -53.801  15.186  1.00  0.00    -0.355 N 
HETATM   13  H   UNL     1     -42.069 -52.789  15.259  1.00  0.00     0.162 HD
HETATM   14  O   UNL     1     -43.188 -55.768  15.427  1.00  0.00    -0.272 OA
BRANCH  12  15
HETATM   15  C   UNL     1     -40.802 -54.421  14.683  1.00  0.00     0.080 C 
HETATM   16  C   UNL     1     -39.589 -53.900  15.456  1.00  0.00     0.032 C 
BRANCH  15  17
HETATM   17  C   UNL     1     -40.623 -54.166  13.179  1.00  0.00     0.020 C 
HETATM   18  C   UNL     1     -41.332 -52.904  12.705  1.00  0.00     0.007 C 
ENDBRANCH  15  17
ENDBRANCH  12  15
ENDBRANCH  10  11
ENDBRANCH   1  10
TORSDOF 4
ENDMDL
MODEL 7
REMARK VINA RESULT:      -4.7      2.902      5.204
REMARK  4 active torsions:
REMARK  status: ('A' for Active; 'I' for Inactive)
REMARK    1  A    between atoms: C_2  and  C_3 
REMARK    2  A    between atoms: C_3  and  N_5 
REMARK       I    between atoms: N_5  and  C_6 
REMARK    3  A    between atoms: C_6  and  C_8 
REMARK    4  A    between atoms: C_8  and  N_9 
ROOT
HETATM    1  N   UNL     1     -42.604 -53.442  12.904  1.00  0.00    -0.301 N 
HETATM    2  C   UNL     1     -43.857 -53.187  12.384  1.00  0.00     0.102 A 
HETATM    3  C   UNL     1     -44.954 -53.764  12.877  1.00  0.00     0.092 A 
HETATM    4  C   UNL     1     -44.818 -54.701  14.002  1.00  0.00     0.250 A 
HETATM    5  O   UNL     1     -45.793 -55.284  14.463  1.00  0.00    -0.268 OA
HETATM    6  N   UNL     1     -43.553 -54.870  14.488  1.00  0.00    -0.275 N 
HETATM    7  C   UNL     1     -42.420 -54.266  14.005  1.00  0.00     0.329 A 
HETATM    8  O   UNL     1     -41.327 -54.466  14.531  1.00  0.00    -0.246 OA
HETATM    9  H   UNL     1     -43.442 -55.497  15.266  1.00  0.00     0.173 HD
ENDROOT
BRANCH   1  10
HETATM   10  C   UNL     1     -41.429 -52.807  12.310  1.00  0.00     0.235 C 
BRANCH  10  11
HETATM   11  C   UNL     1     -41.363 -51.324  12.664  1.00  0.00     0.236 C 
HETATM   12  N   UNL     1     -41.785 -50.470  11.666  1.00  0.00    -0.355 N 
HETATM   13  H   UNL     1     -42.090 -50.865  10.781  1.00  0.00     0.162 HD
HETATM   14  O   UNL     1     -40.904 -50.936  13.737  1.00  0.00    -0.272 OA
BRANCH  12  15
HETATM   15  C   UNL     1     -41.789 -49.022  11.836  1.00  0.00     0.080 C 
HETATM   16  C   UNL     1     -43.142 -48.558  12.378  1.00  0.00     0.032 C 
BRANCH  15  17
HETATM   17  C   UNL     1     -41.470 -48.302  10.517  1.00  0.00     0.020 C 
HETATM   18  C   UNL     1     -42.712 -47.751   9.830  1.00  0.00     0.007 C 
ENDBRANCH  15  17
ENDBRANCH  12  15
ENDBRANCH  10  11
ENDBRANCH   1  10
TORSDOF 4
ENDMDL
MODEL 8
REMARK VINA RESULT:      -4.7      5.399      6.957
REMARK  4 active torsions:
REMARK  status: ('A' for Active; 'I' for Inactive)
REMARK    1  A    between atoms: C_2  and  C_3 
REMARK    2  A    between atoms: C_3  and  N_5 
REMARK       I    between atoms: N_5  and  C_6 
REMARK    3  A    between atoms: C_6  and  C_8 
REMARK    4  A    between atoms: C_8  and  N_9 
ROOT
HETATM    1  N   UNL     1     -41.611 -49.132  12.530  1.00  0.00    -0.301 N 
HETATM    2  C   UNL     1     -41.806 -50.443  12.145  1.00  0.00     0.102 A 
HETATM    3  C   UNL     1     -40.841 -51.358  12.250  1.00  0.00     0.092 A 
HETATM    4  C   UNL     1     -39.533 -50.950  12.787  1.00  0.00     0.250 A 
HETATM    5  O   UNL     1     -38.604 -51.747  12.867  1.00  0.00    -0.268 OA
HETATM    6  N   UNL     1     -39.432 -49.648  13.184  1.00  0.00    -0.275 N 
HETATM    7  C   UNL     1     -40.422 -48.704  13.102  1.00  0.00     0.329 A 
HETATM    8  O   UNL     1     -40.238 -47.559  13.512  1.00  0.00    -0.246 OA
HETATM    9  H   UNL     1     -38.549 -49.354  13.566  1.00  0.00     0.173 HD
ENDROOT
BRANCH   1  10
HETATM   10  C   UNL     1     -42.692 -48.161  12.367  1.00  0.00     0.235 C 
BRANCH  10  11
HETATM   11  C   UNL     1     -42.849 -47.747  10.907  1.00  0.00     0.236 C 
HETATM   12  N   UNL     1     -44.138 -47.823  10.418  1.00  0.00    -0.355 N 
HETATM   13  H   UNL     1     -44.876 -48.151  11.034  1.00  0.00     0.162 HD
HETATM   14  O   UNL     1     -41.881 -47.435  10.215  1.00  0.00    -0.272 OA
BRANCH  12  15
HETATM   15  C   UNL     1     -44.467 -47.463   9.044  1.00  0.00     0.080 C 
HETATM   16  C   UNL     1     -44.457 -45.943   8.879  1.00  0.00     0.032 C 
BRANCH  15  17
HETATM   17  C   UNL     1     -45.831 -48.034   8.628  1.00  0.00     0.020 C 
HETATM   18  C   UNL     1     -46.996 -47.154   9.061  1.00  0.00     0.007 C 
ENDBRANCH  15  17
ENDBRANCH  12  15
ENDBRANCH  10  11
ENDBRANCH   1  10
TORSDOF 4
ENDMDL
MODEL 9
REMARK VINA RESULT:      -4.5      6.953      8.437
REMARK  4 active torsions:
REMARK  status: ('A' for Active; 'I' for Inactive)
REMARK    1  A    between atoms: C_2  and  C_3 
REMARK    2  A    between atoms: C_3  and  N_5 
REMARK       I    between atoms: N_5  and  C_6 
REMARK    3  A    between atoms: C_6  and  C_8 
REMARK    4  A    between atoms: C_8  and  N_9 
ROOT
HETATM    1  N   UNL     1     -41.938 -46.391  11.517  1.00  0.00    -0.301 N 
HETATM    2  C   UNL     1     -42.924 -47.342  11.688  1.00  0.00     0.102 A 
HETATM    3  C   UNL     1     -43.645 -47.800  10.664  1.00  0.00     0.092 A 
HETATM    4  C   UNL     1     -43.381 -47.270   9.317  1.00  0.00     0.250 A 
HETATM    5  O   UNL     1     -44.044 -47.633   8.352  1.00  0.00    -0.268 OA
HETATM    6  N   UNL     1     -42.364 -46.364   9.223  1.00  0.00    -0.275 N 
HETATM    7  C   UNL     1     -41.601 -45.902  10.264  1.00  0.00     0.329 A 
HETATM    8  O   UNL     1     -40.687 -45.101  10.069  1.00  0.00    -0.246 OA
HETATM    9  H   UNL     1     -42.159 -46.000   8.308  1.00  0.00     0.173 HD
ENDROOT
BRANCH   1  10
HETATM   10  C   UNL     1     -41.195 -45.900  12.677  1.00  0.00     0.235 C 
BRANCH  10  11
HETATM   11  C   UNL     1     -40.470 -47.037  13.391  1.00  0.00     0.236 C 
HETATM   12  N   UNL     1     -39.366 -47.530  12.726  1.00  0.00    -0.355 N 
HETATM   13  H   UNL     1     -39.119 -47.130  11.825  1.00  0.00     0.162 HD
HETATM   14  O   UNL     1     -40.889 -47.509  14.447  1.00  0.00    -0.272 OA
BRANCH  12  15
HETATM   15  C   UNL     1     -38.556 -48.615  13.266  1.00  0.00     0.080 C 
HETATM   16  C   UNL     1     -37.485 -48.058  14.204  1.00  0.00     0.032 C 
BRANCH  15  17
HETATM   17  C   UNL     1     -37.904 -49.439  12.146  1.00  0.00     0.020 C 
HETATM   18  C   UNL     1     -37.473 -50.825  12.606  1.00  0.00     0.007 C 
ENDBRANCH  15  17
ENDBRANCH  12  15
ENDBRANCH  10  11
ENDBRANCH   1  10
TORSDOF 4
ENDMDL
