MODEL 1
REMARK VINA RESULT:      -6.2      0.000      0.000
REMARK  2 active torsions:
REMARK  status: ('A' for Active; 'I' for Inactive)
REMARK    1  A    between atoms: C_6  and  N_7 
REMARK       I    between atoms: N_7  and  C_8 
REMARK       I    between atoms: C_8  and  N_10 
REMARK    2  A    between atoms: N_10  and  C_11 
ROOT
HETATM    1  N   UNL     1     -44.525 -50.733  12.636  1.00  0.00    -0.304 N 
HETATM    2  C   UNL     1     -43.517 -49.945  13.139  1.00  0.00     0.321 C 
HETATM    3  O   UNL     1     -43.039 -50.076  14.259  1.00  0.00    -0.247 OA
HETATM    4  N   UNL     1     -43.101 -48.947  12.268  1.00  0.00    -0.338 N 
HETATM    5  H   UNL     1     -44.535 -50.902  11.637  1.00  0.00     0.171 HD
HETATM    6  H   UNL     1     -43.812 -48.638  11.619  1.00  0.00     0.164 HD
ENDROOT
BRANCH   1   7
HETATM    7  C   UNL     1     -45.274 -51.627  13.395  1.00  0.00     0.105 A 
HETATM    8  C   UNL     1     -46.270 -51.281  14.223  1.00  0.00     0.037 A 
HETATM    9  C   UNL     1     -47.021 -52.261  14.964  1.00  0.00     0.020 A 
HETATM   10  C   UNL     1     -46.775 -53.562  14.797  1.00  0.00     0.094 A 
HETATM   11  N   UNL     1     -45.784 -53.993  13.934  1.00  0.00    -0.327 N 
HETATM   12  C   UNL     1     -45.550 -55.416  13.775  1.00  0.00     0.159 C 
HETATM   13  C   UNL     1     -44.954 -53.103  13.242  1.00  0.00     0.274 A 
HETATM   14  O   UNL     1     -44.009 -53.447  12.532  1.00  0.00    -0.266 OA
ENDBRANCH   1   7
BRANCH   4  15
HETATM   15  C   UNL     1     -42.196 -47.936  12.829  1.00  0.00     0.086 C 
HETATM   16  C   UNL     1     -42.673 -46.497  12.588  1.00  0.00     0.026 C 
HETATM   17  C   UNL     1     -41.999 -45.768  11.431  1.00  0.00     0.011 C 
HETATM   18  C   UNL     1     -40.463 -45.878  11.469  1.00  0.00    -0.048 C 
HETATM   19  C   UNL     1     -39.869 -45.117  10.270  1.00  0.00     0.015 C 
HETATM   20  C   UNL     1     -39.874 -45.258  12.753  1.00  0.00     0.015 C 
HETATM   21  C   UNL     1     -40.108 -47.369  11.358  1.00  0.00     0.011 C 
HETATM   22  C   UNL     1     -40.724 -48.232  12.460  1.00  0.00     0.026 C 
ENDBRANCH   4  15
TORSDOF 2
ENDMDL
MODEL 2
REMARK VINA RESULT:      -5.9      1.701      2.278
REMARK  2 active torsions:
REMARK  status: ('A' for Active; 'I' for Inactive)
REMARK    1  A    between atoms: C_6  and  N_7 
REMARK       I    between atoms: N_7  and  C_8 
REMARK       I    between atoms: C_8  and  N_10 
REMARK    2  A    between atoms: N_10  and  C_11 
ROOT
HETATM    1  N   UNL     1     -42.425 -51.958  12.235  1.00  0.00    -0.304 N 
HETATM    2  C   UNL     1     -42.333 -50.660  12.676  1.00  0.00     0.321 C 
HETATM    3  O   UNL     1     -42.306 -50.338  13.858  1.00  0.00    -0.247 OA
HETATM    4  N   UNL     1     -42.307 -49.722  11.654  1.00  0.00    -0.338 N 
HETATM    5  H   UNL     1     -41.978 -52.187  11.355  1.00  0.00     0.171 HD
HETATM    6  H   UNL     1     -42.775 -50.017  10.807  1.00  0.00     0.164 HD
ENDROOT
BRANCH   1   7
HETATM    7  C   UNL     1     -42.715 -53.046  13.053  1.00  0.00     0.105 A 
HETATM    8  C   UNL     1     -41.851 -53.612  13.908  1.00  0.00     0.037 A 
HETATM    9  C   UNL     1     -42.223 -54.725  14.742  1.00  0.00     0.020 A 
HETATM   10  C   UNL     1     -43.475 -55.189  14.725  1.00  0.00     0.094 A 
HETATM   11  N   UNL     1     -44.427 -54.631  13.891  1.00  0.00    -0.327 N 
HETATM   12  C   UNL     1     -45.778 -55.159  13.903  1.00  0.00     0.159 C 
HETATM   13  C   UNL     1     -44.124 -53.604  12.989  1.00  0.00     0.274 A 
HETATM   14  O   UNL     1     -44.923 -53.141  12.174  1.00  0.00    -0.266 OA
ENDBRANCH   1   7
BRANCH   4  15
HETATM   15  C   UNL     1     -42.441 -48.318  12.060  1.00  0.00     0.086 C 
HETATM   16  C   UNL     1     -43.019 -47.420  10.956  1.00  0.00     0.026 C 
HETATM   17  C   UNL     1     -41.997 -46.600  10.176  1.00  0.00     0.011 C 
HETATM   18  C   UNL     1     -41.014 -45.845  11.091  1.00  0.00    -0.048 C 
HETATM   19  C   UNL     1     -40.024 -45.047  10.223  1.00  0.00     0.015 C 
HETATM   20  C   UNL     1     -41.740 -44.843  12.012  1.00  0.00     0.015 C 
HETATM   21  C   UNL     1     -40.249 -46.898  11.908  1.00  0.00     0.011 C 
HETATM   22  C   UNL     1     -41.154 -47.804  12.744  1.00  0.00     0.026 C 
ENDBRANCH   4  15
TORSDOF 2
ENDMDL
MODEL 3
REMARK VINA RESULT:      -5.7      2.033      7.961
REMARK  2 active torsions:
REMARK  status: ('A' for Active; 'I' for Inactive)
REMARK    1  A    between atoms: C_6  and  N_7 
REMARK       I    between atoms: N_7  and  C_8 
REMARK       I    between atoms: C_8  and  N_10 
REMARK    2  A    between atoms: N_10  and  C_11 
ROOT
HETATM    1  N   UNL     1     -43.070 -48.263  12.024  1.00  0.00    -0.304 N 
HETATM    2  C   UNL     1     -42.718 -49.293  12.863  1.00  0.00     0.321 C 
HETATM    3  O   UNL     1     -41.767 -49.254  13.635  1.00  0.00    -0.247 OA
HETATM    4  N   UNL     1     -43.523 -50.417  12.738  1.00  0.00    -0.338 N 
HETATM    5  H   UNL     1     -44.052 -48.155  11.801  1.00  0.00     0.171 HD
HETATM    6  H   UNL     1     -43.942 -50.529  11.824  1.00  0.00     0.164 HD
ENDROOT
BRANCH   1   7
HETATM    7  C   UNL     1     -42.281 -47.143  11.783  1.00  0.00     0.105 A 
HETATM    8  C   UNL     1     -41.340 -47.060  10.831  1.00  0.00     0.037 A 
HETATM    9  C   UNL     1     -40.573 -45.860  10.621  1.00  0.00     0.020 A 
HETATM   10  C   UNL     1     -40.823 -44.766  11.345  1.00  0.00     0.094 A 
HETATM   11  N   UNL     1     -41.802 -44.771  12.322  1.00  0.00    -0.327 N 
HETATM   12  C   UNL     1     -42.050 -43.562  13.084  1.00  0.00     0.159 C 
HETATM   13  C   UNL     1     -42.533 -45.920  12.645  1.00  0.00     0.274 A 
HETATM   14  O   UNL     1     -43.352 -45.985  13.563  1.00  0.00    -0.266 OA
ENDBRANCH   1   7
BRANCH   4  15
HETATM   15  C   UNL     1     -43.062 -51.624  13.435  1.00  0.00     0.086 C 
HETATM   16  C   UNL     1     -42.889 -52.832  12.503  1.00  0.00     0.026 C 
HETATM   17  C   UNL     1     -44.032 -53.839  12.517  1.00  0.00     0.011 C 
HETATM   18  C   UNL     1     -44.448 -54.252  13.942  1.00  0.00    -0.048 C 
HETATM   19  C   UNL     1     -45.603 -55.267  13.861  1.00  0.00     0.015 C 
HETATM   20  C   UNL     1     -43.289 -54.926  14.706  1.00  0.00     0.015 C 
HETATM   21  C   UNL     1     -44.928 -52.984  14.664  1.00  0.00     0.011 C 
HETATM   22  C   UNL     1     -43.876 -51.875  14.724  1.00  0.00     0.026 C 
ENDBRANCH   4  15
TORSDOF 2
ENDMDL
MODEL 4
REMARK VINA RESULT:      -5.6      3.712      7.670
REMARK  2 active torsions:
REMARK  status: ('A' for Active; 'I' for Inactive)
REMARK    1  A    between atoms: C_6  and  N_7 
REMARK       I    between atoms: N_7  and  C_8 
REMARK       I    between atoms: C_8  and  N_10 
REMARK    2  A    between atoms: N_10  and  C_11 
ROOT
HETATM    1  N   UNL     1     -41.141 -49.463  10.912  1.00  0.00    -0.304 N 
HETATM    2  C   UNL     1     -41.679 -50.226  11.921  1.00  0.00     0.321 C 
HETATM    3  O   UNL     1     -42.686 -49.921  12.548  1.00  0.00    -0.247 OA
HETATM    4  N   UNL     1     -40.954 -51.377  12.200  1.00  0.00    -0.338 N 
HETATM    5  H   UNL     1     -40.660 -49.948  10.164  1.00  0.00     0.171 HD
HETATM    6  H   UNL     1     -39.969 -51.310  11.984  1.00  0.00     0.164 HD
ENDROOT
BRANCH   1   7
HETATM    7  C   UNL     1     -41.532 -48.161  10.619  1.00  0.00     0.105 A 
HETATM    8  C   UNL     1     -42.631 -47.830   9.925  1.00  0.00     0.037 A 
HETATM    9  C   UNL     1     -42.989 -46.458   9.676  1.00  0.00     0.020 A 
HETATM   10  C   UNL     1     -42.255 -45.467  10.187  1.00  0.00     0.094 A 
HETATM   11  N   UNL     1     -41.127 -45.736  10.941  1.00  0.00    -0.327 N 
HETATM   12  C   UNL     1     -40.357 -44.633  11.485  1.00  0.00     0.159 C 
HETATM   13  C   UNL     1     -40.664 -47.039  11.158  1.00  0.00     0.274 A 
HETATM   14  O   UNL     1     -39.620 -47.313  11.751  1.00  0.00    -0.266 OA
ENDBRANCH   1   7
BRANCH   4  15
HETATM   15  C   UNL     1     -41.344 -52.110  13.410  1.00  0.00     0.086 C 
HETATM   16  C   UNL     1     -40.492 -51.752  14.636  1.00  0.00     0.026 C 
HETATM   17  C   UNL     1     -39.381 -52.740  14.972  1.00  0.00     0.011 C 
HETATM   18  C   UNL     1     -39.870 -54.201  15.004  1.00  0.00    -0.048 C 
HETATM   19  C   UNL     1     -38.688 -55.125  15.351  1.00  0.00     0.015 C 
HETATM   20  C   UNL     1     -40.961 -54.418  16.073  1.00  0.00     0.015 C 
HETATM   21  C   UNL     1     -40.393 -54.539  13.600  1.00  0.00     0.011 C 
HETATM   22  C   UNL     1     -41.517 -53.619  13.124  1.00  0.00     0.026 C 
ENDBRANCH   4  15
TORSDOF 2
ENDMDL
MODEL 5
REMARK VINA RESULT:      -5.6      2.126      2.942
REMARK  2 active torsions:
REMARK  status: ('A' for Active; 'I' for Inactive)
REMARK    1  A    between atoms: C_6  and  N_7 
REMARK       I    between atoms: N_7  and  C_8 
REMARK       I    between atoms: C_8  and  N_10 
REMARK    2  A    between atoms: N_10  and  C_11 
ROOT
HETATM    1  N   UNL     1     -43.417 -52.201  12.405  1.00  0.00    -0.304 N 
HETATM    2  C   UNL     1     -42.131 -51.995  12.845  1.00  0.00     0.321 C 
HETATM    3  O   UNL     1     -41.614 -52.616  13.765  1.00  0.00    -0.247 OA
HETATM    4  N   UNL     1     -41.465 -50.982  12.169  1.00  0.00    -0.338 N 
HETATM    5  H   UNL     1     -43.608 -52.041  11.423  1.00  0.00     0.171 HD
HETATM    6  H   UNL     1     -42.071 -50.267  11.789  1.00  0.00     0.164 HD
ENDROOT
BRANCH   1   7
HETATM    7  C   UNL     1     -44.360 -52.974  13.074  1.00  0.00     0.105 A 
HETATM    8  C   UNL     1     -44.442 -54.311  13.005  1.00  0.00     0.037 A 
HETATM    9  C   UNL     1     -45.432 -55.053  13.742  1.00  0.00     0.020 A 
HETATM   10  C   UNL     1     -46.267 -54.421  14.570  1.00  0.00     0.094 A 
HETATM   11  N   UNL     1     -46.217 -53.047  14.716  1.00  0.00    -0.327 N 
HETATM   12  C   UNL     1     -47.138 -52.396  15.629  1.00  0.00     0.159 C 
HETATM   13  C   UNL     1     -45.343 -52.245  13.972  1.00  0.00     0.274 A 
HETATM   14  O   UNL     1     -45.327 -51.014  14.014  1.00  0.00    -0.266 OA
ENDBRANCH   1   7
BRANCH   4  15
HETATM   15  C   UNL     1     -40.179 -50.560  12.740  1.00  0.00     0.086 C 
HETATM   16  C   UNL     1     -40.314 -49.918  14.128  1.00  0.00     0.026 C 
HETATM   17  C   UNL     1     -40.280 -48.395  14.151  1.00  0.00     0.011 C 
HETATM   18  C   UNL     1     -39.104 -47.810  13.346  1.00  0.00    -0.048 C 
HETATM   19  C   UNL     1     -39.147 -46.273  13.424  1.00  0.00     0.015 C 
HETATM   20  C   UNL     1     -37.741 -48.267  13.907  1.00  0.00     0.015 C 
HETATM   21  C   UNL     1     -39.282 -48.256  11.886  1.00  0.00     0.011 C 
HETATM   22  C   UNL     1     -39.338 -49.774  11.709  1.00  0.00     0.026 C 
ENDBRANCH   4  15
TORSDOF 2
ENDMDL
MODEL 6
REMARK VINA RESULT:      -5.3      2.911      8.141
REMARK  2 active torsions:
REMARK  status: ('A' for Active; 'I' for Inactive)
REMARK    1  A    between atoms: C_6  and  N_7 
REMARK       I    between atoms: N_7  and  C_8 
REMARK       I    between atoms: C_8  and  N_10 
REMARK    2  A    between atoms: N_10  and  C_11 
ROOT
HETATM    1  N   UNL     1     -40.174 -47.951  12.377  1.00  0.00    -0.304 N 
HETATM    2  C   UNL     1     -41.024 -48.921  11.901  1.00  0.00     0.321 C 
HETATM    3  O   UNL     1     -41.740 -48.782  10.917  1.00  0.00    -0.247 OA
HETATM    4  N   UNL     1     -41.029 -50.082  12.662  1.00  0.00    -0.338 N 
HETATM    5  H   UNL     1     -39.323 -48.257  12.833  1.00  0.00     0.171 HD
HETATM    6  H   UNL     1     -40.792 -49.943  13.635  1.00  0.00     0.164 HD
ENDROOT
BRANCH   1   7
HETATM    7  C   UNL     1     -40.173 -46.629  11.945  1.00  0.00     0.105 A 
HETATM    8  C   UNL     1     -39.737 -46.216  10.746  1.00  0.00     0.037 A 
HETATM    9  C   UNL     1     -39.785 -44.831  10.354  1.00  0.00     0.020 A 
HETATM   10  C   UNL     1     -40.326 -43.920  11.166  1.00  0.00     0.094 A 
HETATM   11  N   UNL     1     -40.825 -44.281  12.404  1.00  0.00    -0.327 N 
HETATM   12  C   UNL     1     -41.411 -43.264  13.257  1.00  0.00     0.159 C 
HETATM   13  C   UNL     1     -40.740 -45.590  12.894  1.00  0.00     0.274 A 
HETATM   14  O   UNL     1     -41.097 -45.931  14.023  1.00  0.00    -0.266 OA
ENDBRANCH   1   7
BRANCH   4  15
HETATM   15  C   UNL     1     -42.076 -51.061  12.343  1.00  0.00     0.086 C 
HETATM   16  C   UNL     1     -43.176 -51.140  13.411  1.00  0.00     0.026 C 
HETATM   17  C   UNL     1     -43.056 -52.302  14.390  1.00  0.00     0.011 C 
HETATM   18  C   UNL     1     -42.821 -53.653  13.688  1.00  0.00    -0.048 C 
HETATM   19  C   UNL     1     -42.714 -54.764  14.748  1.00  0.00     0.015 C 
HETATM   20  C   UNL     1     -43.986 -54.020  12.745  1.00  0.00     0.015 C 
HETATM   21  C   UNL     1     -41.496 -53.545  12.920  1.00  0.00     0.011 C 
HETATM   22  C   UNL     1     -41.469 -52.410  11.896  1.00  0.00     0.026 C 
ENDBRANCH   4  15
TORSDOF 2
ENDMDL
MODEL 7
REMARK VINA RESULT:      -5.2     16.270     17.962
REMARK  2 active torsions:
REMARK  status: ('A' for Active; 'I' for Inactive)
REMARK    1  A    between atoms: C_6  and  N_7 
REMARK       I    between atoms: N_7  and  C_8 
REMARK       I    between atoms: C_8  and  N_10 
REMARK    2  A    between atoms: N_10  and  C_11 
ROOT
HETATM    1  N   UNL     1     -47.819 -51.875  -1.554  1.00  0.00    -0.304 N 
HETATM    2  C   UNL     1     -48.496 -52.506  -2.570  1.00  0.00     0.321 C 
HETATM    3  O   UNL     1     -49.272 -51.941  -3.331  1.00  0.00    -0.247 OA
HETATM    4  N   UNL     1     -48.249 -53.870  -2.644  1.00  0.00    -0.338 N 
HETATM    5  H   UNL     1     -46.905 -52.234  -1.306  1.00  0.00     0.171 HD
HETATM    6  H   UNL     1     -47.997 -54.295  -1.762  1.00  0.00     0.164 HD
ENDROOT
BRANCH   1   7
HETATM    7  C   UNL     1     -48.085 -50.580  -1.121  1.00  0.00     0.105 A 
HETATM    8  C   UNL     1     -47.435 -49.484  -1.542  1.00  0.00     0.037 A 
HETATM    9  C   UNL     1     -47.775 -48.168  -1.067  1.00  0.00     0.020 A 
HETATM   10  C   UNL     1     -48.800 -47.999  -0.228  1.00  0.00     0.094 A 
HETATM   11  N   UNL     1     -49.534 -49.081   0.221  1.00  0.00    -0.327 N 
HETATM   12  C   UNL     1     -50.644 -48.859   1.128  1.00  0.00     0.159 C 
HETATM   13  C   UNL     1     -49.215 -50.400  -0.125  1.00  0.00     0.274 A 
HETATM   14  O   UNL     1     -49.793 -51.392   0.320  1.00  0.00    -0.266 OA
ENDBRANCH   1   7
BRANCH   4  15
HETATM   15  C   UNL     1     -49.111 -54.635  -3.554  1.00  0.00     0.086 C 
HETATM   16  C   UNL     1     -49.764 -55.855  -2.887  1.00  0.00     0.026 C 
HETATM   17  C   UNL     1     -49.090 -57.193  -3.166  1.00  0.00     0.011 C 
HETATM   18  C   UNL     1     -48.814 -57.422  -4.664  1.00  0.00    -0.048 C 
HETATM   19  C   UNL     1     -48.137 -58.791  -4.853  1.00  0.00     0.015 C 
HETATM   20  C   UNL     1     -50.116 -57.427  -5.494  1.00  0.00     0.015 C 
HETATM   21  C   UNL     1     -47.863 -56.309  -5.129  1.00  0.00     0.011 C 
HETATM   22  C   UNL     1     -48.410 -54.899  -4.905  1.00  0.00     0.026 C 
ENDBRANCH   4  15
TORSDOF 2
ENDMDL
MODEL 8
REMARK VINA RESULT:      -5.1      2.901      3.734
REMARK  2 active torsions:
REMARK  status: ('A' for Active; 'I' for Inactive)
REMARK    1  A    between atoms: C_6  and  N_7 
REMARK       I    between atoms: N_7  and  C_8 
REMARK       I    between atoms: C_8  and  N_10 
REMARK    2  A    between atoms: N_10  and  C_11 
ROOT
HETATM    1  N   UNL     1     -42.363 -50.482  12.999  1.00  0.00    -0.304 N 
HETATM    2  C   UNL     1     -41.660 -49.828  12.016  1.00  0.00     0.321 C 
HETATM    3  O   UNL     1     -40.821 -50.365  11.302  1.00  0.00    -0.247 OA
HETATM    4  N   UNL     1     -41.958 -48.476  11.918  1.00  0.00    -0.338 N 
HETATM    5  H   UNL     1     -43.304 -50.159  13.196  1.00  0.00     0.171 HD
HETATM    6  H   UNL     1     -42.275 -48.057  12.782  1.00  0.00     0.164 HD
ENDROOT
BRANCH   1   7
HETATM    7  C   UNL     1     -42.069 -51.762  13.456  1.00  0.00     0.105 A 
HETATM    8  C   UNL     1     -42.650 -52.886  13.010  1.00  0.00     0.037 A 
HETATM    9  C   UNL     1     -42.281 -54.184  13.512  1.00  0.00     0.020 A 
HETATM   10  C   UNL     1     -41.297 -54.306  14.406  1.00  0.00     0.094 A 
HETATM   11  N   UNL     1     -40.632 -53.192  14.884  1.00  0.00    -0.327 N 
HETATM   12  C   UNL     1     -39.564 -53.363  15.851  1.00  0.00     0.159 C 
HETATM   13  C   UNL     1     -40.986 -51.890  14.511  1.00  0.00     0.274 A 
HETATM   14  O   UNL     1     -40.474 -50.871  14.979  1.00  0.00    -0.266 OA
ENDBRANCH   1   7
BRANCH   4  15
HETATM   15  C   UNL     1     -41.081 -47.681  11.051  1.00  0.00     0.086 C 
HETATM   16  C   UNL     1     -39.828 -47.161  11.769  1.00  0.00     0.026 C 
HETATM   17  C   UNL     1     -39.891 -45.710  12.231  1.00  0.00     0.011 C 
HETATM   18  C   UNL     1     -40.373 -44.752  11.124  1.00  0.00    -0.048 C 
HETATM   19  C   UNL     1     -40.406 -43.314  11.675  1.00  0.00     0.015 C 
HETATM   20  C   UNL     1     -39.428 -44.762   9.905  1.00  0.00     0.015 C 
HETATM   21  C   UNL     1     -41.794 -45.184  10.731  1.00  0.00     0.011 C 
HETATM   22  C   UNL     1     -41.884 -46.632  10.248  1.00  0.00     0.026 C 
ENDBRANCH   4  15
TORSDOF 2
ENDMDL
MODEL 9
REMARK VINA RESULT:      -5.1     14.760     16.531
REMARK  2 active torsions:
REMARK  status: ('A' for Active; 'I' for Inactive)
REMARK    1  A    between atoms: C_6  and  N_7 
REMARK       I    between atoms: N_7  and  C_8 
REMARK       I    between atoms: C_8  and  N_10 
REMARK    2  A    between atoms: N_10  and  C_11 
ROOT
HETATM    1  N   UNL     1     -51.548 -47.621   1.957  1.00  0.00    -0.304 N 
HETATM    2  C   UNL     1     -51.555 -48.183   0.703  1.00  0.00     0.321 C 
HETATM    3  O   UNL     1     -51.594 -47.536  -0.337  1.00  0.00    -0.247 OA
HETATM    4  N   UNL     1     -51.546 -49.571   0.711  1.00  0.00    -0.338 N 
HETATM    5  H   UNL     1     -51.054 -48.116   2.690  1.00  0.00     0.171 HD
HETATM    6  H   UNL     1     -51.962 -49.984   1.535  1.00  0.00     0.164 HD
ENDROOT
BRANCH   1   7
HETATM    7  C   UNL     1     -51.802 -46.278   2.217  1.00  0.00     0.105 A 
HETATM    8  C   UNL     1     -53.024 -45.741   2.346  1.00  0.00     0.037 A 
HETATM    9  C   UNL     1     -53.216 -44.344   2.636  1.00  0.00     0.020 A 
HETATM   10  C   UNL     1     -52.163 -43.549   2.843  1.00  0.00     0.094 A 
HETATM   11  N   UNL     1     -50.874 -44.043   2.758  1.00  0.00    -0.327 N 
HETATM   12  C   UNL     1     -49.755 -43.151   2.994  1.00  0.00     0.159 C 
HETATM   13  C   UNL     1     -50.601 -45.368   2.397  1.00  0.00     0.274 A 
HETATM   14  O   UNL     1     -49.468 -45.821   2.230  1.00  0.00    -0.266 OA
ENDBRANCH   1   7
BRANCH   4  15
HETATM   15  C   UNL     1     -51.783 -50.227  -0.580  1.00  0.00     0.086 C 
HETATM   16  C   UNL     1     -53.253 -50.611  -0.804  1.00  0.00     0.026 C 
HETATM   17  C   UNL     1     -53.596 -52.072  -0.539  1.00  0.00     0.011 C 
HETATM   18  C   UNL     1     -52.623 -53.049  -1.227  1.00  0.00    -0.048 C 
HETATM   19  C   UNL     1     -53.043 -54.495  -0.907  1.00  0.00     0.015 C 
HETATM   20  C   UNL     1     -52.637 -52.888  -2.762  1.00  0.00     0.015 C 
HETATM   21  C   UNL     1     -51.224 -52.781  -0.653  1.00  0.00     0.011 C 
HETATM   22  C   UNL     1     -50.745 -51.342  -0.844  1.00  0.00     0.026 C 
ENDBRANCH   4  15
TORSDOF 2
ENDMDL
