MODEL 1
REMARK VINA RESULT:      -6.5      0.000      0.000
REMARK  4 active torsions:
REMARK  status: ('A' for Active; 'I' for Inactive)
REMARK    1  A    between atoms: C_5  and  N_6 
REMARK       I    between atoms: N_6  and  C_7 
REMARK       I    between atoms: C_7  and  N_9 
REMARK    2  A    between atoms: N_9  and  C_10 
REMARK    3  A    between atoms: C_10  and  C_11 
REMARK    4  A    between atoms: C_11  and  C_12 
ROOT
HETATM    1  N   UNL     1     -40.917 -48.807  10.524  1.00  0.00    -0.295 N 
HETATM    2  C   UNL     1     -41.105 -49.871  11.353  1.00  0.00     0.321 C 
HETATM    3  O   UNL     1     -40.158 -50.615  11.603  1.00  0.00    -0.247 OA
HETATM    4  N   UNL     1     -42.332 -50.003  11.925  1.00  0.00    -0.343 N 
HETATM    5  H   UNL     1     -39.953 -48.699  10.247  1.00  0.00     0.172 HD
HETATM    6  H   UNL     1     -43.084 -49.517  11.442  1.00  0.00     0.164 HD
ENDROOT
BRANCH   1   7
HETATM    7  C   UNL     1     -41.853 -47.872  10.078  1.00  0.00     0.108 A 
HETATM    8  C   UNL     1     -41.901 -46.644  10.733  1.00  0.00     0.052 A 
HETATM    9  C   UNL     1     -42.840 -45.697  10.320  1.00  0.00     0.047 A 
HETATM   10  C   UNL     1     -43.672 -45.999   9.256  1.00  0.00     0.131 A 
HETATM   11  F   UNL     1     -44.578 -45.111   8.831  1.00  0.00    -0.205 F 
HETATM   12  C   UNL     1     -43.550 -47.231   8.644  1.00  0.00     0.132 A 
HETATM   13  N   UNL     1     -42.666 -48.177   9.039  1.00  0.00    -0.349 N 
ATOM     14  HN  UNL     1     -42.615 -49.083   8.573  1.00  0.00     0.167 HD
ENDBRANCH   1   7
BRANCH   4  15
HETATM   15  C   UNL     1     -42.622 -51.085  12.834  1.00  0.00     0.128 C 
BRANCH  15  16
HETATM   16  C   UNL     1     -43.134 -50.609  14.193  1.00  0.00     0.053 C 
BRANCH  16  17
HETATM   17  C   UNL     1     -44.576 -50.964  14.401  1.00  0.00    -0.082 C 
HETATM   18  C   UNL     1     -45.263 -50.918  15.549  1.00  0.00    -0.024 C 
HETATM   19  C   UNL     1     -46.658 -51.422  15.380  1.00  0.00     0.027 C 
HETATM   20  C   UNL     1     -46.831 -51.440  13.863  1.00  0.00     0.008 C 
HETATM   21  C   UNL     1     -45.420 -51.495  13.281  1.00  0.00     0.034 C 
ENDBRANCH  16  17
ENDBRANCH  15  16
ENDBRANCH   4  15
TORSDOF 4
ENDMDL
MODEL 2
REMARK VINA RESULT:      -6.0      3.696      6.359
REMARK  4 active torsions:
REMARK  status: ('A' for Active; 'I' for Inactive)
REMARK    1  A    between atoms: C_5  and  N_6 
REMARK       I    between atoms: N_6  and  C_7 
REMARK       I    between atoms: C_7  and  N_9 
REMARK    2  A    between atoms: N_9  and  C_10 
REMARK    3  A    between atoms: C_10  and  C_11 
REMARK    4  A    between atoms: C_11  and  C_12 
ROOT
HETATM    1  N   UNL     1     -40.931 -51.738  11.481  1.00  0.00    -0.295 N 
HETATM    2  C   UNL     1     -40.886 -50.376  11.486  1.00  0.00     0.321 C 
HETATM    3  O   UNL     1     -40.010 -49.799  10.844  1.00  0.00    -0.247 OA
HETATM    4  N   UNL     1     -41.877 -49.725  12.153  1.00  0.00    -0.343 N 
HETATM    5  H   UNL     1     -40.248 -52.144  10.860  1.00  0.00     0.172 HD
HETATM    6  H   UNL     1     -42.359 -50.283  12.855  1.00  0.00     0.164 HD
ENDROOT
BRANCH   1   7
HETATM    7  C   UNL     1     -41.803 -52.585  12.167  1.00  0.00     0.108 A 
HETATM    8  C   UNL     1     -41.301 -53.272  13.269  1.00  0.00     0.052 A 
HETATM    9  C   UNL     1     -42.146 -54.140  13.964  1.00  0.00     0.047 A 
HETATM   10  C   UNL     1     -43.461 -54.267  13.550  1.00  0.00     0.131 A 
HETATM   11  F   UNL     1     -44.298 -55.086  14.198  1.00  0.00    -0.205 F 
HETATM   12  C   UNL     1     -43.890 -53.537  12.460  1.00  0.00     0.132 A 
HETATM   13  N   UNL     1     -43.087 -52.707  11.753  1.00  0.00    -0.349 N 
ATOM     14  HN  UNL     1     -43.434 -52.196  10.942  1.00  0.00     0.167 HD
ENDBRANCH   1   7
BRANCH   4  15
HETATM   15  C   UNL     1     -41.928 -48.284  12.199  1.00  0.00     0.128 C 
BRANCH  15  16
HETATM   16  C   UNL     1     -43.319 -47.721  11.910  1.00  0.00     0.053 C 
BRANCH  16  17
HETATM   17  C   UNL     1     -43.607 -47.675  10.440  1.00  0.00    -0.082 C 
HETATM   18  C   UNL     1     -42.715 -47.666   9.441  1.00  0.00    -0.024 C 
HETATM   19  C   UNL     1     -43.377 -47.537   8.109  1.00  0.00     0.027 C 
HETATM   20  C   UNL     1     -44.840 -47.839   8.426  1.00  0.00     0.008 C 
HETATM   21  C   UNL     1     -45.009 -47.569   9.919  1.00  0.00     0.034 C 
ENDBRANCH  16  17
ENDBRANCH  15  16
ENDBRANCH   4  15
TORSDOF 4
ENDMDL
MODEL 3
REMARK VINA RESULT:      -5.8      1.656      2.320
REMARK  4 active torsions:
REMARK  status: ('A' for Active; 'I' for Inactive)
REMARK    1  A    between atoms: C_5  and  N_6 
REMARK       I    between atoms: N_6  and  C_7 
REMARK       I    between atoms: C_7  and  N_9 
REMARK    2  A    between atoms: N_9  and  C_10 
REMARK    3  A    between atoms: C_10  and  C_11 
REMARK    4  A    between atoms: C_11  and  C_12 
ROOT
HETATM    1  N   UNL     1     -40.539 -50.533  11.145  1.00  0.00    -0.295 N 
HETATM    2  C   UNL     1     -41.264 -51.416  11.887  1.00  0.00     0.321 C 
HETATM    3  O   UNL     1     -41.012 -52.617  11.810  1.00  0.00    -0.247 OA
HETATM    4  N   UNL     1     -42.188 -50.898  12.739  1.00  0.00    -0.343 N 
HETATM    5  H   UNL     1     -39.788 -50.978  10.640  1.00  0.00     0.172 HD
HETATM    6  H   UNL     1     -42.495 -49.954  12.517  1.00  0.00     0.164 HD
ENDROOT
BRANCH   1   7
HETATM    7  C   UNL     1     -40.684 -49.148  11.049  1.00  0.00     0.108 A 
HETATM    8  C   UNL     1     -39.829 -48.355  11.810  1.00  0.00     0.052 A 
HETATM    9  C   UNL     1     -39.963 -46.967  11.748  1.00  0.00     0.047 A 
HETATM   10  C   UNL     1     -40.924 -46.424  10.911  1.00  0.00     0.131 A 
HETATM   11  F   UNL     1     -41.074 -45.098  10.823  1.00  0.00    -0.205 F 
HETATM   12  C   UNL     1     -41.721 -47.276  10.172  1.00  0.00     0.132 A 
HETATM   13  N   UNL     1     -41.629 -48.625  10.231  1.00  0.00    -0.349 N 
ATOM     14  HN  UNL     1     -42.246 -49.224   9.683  1.00  0.00     0.167 HD
ENDBRANCH   1   7
BRANCH   4  15
HETATM   15  C   UNL     1     -42.990 -51.751  13.583  1.00  0.00     0.128 C 
BRANCH  15  16
HETATM   16  C   UNL     1     -44.465 -51.780  13.181  1.00  0.00     0.053 C 
BRANCH  16  17
HETATM   17  C   UNL     1     -45.366 -51.533  14.353  1.00  0.00    -0.082 C 
HETATM   18  C   UNL     1     -46.678 -51.789  14.432  1.00  0.00    -0.024 C 
HETATM   19  C   UNL     1     -47.253 -51.337  15.734  1.00  0.00     0.027 C 
HETATM   20  C   UNL     1     -46.011 -51.095  16.588  1.00  0.00     0.008 C 
HETATM   21  C   UNL     1     -44.861 -50.880  15.605  1.00  0.00     0.034 C 
ENDBRANCH  16  17
ENDBRANCH  15  16
ENDBRANCH   4  15
TORSDOF 4
ENDMDL
MODEL 4
REMARK VINA RESULT:      -5.8      3.520      4.733
REMARK  4 active torsions:
REMARK  status: ('A' for Active; 'I' for Inactive)
REMARK    1  A    between atoms: C_5  and  N_6 
REMARK       I    between atoms: N_6  and  C_7 
REMARK       I    between atoms: C_7  and  N_9 
REMARK    2  A    between atoms: N_9  and  C_10 
REMARK    3  A    between atoms: C_10  and  C_11 
REMARK    4  A    between atoms: C_11  and  C_12 
ROOT
HETATM    1  N   UNL     1     -42.722 -52.741  11.807  1.00  0.00    -0.295 N 
HETATM    2  C   UNL     1     -43.790 -53.065  12.588  1.00  0.00     0.321 C 
HETATM    3  O   UNL     1     -44.584 -53.920  12.199  1.00  0.00    -0.247 OA
HETATM    4  N   UNL     1     -43.871 -52.467  13.807  1.00  0.00    -0.343 N 
HETATM    5  H   UNL     1     -42.657 -53.319  10.983  1.00  0.00     0.172 HD
HETATM    6  H   UNL     1     -43.340 -51.604  13.897  1.00  0.00     0.164 HD
ENDROOT
BRANCH   1   7
HETATM    7  C   UNL     1     -41.735 -51.781  12.033  1.00  0.00     0.108 A 
HETATM    8  C   UNL     1     -40.519 -52.216  12.555  1.00  0.00     0.052 A 
HETATM    9  C   UNL     1     -39.519 -51.275  12.809  1.00  0.00     0.047 A 
HETATM   10  C   UNL     1     -39.760 -49.945  12.507  1.00  0.00     0.131 A 
HETATM   11  F   UNL     1     -38.821 -49.019  12.732  1.00  0.00    -0.205 F 
HETATM   12  C   UNL     1     -40.984 -49.595  11.973  1.00  0.00     0.132 A 
HETATM   13  N   UNL     1     -41.980 -50.482  11.740  1.00  0.00    -0.349 N 
ATOM     14  HN  UNL     1     -42.877 -50.184  11.359  1.00  0.00     0.167 HD
ENDBRANCH   1   7
BRANCH   4  15
HETATM   15  C   UNL     1     -44.954 -52.761  14.715  1.00  0.00     0.128 C 
BRANCH  15  16
HETATM   16  C   UNL     1     -46.144 -51.816  14.559  1.00  0.00     0.053 C 
BRANCH  16  17
HETATM   17  C   UNL     1     -46.590 -51.260  15.878  1.00  0.00    -0.082 C 
HETATM   18  C   UNL     1     -47.819 -51.316  16.405  1.00  0.00    -0.024 C 
HETATM   19  C   UNL     1     -47.899 -50.583  17.704  1.00  0.00     0.027 C 
HETATM   20  C   UNL     1     -46.431 -50.379  18.069  1.00  0.00     0.008 C 
HETATM   21  C   UNL     1     -45.653 -50.487  16.759  1.00  0.00     0.034 C 
ENDBRANCH  16  17
ENDBRANCH  15  16
ENDBRANCH   4  15
TORSDOF 4
ENDMDL
MODEL 5
REMARK VINA RESULT:      -5.7      5.629      6.580
REMARK  4 active torsions:
REMARK  status: ('A' for Active; 'I' for Inactive)
REMARK    1  A    between atoms: C_5  and  N_6 
REMARK       I    between atoms: N_6  and  C_7 
REMARK       I    between atoms: C_7  and  N_9 
REMARK    2  A    between atoms: N_9  and  C_10 
REMARK    3  A    between atoms: C_10  and  C_11 
REMARK    4  A    between atoms: C_11  and  C_12 
ROOT
HETATM    1  N   UNL     1     -43.587 -55.036  14.360  1.00  0.00    -0.295 N 
HETATM    2  C   UNL     1     -44.818 -54.648  13.927  1.00  0.00     0.321 C 
HETATM    3  O   UNL     1     -45.786 -55.382  14.125  1.00  0.00    -0.247 OA
HETATM    4  N   UNL     1     -44.917 -53.416  13.360  1.00  0.00    -0.343 N 
HETATM    5  H   UNL     1     -43.615 -55.896  14.886  1.00  0.00     0.172 HD
HETATM    6  H   UNL     1     -44.043 -53.036  13.005  1.00  0.00     0.164 HD
ENDROOT
BRANCH   1   7
HETATM    7  C   UNL     1     -42.362 -54.384  14.204  1.00  0.00     0.108 A 
HETATM    8  C   UNL     1     -41.791 -53.804  15.335  1.00  0.00     0.052 A 
HETATM    9  C   UNL     1     -40.576 -53.130  15.206  1.00  0.00     0.047 A 
HETATM   10  C   UNL     1     -39.965 -53.084  13.964  1.00  0.00     0.131 A 
HETATM   11  F   UNL     1     -38.796 -52.452  13.807  1.00  0.00    -0.205 F 
HETATM   12  C   UNL     1     -40.583 -53.700  12.894  1.00  0.00     0.132 A 
HETATM   13  N   UNL     1     -41.773 -54.339  12.986  1.00  0.00    -0.349 N 
ATOM     14  HN  UNL     1     -42.209 -54.769  12.170  1.00  0.00     0.167 HD
ENDBRANCH   1   7
BRANCH   4  15
HETATM   15  C   UNL     1     -46.184 -52.907  12.890  1.00  0.00     0.128 C 
BRANCH  15  16
HETATM   16  C   UNL     1     -46.454 -51.468  13.328  1.00  0.00     0.053 C 
BRANCH  16  17
HETATM   17  C   UNL     1     -46.249 -51.288  14.802  1.00  0.00    -0.082 C 
HETATM   18  C   UNL     1     -45.166 -50.795  15.414  1.00  0.00    -0.024 C 
HETATM   19  C   UNL     1     -45.299 -50.841  16.900  1.00  0.00     0.027 C 
HETATM   20  C   UNL     1     -46.790 -51.102  17.100  1.00  0.00     0.008 C 
HETATM   21  C   UNL     1     -47.284 -51.727  15.796  1.00  0.00     0.034 C 
ENDBRANCH  16  17
ENDBRANCH  15  16
ENDBRANCH   4  15
TORSDOF 4
ENDMDL
MODEL 6
REMARK VINA RESULT:      -5.6      2.586      6.100
REMARK  4 active torsions:
REMARK  status: ('A' for Active; 'I' for Inactive)
REMARK    1  A    between atoms: C_5  and  N_6 
REMARK       I    between atoms: N_6  and  C_7 
REMARK       I    between atoms: C_7  and  N_9 
REMARK    2  A    between atoms: N_9  and  C_10 
REMARK    3  A    between atoms: C_10  and  C_11 
REMARK    4  A    between atoms: C_11  and  C_12 
ROOT
HETATM    1  N   UNL     1     -42.590 -52.964  12.565  1.00  0.00    -0.295 N 
HETATM    2  C   UNL     1     -41.536 -52.285  12.034  1.00  0.00     0.321 C 
HETATM    3  O   UNL     1     -40.510 -52.897  11.741  1.00  0.00    -0.247 OA
HETATM    4  N   UNL     1     -41.713 -50.959  11.785  1.00  0.00    -0.343 N 
HETATM    5  H   UNL     1     -42.432 -53.959  12.596  1.00  0.00     0.172 HD
HETATM    6  H   UNL     1     -42.466 -50.522  12.311  1.00  0.00     0.164 HD
ENDROOT
BRANCH   1   7
HETATM    7  C   UNL     1     -43.817 -52.465  13.004  1.00  0.00     0.108 A 
HETATM    8  C   UNL     1     -43.851 -51.834  14.245  1.00  0.00     0.052 A 
HETATM    9  C   UNL     1     -45.068 -51.341  14.718  1.00  0.00     0.047 A 
HETATM   10  C   UNL     1     -46.196 -51.470  13.925  1.00  0.00     0.131 A 
HETATM   11  F   UNL     1     -47.377 -51.003  14.345  1.00  0.00    -0.205 F 
HETATM   12  C   UNL     1     -46.078 -52.090  12.696  1.00  0.00     0.132 A 
HETATM   13  N   UNL     1     -44.916 -52.600  12.224  1.00  0.00    -0.349 N 
ATOM     14  HN  UNL     1     -44.870 -53.065  11.318  1.00  0.00     0.167 HD
ENDBRANCH   1   7
BRANCH   4  15
HETATM   15  C   UNL     1     -40.662 -50.159  11.204  1.00  0.00     0.128 C 
BRANCH  15  16
HETATM   16  C   UNL     1     -40.448 -48.829  11.926  1.00  0.00     0.053 C 
BRANCH  16  17
HETATM   17  C   UNL     1     -41.214 -47.715  11.279  1.00  0.00    -0.082 C 
HETATM   18  C   UNL     1     -42.104 -47.816  10.284  1.00  0.00    -0.024 C 
HETATM   19  C   UNL     1     -42.604 -46.478   9.849  1.00  0.00     0.027 C 
HETATM   20  C   UNL     1     -42.154 -45.562  10.985  1.00  0.00     0.008 C 
HETATM   21  C   UNL     1     -40.995 -46.284  11.671  1.00  0.00     0.034 C 
ENDBRANCH  16  17
ENDBRANCH  15  16
ENDBRANCH   4  15
TORSDOF 4
ENDMDL
MODEL 7
REMARK VINA RESULT:      -5.5      3.166      6.315
REMARK  4 active torsions:
REMARK  status: ('A' for Active; 'I' for Inactive)
REMARK    1  A    between atoms: C_5  and  N_6 
REMARK       I    between atoms: N_6  and  C_7 
REMARK       I    between atoms: C_7  and  N_9 
REMARK    2  A    between atoms: N_9  and  C_10 
REMARK    3  A    between atoms: C_10  and  C_11 
REMARK    4  A    between atoms: C_11  and  C_12 
ROOT
HETATM    1  N   UNL     1     -42.267 -52.740  12.839  1.00  0.00    -0.295 N 
HETATM    2  C   UNL     1     -41.270 -52.053  12.217  1.00  0.00     0.321 C 
HETATM    3  O   UNL     1     -40.169 -52.584  12.076  1.00  0.00    -0.247 OA
HETATM    4  N   UNL     1     -41.580 -50.828  11.714  1.00  0.00    -0.343 N 
HETATM    5  H   UNL     1     -42.002 -53.686  13.065  1.00  0.00     0.172 HD
HETATM    6  H   UNL     1     -42.402 -50.392  12.124  1.00  0.00     0.164 HD
ENDROOT
BRANCH   1   7
HETATM    7  C   UNL     1     -43.563 -52.316  13.139  1.00  0.00     0.108 A 
HETATM    8  C   UNL     1     -43.735 -51.511  14.262  1.00  0.00     0.052 A 
HETATM    9  C   UNL     1     -45.022 -51.087  14.597  1.00  0.00     0.047 A 
HETATM   10  C   UNL     1     -46.081 -51.457  13.785  1.00  0.00     0.131 A 
HETATM   11  F   UNL     1     -47.326 -51.063  14.074  1.00  0.00    -0.205 F 
HETATM   12  C   UNL     1     -45.828 -52.241  12.677  1.00  0.00     0.132 A 
HETATM   13  N   UNL     1     -44.594 -52.687  12.343  1.00  0.00    -0.349 N 
ATOM     14  HN  UNL     1     -44.447 -53.278  11.525  1.00  0.00     0.167 HD
ENDBRANCH   1   7
BRANCH   4  15
HETATM   15  C   UNL     1     -40.596 -50.032  11.019  1.00  0.00     0.128 C 
BRANCH  15  16
HETATM   16  C   UNL     1     -40.570 -48.574  11.476  1.00  0.00     0.053 C 
BRANCH  16  17
HETATM   17  C   UNL     1     -39.536 -48.341  12.537  1.00  0.00    -0.082 C 
HETATM   18  C   UNL     1     -38.392 -49.014  12.712  1.00  0.00    -0.024 C 
HETATM   19  C   UNL     1     -37.655 -48.546  13.924  1.00  0.00     0.027 C 
HETATM   20  C   UNL     1     -38.350 -47.228  14.256  1.00  0.00     0.008 C 
HETATM   21  C   UNL     1     -39.729 -47.305  13.604  1.00  0.00     0.034 C 
ENDBRANCH  16  17
ENDBRANCH  15  16
ENDBRANCH   4  15
TORSDOF 4
ENDMDL
MODEL 8
REMARK VINA RESULT:      -5.4      5.086      6.233
REMARK  4 active torsions:
REMARK  status: ('A' for Active; 'I' for Inactive)
REMARK    1  A    between atoms: C_5  and  N_6 
REMARK       I    between atoms: N_6  and  C_7 
REMARK       I    between atoms: C_7  and  N_9 
REMARK    2  A    between atoms: N_9  and  C_10 
REMARK    3  A    between atoms: C_10  and  C_11 
REMARK    4  A    between atoms: C_11  and  C_12 
ROOT
HETATM    1  N   UNL     1     -43.832 -52.954  12.025  1.00  0.00    -0.295 N 
HETATM    2  C   UNL     1     -45.078 -52.919  12.574  1.00  0.00     0.321 C 
HETATM    3  O   UNL     1     -46.062 -52.921  11.836  1.00  0.00    -0.247 OA
HETATM    4  N   UNL     1     -45.159 -52.961  13.931  1.00  0.00    -0.343 N 
HETATM    5  H   UNL     1     -43.854 -53.055  11.022  1.00  0.00     0.172 HD
HETATM    6  H   UNL     1     -44.313 -52.679  14.420  1.00  0.00     0.164 HD
ENDROOT
BRANCH   1   7
HETATM    7  C   UNL     1     -42.593 -52.916  12.668  1.00  0.00     0.108 A 
HETATM    8  C   UNL     1     -42.056 -54.124  13.107  1.00  0.00     0.052 A 
HETATM    9  C   UNL     1     -40.828 -54.114  13.769  1.00  0.00     0.047 A 
HETATM   10  C   UNL     1     -40.171 -52.908  13.943  1.00  0.00     0.131 A 
HETATM   11  F   UNL     1     -38.989 -52.864  14.569  1.00  0.00    -0.205 F 
HETATM   12  C   UNL     1     -40.759 -51.754  13.463  1.00  0.00     0.132 A 
HETATM   13  N   UNL     1     -41.960 -51.731  12.839  1.00  0.00    -0.349 N 
ATOM     14  HN  UNL     1     -42.371 -50.858  12.510  1.00  0.00     0.167 HD
ENDBRANCH   1   7
BRANCH   4  15
HETATM   15  C   UNL     1     -46.435 -52.949  14.605  1.00  0.00     0.128 C 
BRANCH  15  16
HETATM   16  C   UNL     1     -46.831 -51.565  15.120  1.00  0.00     0.053 C 
BRANCH  16  17
HETATM   17  C   UNL     1     -47.158 -51.588  16.583  1.00  0.00    -0.082 C 
HETATM   18  C   UNL     1     -46.577 -52.335  17.530  1.00  0.00    -0.024 C 
HETATM   19  C   UNL     1     -47.223 -52.142  18.862  1.00  0.00     0.027 C 
HETATM   20  C   UNL     1     -48.058 -50.880  18.655  1.00  0.00     0.008 C 
HETATM   21  C   UNL     1     -48.279 -50.767  17.148  1.00  0.00     0.034 C 
ENDBRANCH  16  17
ENDBRANCH  15  16
ENDBRANCH   4  15
TORSDOF 4
ENDMDL
MODEL 9
REMARK VINA RESULT:      -5.4      4.241      6.734
REMARK  4 active torsions:
REMARK  status: ('A' for Active; 'I' for Inactive)
REMARK    1  A    between atoms: C_5  and  N_6 
REMARK       I    between atoms: N_6  and  C_7 
REMARK       I    between atoms: C_7  and  N_9 
REMARK    2  A    between atoms: N_9  and  C_10 
REMARK    3  A    between atoms: C_10  and  C_11 
REMARK    4  A    between atoms: C_11  and  C_12 
ROOT
HETATM    1  N   UNL     1     -42.963 -52.771  12.069  1.00  0.00    -0.295 N 
HETATM    2  C   UNL     1     -41.666 -52.801  12.484  1.00  0.00     0.321 C 
HETATM    3  O   UNL     1     -40.766 -52.853  11.648  1.00  0.00    -0.247 OA
HETATM    4  N   UNL     1     -41.440 -52.694  13.821  1.00  0.00    -0.343 N 
HETATM    5  H   UNL     1     -43.046 -52.720  11.066  1.00  0.00     0.172 HD
HETATM    6  H   UNL     1     -42.233 -52.936  14.411  1.00  0.00     0.164 HD
ENDROOT
BRANCH   1   7
HETATM    7  C   UNL     1     -44.126 -52.756  12.841  1.00  0.00     0.108 A 
HETATM    8  C   UNL     1     -44.660 -51.514  13.179  1.00  0.00     0.052 A 
HETATM    9  C   UNL     1     -45.812 -51.467  13.965  1.00  0.00     0.047 A 
HETATM   10  C   UNL     1     -46.402 -52.656  14.359  1.00  0.00     0.131 A 
HETATM   11  F   UNL     1     -47.511 -52.647  15.107  1.00  0.00    -0.205 F 
HETATM   12  C   UNL     1     -45.824 -53.848  13.967  1.00  0.00     0.132 A 
HETATM   13  N   UNL     1     -44.694 -53.923  13.226  1.00  0.00    -0.349 N 
ATOM     14  HN  UNL     1     -44.286 -54.821  12.969  1.00  0.00     0.167 HD
ENDBRANCH   1   7
BRANCH   4  15
HETATM   15  C   UNL     1     -40.100 -52.695  14.357  1.00  0.00     0.128 C 
BRANCH  15  16
HETATM   16  C   UNL     1     -39.618 -51.306  14.775  1.00  0.00     0.053 C 
BRANCH  16  17
HETATM   17  C   UNL     1     -39.108 -50.519  13.605  1.00  0.00    -0.082 C 
HETATM   18  C   UNL     1     -39.664 -49.431  13.058  1.00  0.00    -0.024 C 
HETATM   19  C   UNL     1     -38.908 -48.968  11.856  1.00  0.00     0.027 C 
HETATM   20  C   UNL     1     -37.590 -49.728  11.970  1.00  0.00     0.008 C 
HETATM   21  C   UNL     1     -37.879 -50.940  12.854  1.00  0.00     0.034 C 
ENDBRANCH  16  17
ENDBRANCH  15  16
ENDBRANCH   4  15
TORSDOF 4
ENDMDL
