MODEL 1
REMARK VINA RESULT:      -6.4      0.000      0.000
REMARK  3 active torsions:
REMARK  status: ('A' for Active; 'I' for Inactive)
REMARK    1  A    between atoms: C_7  and  N_8 
REMARK    2  A    between atoms: N_8  and  C_9 
REMARK    3  A    between atoms: C_9  and  C_10 
ROOT
HETATM    1  N   UNL     1     -42.222 -52.647  11.754  1.00  0.00    -0.262 NA
HETATM    2  H   UNL     1     -43.059 -52.392  11.242  1.00  0.00     0.130 HD
ENDROOT
BRANCH   1   3
HETATM    3  C   UNL     1     -41.481 -51.486  11.831  1.00  0.00     0.157 A 
HETATM    4  N   UNL     1     -42.224 -50.371  11.824  1.00  0.00    -0.343 N 
HETATM    5  C   UNL     1     -41.569 -49.199  11.823  1.00  0.00     0.092 A 
ATOM      6  HN  UNL     1     -43.244 -50.411  11.819  1.00  0.00     0.167 HD
HETATM    7  C   UNL     1     -40.203 -49.100  11.845  1.00  0.00     0.041 A 
HETATM    8  C   UNL     1     -39.517 -50.296  11.876  1.00  0.00     0.009 A 
HETATM    9  C   UNL     1     -38.018 -50.310  11.882  1.00  0.00     0.068 C 
HETATM   10  N   UNL     1     -40.143 -51.496  11.872  1.00  0.00    -0.337 N 
ATOM     11  HN  UNL     1     -39.618 -52.371  11.898  1.00  0.00     0.168 HD
ENDBRANCH   1   3
BRANCH   1  12
HETATM   12  C   UNL     1     -42.413 -53.475  12.938  1.00  0.00     0.129 C 
BRANCH  12  13
HETATM   13  C   UNL     1     -43.880 -53.976  12.956  1.00  0.00     0.163 C 
HETATM   14  C   UNL     1     -44.424 -54.255  14.383  1.00  0.00     0.306 C 
HETATM   15  N   UNL     1     -45.066 -53.101  15.049  1.00  0.00     0.097 N 
HETATM   16  C   UNL     1     -45.668 -53.531  16.320  1.00  0.00     0.273 C 
HETATM   17  C   UNL     1     -46.067 -52.528  14.125  1.00  0.00     0.246 C 
HETATM   18  C   UNL     1     -46.413 -52.393  17.013  1.00  0.00     0.030 C 
HETATM   19  C   UNL     1     -47.469 -51.792  16.093  1.00  0.00     0.004 C 
HETATM   20  C   UNL     1     -46.834 -51.368  14.771  1.00  0.00     0.038 C 
HETATM   21  C   UNL     1     -45.334 -52.065  12.850  1.00  0.00     0.204 C 
HETATM   22  O   UNL     1     -44.761 -53.173  12.147  1.00  0.00    -0.381 OA
ENDBRANCH  12  13
ENDBRANCH   1  12
TORSDOF 3
ENDMDL
MODEL 2
REMARK VINA RESULT:      -6.3      2.008      6.463
REMARK  3 active torsions:
REMARK  status: ('A' for Active; 'I' for Inactive)
REMARK    1  A    between atoms: C_7  and  N_8 
REMARK    2  A    between atoms: N_8  and  C_9 
REMARK    3  A    between atoms: C_9  and  C_10 
ROOT
HETATM    1  N   UNL     1     -43.303 -53.859  12.791  1.00  0.00    -0.262 NA
HETATM    2  H   UNL     1     -43.695 -54.787  12.682  1.00  0.00     0.130 HD
ENDROOT
BRANCH   1   3
HETATM    3  C   UNL     1     -44.387 -53.036  13.015  1.00  0.00     0.157 A 
HETATM    4  N   UNL     1     -44.494 -52.622  14.285  1.00  0.00    -0.343 N 
HETATM    5  C   UNL     1     -45.566 -51.876  14.597  1.00  0.00     0.092 A 
ATOM      6  HN  UNL     1     -43.792 -52.864  14.985  1.00  0.00     0.167 HD
HETATM    7  C   UNL     1     -46.523 -51.515  13.686  1.00  0.00     0.041 A 
HETATM    8  C   UNL     1     -46.321 -51.963  12.397  1.00  0.00     0.009 A 
HETATM    9  C   UNL     1     -47.314 -51.646  11.320  1.00  0.00     0.068 C 
HETATM   10  N   UNL     1     -45.257 -52.723  12.047  1.00  0.00    -0.337 N 
ATOM     11  HN  UNL     1     -45.123 -53.042  11.087  1.00  0.00     0.168 HD
ENDBRANCH   1   3
BRANCH   1  12
HETATM   12  C   UNL     1     -42.113 -53.750  13.625  1.00  0.00     0.129 C 
BRANCH  12  13
HETATM   13  C   UNL     1     -40.882 -53.563  12.702  1.00  0.00     0.163 C 
HETATM   14  C   UNL     1     -40.938 -52.267  11.849  1.00  0.00     0.306 C 
HETATM   15  N   UNL     1     -40.340 -51.070  12.481  1.00  0.00     0.097 N 
HETATM   16  C   UNL     1     -40.321 -49.957  11.520  1.00  0.00     0.273 C 
HETATM   17  C   UNL     1     -38.985 -51.422  12.955  1.00  0.00     0.246 C 
HETATM   18  C   UNL     1     -39.642 -48.716  12.097  1.00  0.00     0.030 C 
HETATM   19  C   UNL     1     -38.232 -49.040  12.578  1.00  0.00     0.004 C 
HETATM   20  C   UNL     1     -38.266 -50.209  13.559  1.00  0.00     0.038 C 
HETATM   21  C   UNL     1     -39.117 -52.558  13.988  1.00  0.00     0.204 C 
HETATM   22  O   UNL     1     -39.628 -53.752  13.386  1.00  0.00    -0.381 OA
ENDBRANCH  12  13
ENDBRANCH   1  12
TORSDOF 3
ENDMDL
MODEL 3
REMARK VINA RESULT:      -6.2      5.295      7.247
REMARK  3 active torsions:
REMARK  status: ('A' for Active; 'I' for Inactive)
REMARK    1  A    between atoms: C_7  and  N_8 
REMARK    2  A    between atoms: N_8  and  C_9 
REMARK    3  A    between atoms: C_9  and  C_10 
ROOT
HETATM    1  N   UNL     1     -40.885 -49.453  10.473  1.00  0.00    -0.262 NA
HETATM    2  H   UNL     1     -41.347 -50.141   9.890  1.00  0.00     0.130 HD
ENDROOT
BRANCH   1   3
HETATM    3  C   UNL     1     -41.587 -48.284  10.274  1.00  0.00     0.157 A 
HETATM    4  N   UNL     1     -40.879 -47.178  10.544  1.00  0.00    -0.343 N 
HETATM    5  C   UNL     1     -41.519 -46.001  10.443  1.00  0.00     0.092 A 
ATOM      6  HN  UNL     1     -39.897 -47.228  10.815  1.00  0.00     0.167 HD
HETATM    7  C   UNL     1     -42.832 -45.888  10.067  1.00  0.00     0.041 A 
HETATM    8  C   UNL     1     -43.477 -47.074   9.784  1.00  0.00     0.009 A 
HETATM    9  C   UNL     1     -44.921 -47.074   9.382  1.00  0.00     0.068 C 
HETATM   10  N   UNL     1     -42.867 -48.278   9.881  1.00  0.00    -0.337 N 
ATOM     11  HN  UNL     1     -43.361 -49.145   9.665  1.00  0.00     0.168 HD
ENDBRANCH   1   3
BRANCH   1  12
HETATM   12  C   UNL     1     -40.534 -49.878  11.823  1.00  0.00     0.129 C 
BRANCH  12  13
HETATM   13  C   UNL     1     -38.998 -50.081  11.890  1.00  0.00     0.163 C 
HETATM   14  C   UNL     1     -38.241 -48.877  12.512  1.00  0.00     0.306 C 
HETATM   15  N   UNL     1     -38.067 -48.932  13.980  1.00  0.00     0.097 N 
HETATM   16  C   UNL     1     -37.210 -47.822  14.423  1.00  0.00     0.273 C 
HETATM   17  C   UNL     1     -37.498 -50.250  14.332  1.00  0.00     0.246 C 
HETATM   18  C   UNL     1     -36.934 -47.877  15.924  1.00  0.00     0.030 C 
HETATM   19  C   UNL     1     -36.326 -49.218  16.318  1.00  0.00     0.004 C 
HETATM   20  C   UNL     1     -37.216 -50.360  15.836  1.00  0.00     0.038 C 
HETATM   21  C   UNL     1     -38.487 -51.339  13.873  1.00  0.00     0.204 C 
HETATM   22  O   UNL     1     -38.620 -51.354  12.447  1.00  0.00    -0.381 OA
ENDBRANCH  12  13
ENDBRANCH   1  12
TORSDOF 3
ENDMDL
MODEL 4
REMARK VINA RESULT:      -6.1      2.978      7.042
REMARK  3 active torsions:
REMARK  status: ('A' for Active; 'I' for Inactive)
REMARK    1  A    between atoms: C_7  and  N_8 
REMARK    2  A    between atoms: N_8  and  C_9 
REMARK    3  A    between atoms: C_9  and  C_10 
ROOT
HETATM    1  N   UNL     1     -40.969 -51.711  11.360  1.00  0.00    -0.262 NA
HETATM    2  H   UNL     1     -40.253 -52.300  10.949  1.00  0.00     0.130 HD
ENDROOT
BRANCH   1   3
HETATM    3  C   UNL     1     -41.736 -52.562  12.128  1.00  0.00     0.157 A 
HETATM    4  N   UNL     1     -43.018 -52.629  11.742  1.00  0.00    -0.343 N 
HETATM    5  C   UNL     1     -43.843 -53.381  12.488  1.00  0.00     0.092 A 
ATOM      6  HN  UNL     1     -43.352 -52.129  10.918  1.00  0.00     0.167 HD
HETATM    7  C   UNL     1     -43.433 -54.080  13.593  1.00  0.00     0.041 A 
HETATM    8  C   UNL     1     -42.093 -53.975  13.904  1.00  0.00     0.009 A 
HETATM    9  C   UNL     1     -41.537 -54.680  15.103  1.00  0.00     0.068 C 
HETATM   10  N   UNL     1     -41.233 -53.221  13.180  1.00  0.00    -0.337 N 
ATOM     11  HN  UNL     1     -40.245 -53.157  13.425  1.00  0.00     0.168 HD
ENDBRANCH   1   3
BRANCH   1  12
HETATM   12  C   UNL     1     -40.527 -50.432  11.900  1.00  0.00     0.129 C 
BRANCH  12  13
HETATM   13  C   UNL     1     -38.978 -50.427  11.946  1.00  0.00     0.163 C 
HETATM   14  C   UNL     1     -38.376 -49.096  12.471  1.00  0.00     0.306 C 
HETATM   15  N   UNL     1     -38.177 -49.028  13.935  1.00  0.00     0.097 N 
HETATM   16  C   UNL     1     -37.468 -47.788  14.285  1.00  0.00     0.273 C 
HETATM   17  C   UNL     1     -37.435 -50.234  14.360  1.00  0.00     0.246 C 
HETATM   18  C   UNL     1     -37.167 -47.705  15.780  1.00  0.00     0.030 C 
HETATM   19  C   UNL     1     -36.383 -48.925  16.248  1.00  0.00     0.004 C 
HETATM   20  C   UNL     1     -37.121 -50.204  15.861  1.00  0.00     0.038 C 
HETATM   21  C   UNL     1     -38.278 -51.471  13.995  1.00  0.00     0.204 C 
HETATM   22  O   UNL     1     -38.428 -51.600  12.577  1.00  0.00    -0.381 OA
ENDBRANCH  12  13
ENDBRANCH   1  12
TORSDOF 3
ENDMDL
MODEL 5
REMARK VINA RESULT:      -6.1      5.703      7.767
REMARK  3 active torsions:
REMARK  status: ('A' for Active; 'I' for Inactive)
REMARK    1  A    between atoms: C_7  and  N_8 
REMARK    2  A    between atoms: N_8  and  C_9 
REMARK    3  A    between atoms: C_9  and  C_10 
ROOT
HETATM    1  N   UNL     1     -42.557 -45.770  10.328  1.00  0.00    -0.262 NA
HETATM    2  H   UNL     1     -42.588 -44.854   9.894  1.00  0.00     0.130 HD
ENDROOT
BRANCH   1   3
HETATM    3  C   UNL     1     -43.402 -46.555   9.572  1.00  0.00     0.157 A 
HETATM    4  N   UNL     1     -42.785 -47.206   8.576  1.00  0.00    -0.343 N 
HETATM    5  C   UNL     1     -43.556 -47.934   7.751  1.00  0.00     0.092 A 
ATOM      6  HN  UNL     1     -41.774 -47.151   8.449  1.00  0.00     0.167 HD
HETATM    7  C   UNL     1     -44.914 -48.047   7.894  1.00  0.00     0.041 A 
HETATM    8  C   UNL     1     -45.462 -47.365   8.960  1.00  0.00     0.009 A 
HETATM    9  C   UNL     1     -46.941 -47.401   9.202  1.00  0.00     0.068 C 
HETATM   10  N   UNL     1     -44.719 -46.616   9.807  1.00  0.00    -0.337 N 
ATOM     11  HN  UNL     1     -45.143 -46.120  10.592  1.00  0.00     0.168 HD
ENDBRANCH   1   3
BRANCH   1  12
HETATM   12  C   UNL     1     -41.239 -46.264  10.706  1.00  0.00     0.129 C 
BRANCH  12  13
HETATM   13  C   UNL     1     -41.402 -47.226  11.911  1.00  0.00     0.163 C 
HETATM   14  C   UNL     1     -40.840 -48.649  11.649  1.00  0.00     0.306 C 
HETATM   15  N   UNL     1     -39.417 -48.840  12.003  1.00  0.00     0.097 N 
HETATM   16  C   UNL     1     -39.051 -50.256  11.852  1.00  0.00     0.273 C 
HETATM   17  C   UNL     1     -39.212 -48.355  13.384  1.00  0.00     0.246 C 
HETATM   18  C   UNL     1     -37.609 -50.522  12.280  1.00  0.00     0.030 C 
HETATM   19  C   UNL     1     -37.369 -50.052  13.709  1.00  0.00     0.004 C 
HETATM   20  C   UNL     1     -37.770 -48.587  13.856  1.00  0.00     0.038 C 
HETATM   21  C   UNL     1     -39.574 -46.858  13.427  1.00  0.00     0.204 C 
HETATM   22  O   UNL     1     -40.965 -46.650  13.157  1.00  0.00    -0.381 OA
ENDBRANCH  12  13
ENDBRANCH   1  12
TORSDOF 3
ENDMDL
MODEL 6
REMARK VINA RESULT:      -6.0      2.743      4.697
REMARK  3 active torsions:
REMARK  status: ('A' for Active; 'I' for Inactive)
REMARK    1  A    between atoms: C_7  and  N_8 
REMARK    2  A    between atoms: N_8  and  C_9 
REMARK    3  A    between atoms: C_9  and  C_10 
ROOT
HETATM    1  N   UNL     1     -40.274 -48.631  11.203  1.00  0.00    -0.262 NA
HETATM    2  H   UNL     1     -39.435 -48.372  10.698  1.00  0.00     0.130 HD
ENDROOT
BRANCH   1   3
HETATM    3  C   UNL     1     -41.275 -47.853  10.659  1.00  0.00     0.157 A 
HETATM    4  N   UNL     1     -41.529 -46.737  11.356  1.00  0.00    -0.343 N 
HETATM    5  C   UNL     1     -42.541 -45.964  10.927  1.00  0.00     0.092 A 
ATOM      6  HN  UNL     1     -40.978 -46.485  12.177  1.00  0.00     0.167 HD
HETATM    7  C   UNL     1     -43.295 -46.257   9.822  1.00  0.00     0.041 A 
HETATM    8  C   UNL     1     -42.949 -47.411   9.150  1.00  0.00     0.009 A 
HETATM    9  C   UNL     1     -43.718 -47.841   7.938  1.00  0.00     0.068 C 
HETATM   10  N   UNL     1     -41.940 -48.217   9.555  1.00  0.00    -0.337 N 
ATOM     11  HN  UNL     1     -41.698 -49.066   9.043  1.00  0.00     0.168 HD
ENDBRANCH   1   3
BRANCH   1  12
HETATM   12  C   UNL     1     -40.489 -50.056  11.420  1.00  0.00     0.129 C 
BRANCH  12  13
HETATM   13  C   UNL     1     -41.098 -50.251  12.832  1.00  0.00     0.163 C 
HETATM   14  C   UNL     1     -42.566 -50.755  12.810  1.00  0.00     0.306 C 
HETATM   15  N   UNL     1     -42.729 -52.225  12.803  1.00  0.00     0.097 N 
HETATM   16  C   UNL     1     -44.152 -52.570  12.934  1.00  0.00     0.273 C 
HETATM   17  C   UNL     1     -41.915 -52.788  13.901  1.00  0.00     0.246 C 
HETATM   18  C   UNL     1     -44.369 -54.080  13.011  1.00  0.00     0.030 C 
HETATM   19  C   UNL     1     -43.559 -54.690  14.148  1.00  0.00     0.004 C 
HETATM   20  C   UNL     1     -42.088 -54.308  14.009  1.00  0.00     0.038 C 
HETATM   21  C   UNL     1     -40.442 -52.415  13.647  1.00  0.00     0.204 C 
HETATM   22  O   UNL     1     -40.243 -50.999  13.718  1.00  0.00    -0.381 OA
ENDBRANCH  12  13
ENDBRANCH   1  12
TORSDOF 3
ENDMDL
MODEL 7
REMARK VINA RESULT:      -5.9      2.743      6.994
REMARK  3 active torsions:
REMARK  status: ('A' for Active; 'I' for Inactive)
REMARK    1  A    between atoms: C_7  and  N_8 
REMARK    2  A    between atoms: N_8  and  C_9 
REMARK    3  A    between atoms: C_9  and  C_10 
ROOT
HETATM    1  N   UNL     1     -40.846 -51.461  11.184  1.00  0.00    -0.262 NA
HETATM    2  H   UNL     1     -40.360 -52.036  10.506  1.00  0.00     0.130 HD
ENDROOT
BRANCH   1   3
HETATM    3  C   UNL     1     -41.447 -52.353  12.046  1.00  0.00     0.157 A 
HETATM    4  N   UNL     1     -40.589 -52.963  12.876  1.00  0.00    -0.343 N 
HETATM    5  C   UNL     1     -41.091 -53.900  13.696  1.00  0.00     0.092 A 
ATOM      6  HN  UNL     1     -39.597 -52.726  12.883  1.00  0.00     0.167 HD
HETATM    7  C   UNL     1     -42.418 -54.237  13.730  1.00  0.00     0.041 A 
HETATM    8  C   UNL     1     -43.235 -53.543  12.861  1.00  0.00     0.009 A 
HETATM    9  C   UNL     1     -44.702 -53.843  12.797  1.00  0.00     0.068 C 
HETATM   10  N   UNL     1     -42.764 -52.598  12.015  1.00  0.00    -0.337 N 
ATOM     11  HN  UNL     1     -43.384 -52.093  11.382  1.00  0.00     0.168 HD
ENDBRANCH   1   3
BRANCH   1  12
HETATM   12  C   UNL     1     -40.113 -50.315  11.707  1.00  0.00     0.129 C 
BRANCH  12  13
HETATM   13  C   UNL     1     -41.136 -49.280  12.241  1.00  0.00     0.163 C 
HETATM   14  C   UNL     1     -40.480 -48.086  12.985  1.00  0.00     0.306 C 
HETATM   15  N   UNL     1     -40.124 -46.930  12.132  1.00  0.00     0.097 N 
HETATM   16  C   UNL     1     -39.656 -45.818  12.972  1.00  0.00     0.273 C 
HETATM   17  C   UNL     1     -41.309 -46.562  11.329  1.00  0.00     0.246 C 
HETATM   18  C   UNL     1     -39.348 -44.570  12.146  1.00  0.00     0.030 C 
HETATM   19  C   UNL     1     -40.558 -44.150  11.320  1.00  0.00     0.004 C 
HETATM   20  C   UNL     1     -41.044 -45.320  10.469  1.00  0.00     0.038 C 
HETATM   21  C   UNL     1     -41.690 -47.771  10.453  1.00  0.00     0.204 C 
HETATM   22  O   UNL     1     -42.107 -48.884  11.253  1.00  0.00    -0.381 OA
ENDBRANCH  12  13
ENDBRANCH   1  12
TORSDOF 3
ENDMDL
MODEL 8
REMARK VINA RESULT:      -5.9      3.046      6.448
REMARK  3 active torsions:
REMARK  status: ('A' for Active; 'I' for Inactive)
REMARK    1  A    between atoms: C_7  and  N_8 
REMARK    2  A    between atoms: N_8  and  C_9 
REMARK    3  A    between atoms: C_9  and  C_10 
ROOT
HETATM    1  N   UNL     1     -40.264 -52.405  12.093  1.00  0.00    -0.262 NA
HETATM    2  H   UNL     1     -39.659 -53.184  11.859  1.00  0.00     0.130 HD
ENDROOT
BRANCH   1   3
HETATM    3  C   UNL     1     -41.436 -52.982  12.534  1.00  0.00     0.157 A 
HETATM    4  N   UNL     1     -42.517 -52.608  11.835  1.00  0.00    -0.343 N 
HETATM    5  C   UNL     1     -43.706 -53.072  12.251  1.00  0.00     0.092 A 
ATOM      6  HN  UNL     1     -42.439 -51.997  11.021  1.00  0.00     0.167 HD
HETATM    7  C   UNL     1     -43.854 -53.906  13.328  1.00  0.00     0.041 A 
HETATM    8  C   UNL     1     -42.688 -54.260  13.975  1.00  0.00     0.009 A 
HETATM    9  C   UNL     1     -42.731 -55.152  15.178  1.00  0.00     0.068 C 
HETATM   10  N   UNL     1     -41.473 -53.807  13.588  1.00  0.00    -0.337 N 
ATOM     11  HN  UNL     1     -40.621 -54.083  14.078  1.00  0.00     0.168 HD
ENDBRANCH   1   3
BRANCH   1  12
HETATM   12  C   UNL     1     -39.655 -51.313  12.843  1.00  0.00     0.129 C 
BRANCH  12  13
HETATM   13  C   UNL     1     -39.253 -50.197  11.845  1.00  0.00     0.163 C 
HETATM   14  C   UNL     1     -40.433 -49.690  10.974  1.00  0.00     0.306 C 
HETATM   15  N   UNL     1     -41.201 -48.563  11.547  1.00  0.00     0.097 N 
HETATM   16  C   UNL     1     -42.186 -48.081  10.567  1.00  0.00     0.273 C 
HETATM   17  C   UNL     1     -40.249 -47.506  11.947  1.00  0.00     0.246 C 
HETATM   18  C   UNL     1     -42.955 -46.865  11.081  1.00  0.00     0.030 C 
HETATM   19  C   UNL     1     -42.001 -45.746  11.482  1.00  0.00     0.004 C 
HETATM   20  C   UNL     1     -40.974 -46.266  12.485  1.00  0.00     0.038 C 
HETATM   21  C   UNL     1     -39.295 -48.093  13.006  1.00  0.00     0.204 C 
HETATM   22  O   UNL     1     -38.488 -49.141  12.457  1.00  0.00    -0.381 OA
ENDBRANCH  12  13
ENDBRANCH   1  12
TORSDOF 3
ENDMDL
MODEL 9
REMARK VINA RESULT:      -5.6      2.561      4.076
REMARK  3 active torsions:
REMARK  status: ('A' for Active; 'I' for Inactive)
REMARK    1  A    between atoms: C_7  and  N_8 
REMARK    2  A    between atoms: N_8  and  C_9 
REMARK    3  A    between atoms: C_9  and  C_10 
ROOT
HETATM    1  N   UNL     1     -41.861 -49.775  11.390  1.00  0.00    -0.262 NA
HETATM    2  H   UNL     1     -42.813 -50.053  11.600  1.00  0.00     0.130 HD
ENDROOT
BRANCH   1   3
HETATM    3  C   UNL     1     -41.956 -48.473  10.947  1.00  0.00     0.157 A 
HETATM    4  N   UNL     1     -43.102 -48.204  10.307  1.00  0.00    -0.343 N 
HETATM    5  C   UNL     1     -43.237 -46.975   9.782  1.00  0.00     0.092 A 
ATOM      6  HN  UNL     1     -43.841 -48.902  10.221  1.00  0.00     0.167 HD
HETATM    7  C   UNL     1     -42.278 -46.002   9.887  1.00  0.00     0.041 A 
HETATM    8  C   UNL     1     -41.140 -46.356  10.583  1.00  0.00     0.009 A 
HETATM    9  C   UNL     1     -40.016 -45.379  10.744  1.00  0.00     0.068 C 
HETATM   10  N   UNL     1     -40.967 -47.587  11.120  1.00  0.00    -0.337 N 
ATOM     11  HN  UNL     1     -40.119 -47.829  11.633  1.00  0.00     0.168 HD
ENDBRANCH   1   3
BRANCH   1  12
HETATM   12  C   UNL     1     -40.846 -50.145  12.369  1.00  0.00     0.129 C 
BRANCH  12  13
HETATM   13  C   UNL     1     -41.553 -50.469  13.710  1.00  0.00     0.163 C 
HETATM   14  C   UNL     1     -43.026 -50.927  13.540  1.00  0.00     0.306 C 
HETATM   15  N   UNL     1     -43.218 -52.384  13.368  1.00  0.00     0.097 N 
HETATM   16  C   UNL     1     -44.654 -52.701  13.370  1.00  0.00     0.273 C 
HETATM   17  C   UNL     1     -42.491 -53.079  14.451  1.00  0.00     0.246 C 
HETATM   18  C   UNL     1     -44.906 -54.204  13.274  1.00  0.00     0.030 C 
HETATM   19  C   UNL     1     -44.187 -54.951  14.391  1.00  0.00     0.004 C 
HETATM   20  C   UNL     1     -42.702 -54.597  14.388  1.00  0.00     0.038 C 
HETATM   21  C   UNL     1     -40.997 -52.722  14.334  1.00  0.00     0.204 C 
HETATM   22  O   UNL     1     -40.775 -51.327  14.566  1.00  0.00    -0.381 OA
ENDBRANCH  12  13
ENDBRANCH   1  12
TORSDOF 3
ENDMDL
