MODEL 1
REMARK VINA RESULT:      -6.3      0.000      0.000
REMARK  7 active torsions:
REMARK  status: ('A' for Active; 'I' for Inactive)
REMARK    1  A    between atoms: C_2  and  C_4 
REMARK    2  A    between atoms: C_4  and  O_5 
REMARK    3  A    between atoms: C_4  and  C_6 
REMARK    4  A    between atoms: C_6  and  C_7 
REMARK    5  A    between atoms: C_10  and  C_11 
REMARK    6  A    between atoms: C_11  and  C_12 
REMARK       I    between atoms: C_12  and  N_14 
REMARK    7  A    between atoms: N_14  and  C_15 
ROOT
HETATM    1  C   UNL     1     -42.592 -52.161  13.092  1.00  0.00     0.150 A 
HETATM    2  N   UNL     1     -42.218 -50.915  12.915  1.00  0.00    -0.326 N 
ATOM      3  HN  UNL     1     -42.490 -50.083  13.438  1.00  0.00     0.169 HD
HETATM    4  C   UNL     1     -41.367 -51.019  11.845  1.00  0.00     0.112 A 
HETATM    5  N   UNL     1     -41.191 -52.265  11.382  1.00  0.00    -0.247 N 
ATOM      6  HN  UNL     1     -40.601 -52.579  10.612  1.00  0.00     0.196 HD
HETATM    7  O   UNL     1     -42.014 -53.030  12.211  1.00  0.00    -0.223 OA
ENDROOT
BRANCH   4   8
HETATM    8  C   UNL     1     -40.743 -49.847  11.201  1.00  0.00     0.181 C 
BRANCH   8   9
HETATM    9  C   UNL     1     -41.654 -48.643  11.275  1.00  0.00     0.225 C 
HETATM   10  O   UNL     1     -41.678 -47.909  12.260  1.00  0.00    -0.273 OA
HETATM   11  N   UNL     1     -42.389 -48.379  10.133  1.00  0.00    -0.356 N 
HETATM   12  H   UNL     1     -42.485 -49.122   9.446  1.00  0.00     0.162 HD
BRANCH  11  13
HETATM   13  C   UNL     1     -43.326 -47.276  10.090  1.00  0.00     0.084 C 
HETATM   14  C   UNL     1     -44.781 -47.722   9.917  1.00  0.00     0.025 C 
HETATM   15  C   UNL     1     -45.473 -46.582   9.162  1.00  0.00     0.002 C 
HETATM   16  C   UNL     1     -44.391 -45.547   8.872  1.00  0.00     0.002 C 
HETATM   17  C   UNL     1     -43.095 -46.341   8.910  1.00  0.00     0.025 C 
ENDBRANCH  11  13
ENDBRANCH   8   9
ENDBRANCH   4   8
BRANCH   1  18
HETATM   18  C   UNL     1     -43.652 -52.695  13.983  1.00  0.00     0.118 C 
BRANCH  18  19
HETATM   19  C   UNL     1     -45.005 -52.888  13.285  1.00  0.00     0.129 C 
BRANCH  19  20
HETATM   20  C   UNL     1     -45.878 -51.606  13.302  1.00  0.00     0.006 C 
HETATM   21  C   UNL     1     -46.848 -51.587  12.114  1.00  0.00     0.012 C 
HETATM   22  C   UNL     1     -46.669 -51.432  14.600  1.00  0.00     0.012 C 
ENDBRANCH  19  20
BRANCH  19  23
HETATM   23  O   UNL     1     -44.796 -53.261  11.917  1.00  0.00    -0.395 OA
HETATM   24  H   UNL     1     -45.131 -52.550  11.343  1.00  0.00     0.210 HD
ENDBRANCH  19  23
ENDBRANCH  18  19
ENDBRANCH   1  18
TORSDOF 7
ENDMDL
MODEL 2
REMARK VINA RESULT:      -6.0      2.031      6.579
REMARK  7 active torsions:
REMARK  status: ('A' for Active; 'I' for Inactive)
REMARK    1  A    between atoms: C_2  and  C_4 
REMARK    2  A    between atoms: C_4  and  O_5 
REMARK    3  A    between atoms: C_4  and  C_6 
REMARK    4  A    between atoms: C_6  and  C_7 
REMARK    5  A    between atoms: C_10  and  C_11 
REMARK    6  A    between atoms: C_11  and  C_12 
REMARK       I    between atoms: C_12  and  N_14 
REMARK    7  A    between atoms: N_14  and  C_15 
ROOT
HETATM    1  C   UNL     1     -42.083 -47.548  10.849  1.00  0.00     0.150 A 
HETATM    2  N   UNL     1     -42.291 -48.829  11.047  1.00  0.00    -0.326 N 
ATOM      3  HN  UNL     1     -43.172 -49.343  11.049  1.00  0.00     0.169 HD
HETATM    4  C   UNL     1     -41.020 -49.299  11.250  1.00  0.00     0.112 A 
HETATM    5  N   UNL     1     -40.054 -48.372  11.163  1.00  0.00    -0.247 N 
ATOM      6  HN  UNL     1     -39.047 -48.494  11.265  1.00  0.00     0.196 HD
HETATM    7  O   UNL     1     -40.764 -47.200  10.900  1.00  0.00    -0.223 OA
ENDROOT
BRANCH   4   8
HETATM    8  C   UNL     1     -40.732 -50.701  11.608  1.00  0.00     0.181 C 
BRANCH   8   9
HETATM    9  C   UNL     1     -41.710 -51.204  12.646  1.00  0.00     0.225 C 
HETATM   10  O   UNL     1     -42.113 -50.486  13.557  1.00  0.00    -0.273 OA
HETATM   11  N   UNL     1     -42.180 -52.491  12.449  1.00  0.00    -0.356 N 
HETATM   12  H   UNL     1     -41.663 -53.095  11.816  1.00  0.00     0.162 HD
BRANCH  11  13
HETATM   13  C   UNL     1     -43.092 -53.102  13.392  1.00  0.00     0.084 C 
HETATM   14  C   UNL     1     -42.411 -54.095  14.339  1.00  0.00     0.025 C 
HETATM   15  C   UNL     1     -43.482 -55.135  14.683  1.00  0.00     0.002 C 
HETATM   16  C   UNL     1     -44.723 -54.747  13.885  1.00  0.00     0.002 C 
HETATM   17  C   UNL     1     -44.177 -53.934  12.721  1.00  0.00     0.025 C 
ENDBRANCH  11  13
ENDBRANCH   8   9
ENDBRANCH   4   8
BRANCH   1  18
HETATM   18  C   UNL     1     -43.077 -46.449  10.752  1.00  0.00     0.118 C 
BRANCH  18  19
HETATM   19  C   UNL     1     -43.324 -45.966   9.316  1.00  0.00     0.129 C 
BRANCH  19  20
HETATM   20  C   UNL     1     -44.347 -46.848   8.554  1.00  0.00     0.006 C 
HETATM   21  C   UNL     1     -43.634 -47.922   7.722  1.00  0.00     0.012 C 
HETATM   22  C   UNL     1     -45.367 -47.521   9.475  1.00  0.00     0.012 C 
ENDBRANCH  19  20
BRANCH  19  23
HETATM   23  O   UNL     1     -43.829 -44.625   9.337  1.00  0.00    -0.395 OA
HETATM   24  H   UNL     1     -43.843 -44.308  10.257  1.00  0.00     0.210 HD
ENDBRANCH  19  23
ENDBRANCH  18  19
ENDBRANCH   1  18
TORSDOF 7
ENDMDL
MODEL 3
REMARK VINA RESULT:      -5.9      2.117      2.509
REMARK  7 active torsions:
REMARK  status: ('A' for Active; 'I' for Inactive)
REMARK    1  A    between atoms: C_2  and  C_4 
REMARK    2  A    between atoms: C_4  and  O_5 
REMARK    3  A    between atoms: C_4  and  C_6 
REMARK    4  A    between atoms: C_6  and  C_7 
REMARK    5  A    between atoms: C_10  and  C_11 
REMARK    6  A    between atoms: C_11  and  C_12 
REMARK       I    between atoms: C_12  and  N_14 
REMARK    7  A    between atoms: N_14  and  C_15 
ROOT
HETATM    1  C   UNL     1     -42.485 -51.979  13.088  1.00  0.00     0.150 A 
HETATM    2  N   UNL     1     -41.910 -50.820  12.868  1.00  0.00    -0.326 N 
ATOM      3  HN  UNL     1     -42.049 -49.933  13.352  1.00  0.00     0.169 HD
HETATM    4  C   UNL     1     -41.074 -51.107  11.821  1.00  0.00     0.112 A 
HETATM    5  N   UNL     1     -41.099 -52.384  11.412  1.00  0.00    -0.247 N 
ATOM      6  HN  UNL     1     -40.558 -52.823  10.667  1.00  0.00     0.196 HD
HETATM    7  O   UNL     1     -42.046 -52.968  12.255  1.00  0.00    -0.223 OA
ENDROOT
BRANCH   4   8
HETATM    8  C   UNL     1     -40.258 -50.082  11.142  1.00  0.00     0.181 C 
BRANCH   8   9
HETATM    9  C   UNL     1     -40.993 -48.762  11.082  1.00  0.00     0.225 C 
HETATM   10  O   UNL     1     -42.219 -48.704  11.054  1.00  0.00    -0.273 OA
HETATM   11  N   UNL     1     -40.196 -47.633  11.148  1.00  0.00    -0.356 N 
HETATM   12  H   UNL     1     -39.202 -47.739  10.960  1.00  0.00     0.162 HD
BRANCH  11  13
HETATM   13  C   UNL     1     -40.774 -46.308  11.063  1.00  0.00     0.084 C 
HETATM   14  C   UNL     1     -39.877 -45.298  10.341  1.00  0.00     0.025 C 
HETATM   15  C   UNL     1     -40.204 -43.938  10.965  1.00  0.00     0.002 C 
HETATM   16  C   UNL     1     -41.229 -44.210  12.061  1.00  0.00     0.002 C 
HETATM   17  C   UNL     1     -41.008 -45.669  12.425  1.00  0.00     0.025 C 
ENDBRANCH  11  13
ENDBRANCH   8   9
ENDBRANCH   4   8
BRANCH   1  18
HETATM   18  C   UNL     1     -43.630 -52.294  13.979  1.00  0.00     0.118 C 
BRANCH  18  19
HETATM   19  C   UNL     1     -44.915 -52.664  13.226  1.00  0.00     0.129 C 
BRANCH  19  20
HETATM   20  C   UNL     1     -45.949 -51.507  13.197  1.00  0.00     0.006 C 
HETATM   21  C   UNL     1     -46.900 -51.651  12.002  1.00  0.00     0.012 C 
HETATM   22  C   UNL     1     -46.770 -51.402  14.484  1.00  0.00     0.012 C 
ENDBRANCH  19  20
BRANCH  19  23
HETATM   23  O   UNL     1     -44.600 -53.006  11.870  1.00  0.00    -0.395 OA
HETATM   24  H   UNL     1     -43.955 -53.735  11.871  1.00  0.00     0.210 HD
ENDBRANCH  19  23
ENDBRANCH  18  19
ENDBRANCH   1  18
TORSDOF 7
ENDMDL
MODEL 4
REMARK VINA RESULT:      -5.9      1.593      2.259
REMARK  7 active torsions:
REMARK  status: ('A' for Active; 'I' for Inactive)
REMARK    1  A    between atoms: C_2  and  C_4 
REMARK    2  A    between atoms: C_4  and  O_5 
REMARK    3  A    between atoms: C_4  and  C_6 
REMARK    4  A    between atoms: C_6  and  C_7 
REMARK    5  A    between atoms: C_10  and  C_11 
REMARK    6  A    between atoms: C_11  and  C_12 
REMARK       I    between atoms: C_12  and  N_14 
REMARK    7  A    between atoms: N_14  and  C_15 
ROOT
HETATM    1  C   UNL     1     -43.451 -53.353  14.113  1.00  0.00     0.150 A 
HETATM    2  N   UNL     1     -42.986 -52.260  13.554  1.00  0.00    -0.326 N 
ATOM      3  HN  UNL     1     -43.308 -51.298  13.662  1.00  0.00     0.169 HD
HETATM    4  C   UNL     1     -41.958 -52.743  12.787  1.00  0.00     0.112 A 
HETATM    5  N   UNL     1     -41.763 -54.067  12.872  1.00  0.00    -0.247 N 
ATOM      6  HN  UNL     1     -41.057 -54.636  12.406  1.00  0.00     0.196 HD
HETATM    7  O   UNL     1     -42.764 -54.478  13.754  1.00  0.00    -0.223 OA
ENDROOT
BRANCH   4   8
HETATM    8  C   UNL     1     -41.165 -51.890  11.881  1.00  0.00     0.181 C 
BRANCH   8   9
HETATM    9  C   UNL     1     -41.412 -50.426  12.166  1.00  0.00     0.225 C 
HETATM   10  O   UNL     1     -41.325 -49.963  13.300  1.00  0.00    -0.273 OA
HETATM   11  N   UNL     1     -41.657 -49.635  11.057  1.00  0.00    -0.356 N 
HETATM   12  H   UNL     1     -41.920 -50.097  10.191  1.00  0.00     0.162 HD
BRANCH  11  13
HETATM   13  C   UNL     1     -41.945 -48.223  11.199  1.00  0.00     0.084 C 
HETATM   14  C   UNL     1     -42.897 -47.687  10.126  1.00  0.00     0.025 C 
HETATM   15  C   UNL     1     -42.513 -46.216   9.934  1.00  0.00     0.002 C 
HETATM   16  C   UNL     1     -41.321 -45.965  10.852  1.00  0.00     0.002 C 
HETATM   17  C   UNL     1     -40.710 -47.343  11.054  1.00  0.00     0.025 C 
ENDBRANCH  11  13
ENDBRANCH   8   9
ENDBRANCH   4   8
BRANCH   1  18
HETATM   18  C   UNL     1     -44.684 -53.534  14.918  1.00  0.00     0.118 C 
BRANCH  18  19
HETATM   19  C   UNL     1     -45.960 -53.655  14.074  1.00  0.00     0.129 C 
BRANCH  19  20
HETATM   20  C   UNL     1     -46.746 -52.322  13.978  1.00  0.00     0.006 C 
HETATM   21  C   UNL     1     -46.457 -51.425  15.189  1.00  0.00     0.012 C 
HETATM   22  C   UNL     1     -46.455 -51.542  12.694  1.00  0.00     0.012 C 
ENDBRANCH  19  20
BRANCH  19  23
HETATM   23  O   UNL     1     -45.623 -54.064  12.743  1.00  0.00    -0.395 OA
HETATM   24  H   UNL     1     -46.272 -53.687  12.124  1.00  0.00     0.210 HD
ENDBRANCH  19  23
ENDBRANCH  18  19
ENDBRANCH   1  18
TORSDOF 7
ENDMDL
MODEL 5
REMARK VINA RESULT:      -5.8      3.401      6.673
REMARK  7 active torsions:
REMARK  status: ('A' for Active; 'I' for Inactive)
REMARK    1  A    between atoms: C_2  and  C_4 
REMARK    2  A    between atoms: C_4  and  O_5 
REMARK    3  A    between atoms: C_4  and  C_6 
REMARK    4  A    between atoms: C_6  and  C_7 
REMARK    5  A    between atoms: C_10  and  C_11 
REMARK    6  A    between atoms: C_11  and  C_12 
REMARK       I    between atoms: C_12  and  N_14 
REMARK    7  A    between atoms: N_14  and  C_15 
ROOT
HETATM    1  C   UNL     1     -41.087 -52.171  12.226  1.00  0.00     0.150 A 
HETATM    2  N   UNL     1     -42.336 -51.806  12.044  1.00  0.00    -0.326 N 
ATOM      3  HN  UNL     1     -42.702 -50.909  11.727  1.00  0.00     0.169 HD
HETATM    4  C   UNL     1     -43.021 -52.943  12.389  1.00  0.00     0.112 A 
HETATM    5  N   UNL     1     -42.250 -53.980  12.748  1.00  0.00    -0.247 N 
ATOM      6  HN  UNL     1     -42.538 -54.917  13.028  1.00  0.00     0.196 HD
HETATM    7  O   UNL     1     -40.957 -53.464  12.645  1.00  0.00    -0.223 OA
ENDROOT
BRANCH   4   8
HETATM    8  C   UNL     1     -44.494 -53.008  12.433  1.00  0.00     0.181 C 
BRANCH   8   9
HETATM    9  C   UNL     1     -44.987 -53.085  13.860  1.00  0.00     0.225 C 
HETATM   10  O   UNL     1     -44.941 -54.129  14.505  1.00  0.00    -0.273 OA
HETATM   11  N   UNL     1     -45.409 -51.888  14.411  1.00  0.00    -0.356 N 
HETATM   12  H   UNL     1     -45.619 -51.120  13.779  1.00  0.00     0.162 HD
BRANCH  11  13
HETATM   13  C   UNL     1     -45.940 -51.834  15.758  1.00  0.00     0.084 C 
HETATM   14  C   UNL     1     -47.466 -51.713  15.805  1.00  0.00     0.025 C 
HETATM   15  C   UNL     1     -47.777 -50.942  17.091  1.00  0.00     0.002 C 
HETATM   16  C   UNL     1     -46.428 -50.592  17.713  1.00  0.00     0.002 C 
HETATM   17  C   UNL     1     -45.459 -50.620  16.541  1.00  0.00     0.025 C 
ENDBRANCH  11  13
ENDBRANCH   8   9
ENDBRANCH   4   8
BRANCH   1  18
HETATM   18  C   UNL     1     -39.862 -51.334  12.200  1.00  0.00     0.118 C 
BRANCH  18  19
HETATM   19  C   UNL     1     -40.090 -49.923  11.641  1.00  0.00     0.129 C 
BRANCH  19  20
HETATM   20  C   UNL     1     -38.827 -49.028  11.737  1.00  0.00     0.006 C 
HETATM   21  C   UNL     1     -38.692 -48.416  13.137  1.00  0.00     0.012 C 
HETATM   22  C   UNL     1     -37.535 -49.769  11.386  1.00  0.00     0.012 C 
ENDBRANCH  19  20
BRANCH  19  23
HETATM   23  O   UNL     1     -40.468 -50.004  10.261  1.00  0.00    -0.395 OA
HETATM   24  H   UNL     1     -39.688 -49.818   9.709  1.00  0.00     0.210 HD
ENDBRANCH  19  23
ENDBRANCH  18  19
ENDBRANCH   1  18
TORSDOF 7
ENDMDL
MODEL 6
REMARK VINA RESULT:      -5.8      2.331      3.241
REMARK  7 active torsions:
REMARK  status: ('A' for Active; 'I' for Inactive)
REMARK    1  A    between atoms: C_2  and  C_4 
REMARK    2  A    between atoms: C_4  and  O_5 
REMARK    3  A    between atoms: C_4  and  C_6 
REMARK    4  A    between atoms: C_6  and  C_7 
REMARK    5  A    between atoms: C_10  and  C_11 
REMARK    6  A    between atoms: C_11  and  C_12 
REMARK       I    between atoms: C_12  and  N_14 
REMARK    7  A    between atoms: N_14  and  C_15 
ROOT
HETATM    1  C   UNL     1     -39.482 -51.982  13.585  1.00  0.00     0.150 A 
HETATM    2  N   UNL     1     -40.211 -50.889  13.573  1.00  0.00    -0.326 N 
ATOM      3  HN  UNL     1     -41.147 -50.740  13.946  1.00  0.00     0.169 HD
HETATM    4  C   UNL     1     -39.388 -50.002  12.930  1.00  0.00     0.112 A 
HETATM    5  N   UNL     1     -38.193 -50.495  12.574  1.00  0.00    -0.247 N 
ATOM      6  HN  UNL     1     -37.425 -50.019  12.101  1.00  0.00     0.196 HD
HETATM    7  O   UNL     1     -38.256 -51.821  13.006  1.00  0.00    -0.223 OA
ENDROOT
BRANCH   4   8
HETATM    8  C   UNL     1     -39.802 -48.627  12.588  1.00  0.00     0.181 C 
BRANCH   8   9
HETATM    9  C   UNL     1     -40.734 -48.626  11.397  1.00  0.00     0.225 C 
HETATM   10  O   UNL     1     -40.809 -49.585  10.634  1.00  0.00    -0.273 OA
HETATM   11  N   UNL     1     -41.550 -47.515  11.279  1.00  0.00    -0.356 N 
HETATM   12  H   UNL     1     -41.299 -46.682  11.805  1.00  0.00     0.162 HD
BRANCH  11  13
HETATM   13  C   UNL     1     -42.460 -47.376  10.161  1.00  0.00     0.084 C 
HETATM   14  C   UNL     1     -42.545 -45.945   9.622  1.00  0.00     0.025 C 
HETATM   15  C   UNL     1     -43.964 -45.801   9.061  1.00  0.00     0.002 C 
HETATM   16  C   UNL     1     -44.668 -47.124   9.344  1.00  0.00     0.002 C 
HETATM   17  C   UNL     1     -43.902 -47.711  10.519  1.00  0.00     0.025 C 
ENDBRANCH  11  13
ENDBRANCH   8   9
ENDBRANCH   4   8
BRANCH   1  18
HETATM   18  C   UNL     1     -39.876 -53.357  13.979  1.00  0.00     0.118 C 
BRANCH  18  19
HETATM   19  C   UNL     1     -40.700 -54.093  12.914  1.00  0.00     0.129 C 
BRANCH  19  20
HETATM   20  C   UNL     1     -42.210 -54.159  13.261  1.00  0.00     0.006 C 
HETATM   21  C   UNL     1     -42.423 -54.177  14.780  1.00  0.00     0.012 C 
HETATM   22  C   UNL     1     -43.019 -53.012  12.653  1.00  0.00     0.012 C 
ENDBRANCH  19  20
BRANCH  19  23
HETATM   23  O   UNL     1     -40.567 -53.425  11.653  1.00  0.00    -0.395 OA
HETATM   24  H   UNL     1     -40.937 -52.529  11.731  1.00  0.00     0.210 HD
ENDBRANCH  19  23
ENDBRANCH  18  19
ENDBRANCH   1  18
TORSDOF 7
ENDMDL
MODEL 7
REMARK VINA RESULT:      -5.7      3.811      4.990
REMARK  7 active torsions:
REMARK  status: ('A' for Active; 'I' for Inactive)
REMARK    1  A    between atoms: C_2  and  C_4 
REMARK    2  A    between atoms: C_4  and  O_5 
REMARK    3  A    between atoms: C_4  and  C_6 
REMARK    4  A    between atoms: C_6  and  C_7 
REMARK    5  A    between atoms: C_10  and  C_11 
REMARK    6  A    between atoms: C_11  and  C_12 
REMARK       I    between atoms: C_12  and  N_14 
REMARK    7  A    between atoms: N_14  and  C_15 
ROOT
HETATM    1  C   UNL     1     -43.943 -54.551  14.365  1.00  0.00     0.150 A 
HETATM    2  N   UNL     1     -42.847 -54.068  13.826  1.00  0.00    -0.326 N 
ATOM      3  HN  UNL     1     -42.742 -53.512  12.978  1.00  0.00     0.169 HD
HETATM    4  C   UNL     1     -41.882 -54.502  14.697  1.00  0.00     0.112 A 
HETATM    5  N   UNL     1     -42.340 -55.202  15.745  1.00  0.00    -0.247 N 
ATOM      6  HN  UNL     1     -41.811 -55.608  16.516  1.00  0.00     0.196 HD
HETATM    7  O   UNL     1     -43.717 -55.241  15.522  1.00  0.00    -0.223 OA
ENDROOT
BRANCH   4   8
HETATM    8  C   UNL     1     -40.441 -54.281  14.470  1.00  0.00     0.181 C 
BRANCH   8   9
HETATM    9  C   UNL     1     -40.218 -53.279  13.360  1.00  0.00     0.225 C 
HETATM   10  O   UNL     1     -40.572 -53.502  12.206  1.00  0.00    -0.273 OA
HETATM   11  N   UNL     1     -39.668 -52.070  13.749  1.00  0.00    -0.356 N 
HETATM   12  H   UNL     1     -39.211 -52.024  14.656  1.00  0.00     0.162 HD
BRANCH  11  13
HETATM   13  C   UNL     1     -39.370 -51.040  12.775  1.00  0.00     0.084 C 
HETATM   14  C   UNL     1     -37.871 -50.868  12.514  1.00  0.00     0.025 C 
HETATM   15  C   UNL     1     -37.687 -49.394  12.138  1.00  0.00     0.002 C 
HETATM   16  C   UNL     1     -39.066 -48.752  12.250  1.00  0.00     0.002 C 
HETATM   17  C   UNL     1     -39.819 -49.653  13.215  1.00  0.00     0.025 C 
ENDBRANCH  11  13
ENDBRANCH   8   9
ENDBRANCH   4   8
BRANCH   1  18
HETATM   18  C   UNL     1     -45.317 -54.586  13.805  1.00  0.00     0.118 C 
BRANCH  18  19
HETATM   19  C   UNL     1     -45.781 -53.243  13.225  1.00  0.00     0.129 C 
BRANCH  19  20
HETATM   20  C   UNL     1     -45.553 -52.057  14.199  1.00  0.00     0.006 C 
HETATM   21  C   UNL     1     -44.720 -50.954  13.535  1.00  0.00     0.012 C 
HETATM   22  C   UNL     1     -46.856 -51.454  14.729  1.00  0.00     0.012 C 
ENDBRANCH  19  20
BRANCH  19  23
HETATM   23  O   UNL     1     -45.064 -52.964  12.016  1.00  0.00    -0.395 OA
HETATM   24  H   UNL     1     -44.110 -52.970  12.208  1.00  0.00     0.210 HD
ENDBRANCH  19  23
ENDBRANCH  18  19
ENDBRANCH   1  18
TORSDOF 7
ENDMDL
MODEL 8
REMARK VINA RESULT:      -5.6      2.808      3.799
REMARK  7 active torsions:
REMARK  status: ('A' for Active; 'I' for Inactive)
REMARK    1  A    between atoms: C_2  and  C_4 
REMARK    2  A    between atoms: C_4  and  O_5 
REMARK    3  A    between atoms: C_4  and  C_6 
REMARK    4  A    between atoms: C_6  and  C_7 
REMARK    5  A    between atoms: C_10  and  C_11 
REMARK    6  A    between atoms: C_11  and  C_12 
REMARK       I    between atoms: C_12  and  N_14 
REMARK    7  A    between atoms: N_14  and  C_15 
ROOT
HETATM    1  C   UNL     1     -40.044 -51.276  12.749  1.00  0.00     0.150 A 
HETATM    2  N   UNL     1     -40.968 -50.385  12.474  1.00  0.00    -0.326 N 
ATOM      3  HN  UNL     1     -41.894 -50.272  12.887  1.00  0.00     0.169 HD
HETATM    4  C   UNL     1     -40.369 -49.644  11.489  1.00  0.00     0.112 A 
HETATM    5  N   UNL     1     -39.124 -50.028  11.171  1.00  0.00    -0.247 N 
ATOM      6  HN  UNL     1     -38.490 -49.619  10.485  1.00  0.00     0.196 HD
HETATM    7  O   UNL     1     -38.907 -51.122  12.009  1.00  0.00    -0.223 OA
ENDROOT
BRANCH   4   8
HETATM    8  C   UNL     1     -41.059 -48.551  10.776  1.00  0.00     0.181 C 
BRANCH   8   9
HETATM    9  C   UNL     1     -40.887 -47.239  11.508  1.00  0.00     0.225 C 
HETATM   10  O   UNL     1     -40.234 -47.156  12.544  1.00  0.00    -0.273 OA
HETATM   11  N   UNL     1     -41.441 -46.133  10.887  1.00  0.00    -0.356 N 
HETATM   12  H   UNL     1     -42.134 -46.292  10.161  1.00  0.00     0.162 HD
BRANCH  11  13
HETATM   13  C   UNL     1     -41.378 -44.824  11.504  1.00  0.00     0.084 C 
HETATM   14  C   UNL     1     -42.581 -43.937  11.171  1.00  0.00     0.025 C 
HETATM   15  C   UNL     1     -42.054 -42.499  11.208  1.00  0.00     0.002 C 
HETATM   16  C   UNL     1     -40.561 -42.602  11.503  1.00  0.00     0.002 C 
HETATM   17  C   UNL     1     -40.185 -44.001  11.038  1.00  0.00     0.025 C 
ENDBRANCH  11  13
ENDBRANCH   8   9
ENDBRANCH   4   8
BRANCH   1  18
HETATM   18  C   UNL     1     -40.144 -52.483  13.607  1.00  0.00     0.118 C 
BRANCH  18  19
HETATM   19  C   UNL     1     -40.641 -53.730  12.863  1.00  0.00     0.129 C 
BRANCH  19  20
HETATM   20  C   UNL     1     -42.061 -54.168  13.308  1.00  0.00     0.006 C 
HETATM   21  C   UNL     1     -42.177 -54.183  14.837  1.00  0.00     0.012 C 
HETATM   22  C   UNL     1     -43.172 -53.290  12.728  1.00  0.00     0.012 C 
ENDBRANCH  19  20
BRANCH  19  23
HETATM   23  O   UNL     1     -40.682 -53.469  11.454  1.00  0.00    -0.395 OA
HETATM   24  H   UNL     1     -40.835 -52.518  11.315  1.00  0.00     0.210 HD
ENDBRANCH  19  23
ENDBRANCH  18  19
ENDBRANCH   1  18
TORSDOF 7
ENDMDL
MODEL 9
REMARK VINA RESULT:      -5.5      4.226      5.180
REMARK  7 active torsions:
REMARK  status: ('A' for Active; 'I' for Inactive)
REMARK    1  A    between atoms: C_2  and  C_4 
REMARK    2  A    between atoms: C_4  and  O_5 
REMARK    3  A    between atoms: C_4  and  C_6 
REMARK    4  A    between atoms: C_6  and  C_7 
REMARK    5  A    between atoms: C_10  and  C_11 
REMARK    6  A    between atoms: C_11  and  C_12 
REMARK       I    between atoms: C_12  and  N_14 
REMARK    7  A    between atoms: N_14  and  C_15 
ROOT
HETATM    1  C   UNL     1     -45.276 -54.003  14.049  1.00  0.00     0.150 A 
HETATM    2  N   UNL     1     -44.065 -53.980  14.557  1.00  0.00    -0.326 N 
ATOM      3  HN  UNL     1     -43.780 -53.962  15.535  1.00  0.00     0.169 HD
HETATM    4  C   UNL     1     -43.281 -53.987  13.432  1.00  0.00     0.112 A 
HETATM    5  N   UNL     1     -43.956 -54.035  12.274  1.00  0.00    -0.247 N 
ATOM      6  HN  UNL     1     -43.584 -54.062  11.324  1.00  0.00     0.196 HD
HETATM    7  O   UNL     1     -45.290 -54.041  12.684  1.00  0.00    -0.223 OA
ENDROOT
BRANCH   4   8
HETATM    8  C   UNL     1     -41.811 -53.878  13.480  1.00  0.00     0.181 C 
BRANCH   8   9
HETATM    9  C   UNL     1     -41.376 -52.430  13.441  1.00  0.00     0.225 C 
HETATM   10  O   UNL     1     -42.189 -51.512  13.389  1.00  0.00    -0.273 OA
HETATM   11  N   UNL     1     -40.014 -52.213  13.553  1.00  0.00    -0.356 N 
HETATM   12  H   UNL     1     -39.391 -52.998  13.382  1.00  0.00     0.162 HD
BRANCH  11  13
HETATM   13  C   UNL     1     -39.467 -50.873  13.491  1.00  0.00     0.084 C 
HETATM   14  C   UNL     1     -38.984 -50.478  12.093  1.00  0.00     0.025 C 
HETATM   15  C   UNL     1     -37.835 -49.490  12.319  1.00  0.00     0.002 C 
HETATM   16  C   UNL     1     -37.653 -49.391  13.830  1.00  0.00     0.002 C 
HETATM   17  C   UNL     1     -38.231 -50.693  14.362  1.00  0.00     0.025 C 
ENDBRANCH  11  13
ENDBRANCH   8   9
ENDBRANCH   4   8
BRANCH   1  18
HETATM   18  C   UNL     1     -46.577 -53.826  14.741  1.00  0.00     0.118 C 
BRANCH  18  19
HETATM   19  C   UNL     1     -47.008 -52.361  14.882  1.00  0.00     0.129 C 
BRANCH  19  20
HETATM   20  C   UNL     1     -46.785 -51.804  16.313  1.00  0.00     0.006 C 
HETATM   21  C   UNL     1     -45.604 -50.825  16.343  1.00  0.00     0.012 C 
HETATM   22  C   UNL     1     -48.023 -51.116  16.891  1.00  0.00     0.012 C 
ENDBRANCH  19  20
BRANCH  19  23
HETATM   23  O   UNL     1     -46.259 -51.546  13.971  1.00  0.00    -0.395 OA
HETATM   24  H   UNL     1     -45.866 -52.117  13.288  1.00  0.00     0.210 HD
ENDBRANCH  19  23
ENDBRANCH  18  19
ENDBRANCH   1  18
TORSDOF 7
ENDMDL
