MODEL 1
REMARK VINA RESULT:      -6.3      0.000      0.000
REMARK  8 active torsions:
REMARK  status: ('A' for Active; 'I' for Inactive)
REMARK    1  A    between atoms: N_1  and  C_2 
REMARK    2  A    between atoms: C_10  and  O_12 
REMARK    3  A    between atoms: C_11  and  C_17 
REMARK    4  A    between atoms: O_12  and  C_14 
REMARK    5  A    between atoms: C_14  and  C_23 
REMARK    6  A    between atoms: C_15  and  O_20 
REMARK    7  A    between atoms: C_15  and  C_24 
REMARK    8  A    between atoms: C_17  and  O_20 
ROOT
HETATM    1  C   UNL     1     -40.748 -48.193  12.010  1.00  0.00     0.249 C 
HETATM    2  C   UNL     1     -41.986 -48.756  11.296  1.00  0.00     0.139 C 
HETATM    3  O   UNL     1     -40.366 -47.009  11.285  1.00  0.00    -0.355 OA
HETATM    4  C   UNL     1     -42.441 -47.630  10.363  1.00  0.00     0.181 C 
HETATM    5  C   UNL     1     -41.592 -46.428  10.783  1.00  0.00     0.179 C 
HETATM    6 BR   UNL     1     -43.344 -49.298  12.594  1.00  0.00    -0.084 Br
ENDROOT
BRANCH   1   7
HETATM    7  N   UNL     1     -39.637 -49.137  12.127  1.00  0.00    -0.278 N 
HETATM    8  C   UNL     1     -39.565 -49.877  13.306  1.00  0.00     0.331 C 
HETATM    9  N   UNL     1     -38.569 -50.813  13.371  1.00  0.00    -0.273 N 
HETATM   10  O   UNL     1     -40.317 -49.721  14.265  1.00  0.00    -0.246 OA
HETATM   11  C   UNL     1     -37.535 -50.948  12.483  1.00  0.00     0.289 C 
HETATM   12  H   UNL     1     -38.501 -51.335  14.231  1.00  0.00     0.173 HD
HETATM   13  C   UNL     1     -37.663 -50.131  11.261  1.00  0.00     0.199 C 
HETATM   14  O   UNL     1     -36.577 -51.680  12.701  1.00  0.00    -0.265 OA
HETATM   15  C   UNL     1     -38.691 -49.289  11.126  1.00  0.00     0.146 C 
HETATM   16  F   UNL     1     -36.705 -50.260  10.327  1.00  0.00    -0.199 F 
ENDBRANCH   1   7
BRANCH   4  17
HETATM   17  O   UNL     1     -43.844 -47.336  10.361  1.00  0.00    -0.312 OA
BRANCH  17  18
HETATM   18  C   UNL     1     -44.456 -47.428   9.144  1.00  0.00     0.258 C 
HETATM   19  O   UNL     1     -43.874 -47.704   8.102  1.00  0.00    -0.265 OA
BRANCH  18  20
HETATM   20  C   UNL     1     -45.941 -47.207   9.294  1.00  0.00     0.106 C 
HETATM   21  C   UNL     1     -46.742 -48.424   8.863  1.00  0.00     0.015 C 
ENDBRANCH  18  20
ENDBRANCH  17  18
ENDBRANCH   4  17
BRANCH   5  22
HETATM   22  C   UNL     1     -42.245 -45.518  11.837  1.00  0.00     0.213 C 
BRANCH  22  23
HETATM   23  O   UNL     1     -42.129 -44.131  11.458  1.00  0.00    -0.319 OA
BRANCH  23  24
HETATM   24  C   UNL     1     -40.854 -43.663  11.351  1.00  0.00     0.258 C 
HETATM   25  O   UNL     1     -40.278 -43.454  10.292  1.00  0.00    -0.265 OA
BRANCH  24  26
HETATM   26  C   UNL     1     -40.268 -43.454  12.725  1.00  0.00     0.106 C 
HETATM   27  C   UNL     1     -38.945 -44.184  12.892  1.00  0.00     0.015 C 
ENDBRANCH  24  26
ENDBRANCH  23  24
ENDBRANCH  22  23
ENDBRANCH   5  22
TORSDOF 8
ENDMDL
MODEL 2
REMARK VINA RESULT:      -6.2      3.142      7.441
REMARK  8 active torsions:
REMARK  status: ('A' for Active; 'I' for Inactive)
REMARK    1  A    between atoms: N_1  and  C_2 
REMARK    2  A    between atoms: C_10  and  O_12 
REMARK    3  A    between atoms: C_11  and  C_17 
REMARK    4  A    between atoms: O_12  and  C_14 
REMARK    5  A    between atoms: C_14  and  C_23 
REMARK    6  A    between atoms: C_15  and  O_20 
REMARK    7  A    between atoms: C_15  and  C_24 
REMARK    8  A    between atoms: C_17  and  O_20 
ROOT
HETATM    1  C   UNL     1     -41.508 -48.372  12.056  1.00  0.00     0.249 C 
HETATM    2  C   UNL     1     -39.987 -48.446  11.854  1.00  0.00     0.139 C 
HETATM    3  O   UNL     1     -42.004 -49.713  11.882  1.00  0.00    -0.355 OA
HETATM    4  C   UNL     1     -39.661 -49.942  11.900  1.00  0.00     0.181 C 
HETATM    5  C   UNL     1     -40.965 -50.595  12.365  1.00  0.00     0.179 C 
HETATM    6 BR   UNL     1     -39.059 -47.398  13.219  1.00  0.00    -0.084 Br
ENDROOT
BRANCH   1   7
HETATM    7  N   UNL     1     -42.189 -47.426  11.172  1.00  0.00    -0.278 N 
HETATM    8  C   UNL     1     -42.482 -46.171  11.705  1.00  0.00     0.331 C 
HETATM    9  N   UNL     1     -43.047 -45.269  10.845  1.00  0.00    -0.273 N 
HETATM   10  O   UNL     1     -42.281 -45.855  12.874  1.00  0.00    -0.246 OA
HETATM   11  C   UNL     1     -43.524 -45.543   9.592  1.00  0.00     0.289 C 
HETATM   12  H   UNL     1     -43.280 -44.367  11.233  1.00  0.00     0.173 HD
HETATM   13  C   UNL     1     -43.191 -46.889   9.088  1.00  0.00     0.199 C 
HETATM   14  O   UNL     1     -44.185 -44.735   8.952  1.00  0.00    -0.265 OA
HETATM   15  C   UNL     1     -42.539 -47.753   9.872  1.00  0.00     0.146 C 
HETATM   16  F   UNL     1     -43.586 -47.200   7.842  1.00  0.00    -0.199 F 
ENDBRANCH   1   7
BRANCH   4  17
HETATM   17  O   UNL     1     -38.540 -50.322  12.707  1.00  0.00    -0.312 OA
BRANCH  17  18
HETATM   18  C   UNL     1     -37.453 -50.775  12.015  1.00  0.00     0.258 C 
HETATM   19  O   UNL     1     -36.874 -51.827  12.258  1.00  0.00    -0.265 OA
BRANCH  18  20
HETATM   20  C   UNL     1     -37.128 -49.830  10.885  1.00  0.00     0.106 C 
HETATM   21  C   UNL     1     -36.531 -50.557   9.691  1.00  0.00     0.015 C 
ENDBRANCH  18  20
ENDBRANCH  17  18
ENDBRANCH   4  17
BRANCH   5  22
HETATM   22  C   UNL     1     -41.073 -50.798  13.887  1.00  0.00     0.213 C 
BRANCH  22  23
HETATM   23  O   UNL     1     -41.525 -52.133  14.193  1.00  0.00    -0.319 OA
BRANCH  23  24
HETATM   24  C   UNL     1     -40.657 -53.131  13.864  1.00  0.00     0.258 C 
HETATM   25  O   UNL     1     -39.471 -53.147  14.163  1.00  0.00    -0.265 OA
BRANCH  24  26
HETATM   26  C   UNL     1     -41.377 -54.195  13.073  1.00  0.00     0.106 C 
HETATM   27  C   UNL     1     -42.886 -54.070  13.202  1.00  0.00     0.015 C 
ENDBRANCH  24  26
ENDBRANCH  23  24
ENDBRANCH  22  23
ENDBRANCH   5  22
TORSDOF 8
ENDMDL
MODEL 3
REMARK VINA RESULT:      -6.1      3.527      5.408
REMARK  8 active torsions:
REMARK  status: ('A' for Active; 'I' for Inactive)
REMARK    1  A    between atoms: N_1  and  C_2 
REMARK    2  A    between atoms: C_10  and  O_12 
REMARK    3  A    between atoms: C_11  and  C_17 
REMARK    4  A    between atoms: O_12  and  C_14 
REMARK    5  A    between atoms: C_14  and  C_23 
REMARK    6  A    between atoms: C_15  and  O_20 
REMARK    7  A    between atoms: C_15  and  C_24 
REMARK    8  A    between atoms: C_17  and  O_20 
ROOT
HETATM    1  C   UNL     1     -41.494 -50.716  12.992  1.00  0.00     0.249 C 
HETATM    2  C   UNL     1     -42.333 -49.459  12.719  1.00  0.00     0.139 C 
HETATM    3  O   UNL     1     -40.789 -51.006  11.770  1.00  0.00    -0.355 OA
HETATM    4  C   UNL     1     -41.781 -48.902  11.403  1.00  0.00     0.181 C 
HETATM    5  C   UNL     1     -40.518 -49.728  11.147  1.00  0.00     0.179 C 
HETATM    6 BR   UNL     1     -42.208 -48.207  14.216  1.00  0.00    -0.084 Br
ENDROOT
BRANCH   1   7
HETATM    7  N   UNL     1     -42.266 -51.869  13.454  1.00  0.00    -0.278 N 
HETATM    8  C   UNL     1     -42.209 -52.154  14.818  1.00  0.00     0.331 C 
HETATM    9  N   UNL     1     -42.998 -53.185  15.251  1.00  0.00    -0.273 N 
HETATM   10  O   UNL     1     -41.494 -51.557  15.618  1.00  0.00    -0.246 OA
HETATM   11  C   UNL     1     -43.672 -54.072  14.454  1.00  0.00     0.289 C 
HETATM   12  H   UNL     1     -42.943 -53.408  16.234  1.00  0.00     0.173 HD
HETATM   13  C   UNL     1     -43.687 -53.721  13.021  1.00  0.00     0.199 C 
HETATM   14  O   UNL     1     -44.204 -55.080  14.901  1.00  0.00    -0.265 OA
HETATM   15  C   UNL     1     -43.014 -52.651  12.588  1.00  0.00     0.146 C 
HETATM   16  F   UNL     1     -44.377 -54.524  12.194  1.00  0.00    -0.199 F 
ENDBRANCH   1   7
BRANCH   4  17
HETATM   17  O   UNL     1     -41.528 -47.492  11.368  1.00  0.00    -0.312 OA
BRANCH  17  18
HETATM   18  C   UNL     1     -42.142 -46.817  10.351  1.00  0.00     0.258 C 
HETATM   19  O   UNL     1     -41.724 -45.770   9.872  1.00  0.00    -0.265 OA
BRANCH  18  20
HETATM   20  C   UNL     1     -43.352 -47.583   9.877  1.00  0.00     0.106 C 
HETATM   21  C   UNL     1     -43.522 -47.499   8.369  1.00  0.00     0.015 C 
ENDBRANCH  18  20
ENDBRANCH  17  18
ENDBRANCH   4  17
BRANCH   5  22
HETATM   22  C   UNL     1     -39.222 -49.107  11.697  1.00  0.00     0.213 C 
BRANCH  22  23
HETATM   23  O   UNL     1     -38.077 -49.904  11.330  1.00  0.00    -0.319 OA
BRANCH  23  24
HETATM   24  C   UNL     1     -37.509 -50.609  12.349  1.00  0.00     0.258 C 
HETATM   25  O   UNL     1     -36.897 -51.659  12.210  1.00  0.00    -0.265 OA
BRANCH  24  26
HETATM   26  C   UNL     1     -37.760 -49.906  13.660  1.00  0.00     0.106 C 
HETATM   27  C   UNL     1     -38.135 -50.883  14.762  1.00  0.00     0.015 C 
ENDBRANCH  24  26
ENDBRANCH  23  24
ENDBRANCH  22  23
ENDBRANCH   5  22
TORSDOF 8
ENDMDL
MODEL 4
REMARK VINA RESULT:      -6.0      3.577      7.381
REMARK  8 active torsions:
REMARK  status: ('A' for Active; 'I' for Inactive)
REMARK    1  A    between atoms: N_1  and  C_2 
REMARK    2  A    between atoms: C_10  and  O_12 
REMARK    3  A    between atoms: C_11  and  C_17 
REMARK    4  A    between atoms: O_12  and  C_14 
REMARK    5  A    between atoms: C_14  and  C_23 
REMARK    6  A    between atoms: C_15  and  O_20 
REMARK    7  A    between atoms: C_15  and  C_24 
REMARK    8  A    between atoms: C_17  and  O_20 
ROOT
HETATM    1  C   UNL     1     -42.423 -48.491  12.737  1.00  0.00     0.249 C 
HETATM    2  C   UNL     1     -40.957 -48.943  12.796  1.00  0.00     0.139 C 
HETATM    3  O   UNL     1     -43.213 -49.691  12.638  1.00  0.00    -0.355 OA
HETATM    4  C   UNL     1     -41.026 -50.450  13.063  1.00  0.00     0.181 C 
HETATM    5  C   UNL     1     -42.500 -50.707  13.380  1.00  0.00     0.179 C 
HETATM    6 BR   UNL     1     -39.982 -47.946  14.167  1.00  0.00    -0.084 Br
ENDROOT
BRANCH   1   7
HETATM    7  N   UNL     1     -42.724 -47.556  11.652  1.00  0.00    -0.278 N 
HETATM    8  C   UNL     1     -42.864 -46.214  12.004  1.00  0.00     0.331 C 
HETATM    9  N   UNL     1     -43.066 -45.339  10.971  1.00  0.00    -0.273 N 
HETATM   10  O   UNL     1     -42.836 -45.797  13.158  1.00  0.00    -0.246 OA
HETATM   11  C   UNL     1     -43.335 -45.677   9.672  1.00  0.00     0.289 C 
HETATM   12  H   UNL     1     -43.190 -44.370  11.223  1.00  0.00     0.173 HD
HETATM   13  C   UNL     1     -43.179 -47.112   9.366  1.00  0.00     0.199 C 
HETATM   14  O   UNL     1     -43.691 -44.851   8.840  1.00  0.00    -0.265 OA
HETATM   15  C   UNL     1     -42.872 -47.973  10.339  1.00  0.00     0.146 C 
HETATM   16  F   UNL     1     -43.378 -47.499   8.094  1.00  0.00    -0.199 F 
ENDBRANCH   1   7
BRANCH   4  17
HETATM   17  O   UNL     1     -40.151 -50.954  14.080  1.00  0.00    -0.312 OA
BRANCH  17  18
HETATM   18  C   UNL     1     -39.171 -51.796  13.639  1.00  0.00     0.258 C 
HETATM   19  O   UNL     1     -39.364 -52.958  13.301  1.00  0.00    -0.265 OA
BRANCH  18  20
HETATM   20  C   UNL     1     -37.853 -51.066  13.570  1.00  0.00     0.106 C 
HETATM   21  C   UNL     1     -37.481 -50.699  12.142  1.00  0.00     0.015 C 
ENDBRANCH  18  20
ENDBRANCH  17  18
ENDBRANCH   4  17
BRANCH   5  22
HETATM   22  C   UNL     1     -42.854 -50.649  14.877  1.00  0.00     0.213 C 
BRANCH  22  23
HETATM   23  O   UNL     1     -44.270 -50.443  15.060  1.00  0.00    -0.319 OA
BRANCH  23  24
HETATM   24  C   UNL     1     -45.017 -51.580  15.144  1.00  0.00     0.258 C 
HETATM   25  O   UNL     1     -44.627 -52.633  15.629  1.00  0.00    -0.265 OA
BRANCH  24  26
HETATM   26  C   UNL     1     -46.381 -51.342  14.543  1.00  0.00     0.106 C 
HETATM   27  C   UNL     1     -46.381 -51.561  13.040  1.00  0.00     0.015 C 
ENDBRANCH  24  26
ENDBRANCH  23  24
ENDBRANCH  22  23
ENDBRANCH   5  22
TORSDOF 8
ENDMDL
MODEL 5
REMARK VINA RESULT:      -6.0      3.662      5.986
REMARK  8 active torsions:
REMARK  status: ('A' for Active; 'I' for Inactive)
REMARK    1  A    between atoms: N_1  and  C_2 
REMARK    2  A    between atoms: C_10  and  O_12 
REMARK    3  A    between atoms: C_11  and  C_17 
REMARK    4  A    between atoms: O_12  and  C_14 
REMARK    5  A    between atoms: C_14  and  C_23 
REMARK    6  A    between atoms: C_15  and  O_20 
REMARK    7  A    between atoms: C_15  and  C_24 
REMARK    8  A    between atoms: C_17  and  O_20 
ROOT
HETATM    1  C   UNL     1     -41.640 -50.500  12.605  1.00  0.00     0.249 C 
HETATM    2  C   UNL     1     -42.268 -49.102  12.514  1.00  0.00     0.139 C 
HETATM    3  O   UNL     1     -40.815 -50.651  11.435  1.00  0.00    -0.355 OA
HETATM    4  C   UNL     1     -41.473 -48.390  11.415  1.00  0.00     0.181 C 
HETATM    5  C   UNL     1     -40.302 -49.333  11.129  1.00  0.00     0.179 C 
HETATM    6 BR   UNL     1     -42.194 -48.198  14.247  1.00  0.00    -0.084 Br
ENDROOT
BRANCH   1   7
HETATM    7  N   UNL     1     -42.608 -51.590  12.726  1.00  0.00    -0.278 N 
HETATM    8  C   UNL     1     -42.116 -52.885  12.569  1.00  0.00     0.331 C 
HETATM    9  N   UNL     1     -43.014 -53.899  12.763  1.00  0.00    -0.273 N 
HETATM   10  O   UNL     1     -40.958 -53.149  12.256  1.00  0.00    -0.246 OA
HETATM   11  C   UNL     1     -44.369 -53.757  12.898  1.00  0.00     0.289 C 
HETATM   12  H   UNL     1     -42.667 -54.837  12.629  1.00  0.00     0.173 HD
HETATM   13  C   UNL     1     -44.829 -52.363  13.049  1.00  0.00     0.199 C 
HETATM   14  O   UNL     1     -45.133 -54.714  12.879  1.00  0.00    -0.265 OA
HETATM   15  C   UNL     1     -43.952 -51.359  12.975  1.00  0.00     0.146 C 
HETATM   16  F   UNL     1     -46.144 -52.162  13.239  1.00  0.00    -0.199 F 
ENDBRANCH   1   7
BRANCH   4  17
HETATM   17  O   UNL     1     -41.043 -47.055  11.707  1.00  0.00    -0.312 OA
BRANCH  17  18
HETATM   18  C   UNL     1     -41.164 -46.166  10.677  1.00  0.00     0.258 C 
HETATM   19  O   UNL     1     -42.102 -46.152   9.889  1.00  0.00    -0.265 OA
BRANCH  18  20
HETATM   20  C   UNL     1     -40.020 -45.184  10.703  1.00  0.00     0.106 C 
HETATM   21  C   UNL     1     -39.544 -44.904  12.119  1.00  0.00     0.015 C 
ENDBRANCH  18  20
ENDBRANCH  17  18
ENDBRANCH   4  17
BRANCH   5  22
HETATM   22  C   UNL     1     -39.026 -49.034  11.937  1.00  0.00     0.213 C 
BRANCH  22  23
HETATM   23  O   UNL     1     -37.935 -49.868  11.496  1.00  0.00    -0.319 OA
BRANCH  23  24
HETATM   24  C   UNL     1     -37.497 -50.783  12.406  1.00  0.00     0.258 C 
HETATM   25  O   UNL     1     -36.841 -51.777  12.130  1.00  0.00    -0.265 OA
BRANCH  24  26
HETATM   26  C   UNL     1     -37.952 -50.387  13.789  1.00  0.00     0.106 C 
HETATM   27  C   UNL     1     -38.603 -51.548  14.523  1.00  0.00     0.015 C 
ENDBRANCH  24  26
ENDBRANCH  23  24
ENDBRANCH  22  23
ENDBRANCH   5  22
TORSDOF 8
ENDMDL
MODEL 6
REMARK VINA RESULT:      -5.9      3.534      7.212
REMARK  8 active torsions:
REMARK  status: ('A' for Active; 'I' for Inactive)
REMARK    1  A    between atoms: N_1  and  C_2 
REMARK    2  A    between atoms: C_10  and  O_12 
REMARK    3  A    between atoms: C_11  and  C_17 
REMARK    4  A    between atoms: O_12  and  C_14 
REMARK    5  A    between atoms: C_14  and  C_23 
REMARK    6  A    between atoms: C_15  and  O_20 
REMARK    7  A    between atoms: C_15  and  C_24 
REMARK    8  A    between atoms: C_17  and  O_20 
ROOT
HETATM    1  C   UNL     1     -41.741 -48.685  12.694  1.00  0.00     0.249 C 
HETATM    2  C   UNL     1     -40.599 -49.304  13.514  1.00  0.00     0.139 C 
HETATM    3  O   UNL     1     -42.029 -49.616  11.634  1.00  0.00    -0.355 OA
HETATM    4  C   UNL     1     -40.525 -50.758  13.040  1.00  0.00     0.181 C 
HETATM    5  C   UNL     1     -41.774 -50.934  12.173  1.00  0.00     0.179 C 
HETATM    6 BR   UNL     1     -40.947 -49.119  15.430  1.00  0.00    -0.084 Br
ENDROOT
BRANCH   1   7
HETATM    7  N   UNL     1     -41.455 -47.348  12.175  1.00  0.00    -0.278 N 
HETATM    8  C   UNL     1     -42.297 -46.319  12.597  1.00  0.00     0.331 C 
HETATM    9  N   UNL     1     -41.972 -45.061  12.169  1.00  0.00    -0.273 N 
HETATM   10  O   UNL     1     -43.293 -46.486  13.295  1.00  0.00    -0.246 OA
HETATM   11  C   UNL     1     -41.033 -44.752  11.221  1.00  0.00     0.289 C 
HETATM   12  H   UNL     1     -42.592 -44.317  12.454  1.00  0.00     0.173 HD
HETATM   13  C   UNL     1     -40.182 -45.883  10.808  1.00  0.00     0.199 C 
HETATM   14  O   UNL     1     -40.925 -43.627  10.749  1.00  0.00    -0.265 OA
HETATM   15  C   UNL     1     -40.409 -47.105  11.300  1.00  0.00     0.146 C 
HETATM   16  F   UNL     1     -39.206 -45.632   9.920  1.00  0.00    -0.199 F 
ENDBRANCH   1   7
BRANCH   4  17
HETATM   17  O   UNL     1     -40.425 -51.755  14.065  1.00  0.00    -0.312 OA
BRANCH  17  18
HETATM   18  C   UNL     1     -39.625 -52.820  13.764  1.00  0.00     0.258 C 
HETATM   19  O   UNL     1     -38.414 -52.744  13.597  1.00  0.00    -0.265 OA
BRANCH  18  20
HETATM   20  C   UNL     1     -40.440 -54.089  13.737  1.00  0.00     0.106 C 
HETATM   21  C   UNL     1     -41.353 -54.203  14.947  1.00  0.00     0.015 C 
ENDBRANCH  18  20
ENDBRANCH  17  18
ENDBRANCH   4  17
BRANCH   5  22
HETATM   22  C   UNL     1     -43.005 -51.474  12.922  1.00  0.00     0.213 C 
BRANCH  22  23
HETATM   23  O   UNL     1     -43.440 -52.727  12.355  1.00  0.00    -0.319 OA
BRANCH  23  24
HETATM   24  C   UNL     1     -44.700 -53.115  12.700  1.00  0.00     0.258 C 
HETATM   25  O   UNL     1     -45.102 -54.270  12.676  1.00  0.00    -0.265 OA
BRANCH  24  26
HETATM   26  C   UNL     1     -45.515 -51.910  13.101  1.00  0.00     0.106 C 
HETATM   27  C   UNL     1     -46.734 -51.732  12.212  1.00  0.00     0.015 C 
ENDBRANCH  24  26
ENDBRANCH  23  24
ENDBRANCH  22  23
ENDBRANCH   5  22
TORSDOF 8
ENDMDL
MODEL 7
REMARK VINA RESULT:      -5.8      4.774      7.863
REMARK  8 active torsions:
REMARK  status: ('A' for Active; 'I' for Inactive)
REMARK    1  A    between atoms: N_1  and  C_2 
REMARK    2  A    between atoms: C_10  and  O_12 
REMARK    3  A    between atoms: C_11  and  C_17 
REMARK    4  A    between atoms: O_12  and  C_14 
REMARK    5  A    between atoms: C_14  and  C_23 
REMARK    6  A    between atoms: C_15  and  O_20 
REMARK    7  A    between atoms: C_15  and  C_24 
REMARK    8  A    between atoms: C_17  and  O_20 
ROOT
HETATM    1  C   UNL     1     -41.187 -52.158  13.498  1.00  0.00     0.249 C 
HETATM    2  C   UNL     1     -40.895 -52.686  14.910  1.00  0.00     0.139 C 
HETATM    3  O   UNL     1     -41.605 -53.294  12.718  1.00  0.00    -0.355 OA
HETATM    4  C   UNL     1     -41.501 -54.093  14.930  1.00  0.00     0.181 C 
HETATM    5  C   UNL     1     -42.302 -54.176  13.629  1.00  0.00     0.179 C 
HETATM    6 BR   UNL     1     -41.644 -51.490  16.263  1.00  0.00    -0.084 Br
ENDROOT
BRANCH   1   7
HETATM    7  N   UNL     1     -40.067 -51.457  12.871  1.00  0.00    -0.278 N 
HETATM    8  C   UNL     1     -40.381 -50.558  11.852  1.00  0.00     0.331 C 
HETATM    9  N   UNL     1     -39.333 -49.850  11.329  1.00  0.00    -0.273 N 
HETATM   10  O   UNL     1     -41.512 -50.392  11.404  1.00  0.00    -0.246 OA
HETATM   11  C   UNL     1     -38.005 -50.083  11.572  1.00  0.00     0.289 C 
HETATM   12  H   UNL     1     -39.553 -49.215  10.577  1.00  0.00     0.173 HD
HETATM   13  C   UNL     1     -37.738 -51.050  12.653  1.00  0.00     0.199 C 
HETATM   14  O   UNL     1     -37.117 -49.538  10.928  1.00  0.00    -0.265 OA
HETATM   15  C   UNL     1     -38.753 -51.674  13.257  1.00  0.00     0.146 C 
HETATM   16  F   UNL     1     -36.454 -51.281  12.974  1.00  0.00    -0.199 F 
ENDBRANCH   1   7
BRANCH   4  17
HETATM   17  O   UNL     1     -42.288 -54.428  16.080  1.00  0.00    -0.312 OA
BRANCH  17  18
HETATM   18  C   UNL     1     -42.119 -55.699  16.550  1.00  0.00     0.258 C 
HETATM   19  O   UNL     1     -42.825 -56.648  16.232  1.00  0.00    -0.265 OA
BRANCH  18  20
HETATM   20  C   UNL     1     -40.910 -55.762  17.450  1.00  0.00     0.106 C 
HETATM   21  C   UNL     1     -39.934 -56.842  17.015  1.00  0.00     0.015 C 
ENDBRANCH  18  20
ENDBRANCH  17  18
ENDBRANCH   4  17
BRANCH   5  22
HETATM   22  C   UNL     1     -43.783 -53.777  13.761  1.00  0.00     0.213 C 
BRANCH  22  23
HETATM   23  O   UNL     1     -44.275 -53.224  12.523  1.00  0.00    -0.319 OA
BRANCH  23  24
HETATM   24  C   UNL     1     -45.453 -52.543  12.618  1.00  0.00     0.258 C 
HETATM   25  O   UNL     1     -46.430 -52.744  11.911  1.00  0.00    -0.265 OA
BRANCH  24  26
HETATM   26  C   UNL     1     -45.359 -51.509  13.713  1.00  0.00     0.106 C 
HETATM   27  C   UNL     1     -46.638 -51.431  14.528  1.00  0.00     0.015 C 
ENDBRANCH  24  26
ENDBRANCH  23  24
ENDBRANCH  22  23
ENDBRANCH   5  22
TORSDOF 8
ENDMDL
MODEL 8
REMARK VINA RESULT:      -5.8      5.354      8.930
REMARK  8 active torsions:
REMARK  status: ('A' for Active; 'I' for Inactive)
REMARK    1  A    between atoms: N_1  and  C_2 
REMARK    2  A    between atoms: C_10  and  O_12 
REMARK    3  A    between atoms: C_11  and  C_17 
REMARK    4  A    between atoms: O_12  and  C_14 
REMARK    5  A    between atoms: C_14  and  C_23 
REMARK    6  A    between atoms: C_15  and  O_20 
REMARK    7  A    between atoms: C_15  and  C_24 
REMARK    8  A    between atoms: C_17  and  O_20 
ROOT
HETATM    1  C   UNL     1     -42.005 -52.258  14.071  1.00  0.00     0.249 C 
HETATM    2  C   UNL     1     -40.801 -52.580  14.969  1.00  0.00     0.139 C 
HETATM    3  O   UNL     1     -42.354 -53.486  13.405  1.00  0.00    -0.355 OA
HETATM    4  C   UNL     1     -40.742 -54.110  15.003  1.00  0.00     0.181 C 
HETATM    5  C   UNL     1     -42.046 -54.551  14.333  1.00  0.00     0.179 C 
HETATM    6 BR   UNL     1     -41.017 -51.763  16.732  1.00  0.00    -0.084 Br
ENDROOT
BRANCH   1   7
HETATM    7  N   UNL     1     -41.773 -51.174  13.117  1.00  0.00    -0.278 N 
HETATM    8  C   UNL     1     -42.868 -50.366  12.809  1.00  0.00     0.331 C 
HETATM    9  N   UNL     1     -42.620 -49.307  11.977  1.00  0.00    -0.273 N 
HETATM   10  O   UNL     1     -44.008 -50.564  13.219  1.00  0.00    -0.246 OA
HETATM   11  C   UNL     1     -41.464 -49.090  11.276  1.00  0.00     0.289 C 
HETATM   12  H   UNL     1     -43.414 -48.734  11.735  1.00  0.00     0.173 HD
HETATM   13  C   UNL     1     -40.348 -49.982  11.639  1.00  0.00     0.199 C 
HETATM   14  O   UNL     1     -41.377 -48.230  10.408  1.00  0.00    -0.265 OA
HETATM   15  C   UNL     1     -40.535 -50.956  12.534  1.00  0.00     0.146 C 
HETATM   16  F   UNL     1     -39.170 -49.784  11.023  1.00  0.00    -0.199 F 
ENDBRANCH   1   7
BRANCH   4  17
HETATM   17  O   UNL     1     -40.559 -54.709  16.292  1.00  0.00    -0.312 OA
BRANCH  17  18
HETATM   18  C   UNL     1     -39.842 -55.872  16.297  1.00  0.00     0.258 C 
HETATM   19  O   UNL     1     -38.728 -55.994  15.804  1.00  0.00    -0.265 OA
BRANCH  18  20
HETATM   20  C   UNL     1     -40.596 -56.942  17.047  1.00  0.00     0.106 C 
HETATM   21  C   UNL     1     -39.669 -58.018  17.587  1.00  0.00     0.015 C 
ENDBRANCH  18  20
ENDBRANCH  17  18
ENDBRANCH   4  17
BRANCH   5  22
HETATM   22  C   UNL     1     -43.215 -54.796  15.304  1.00  0.00     0.213 C 
BRANCH  22  23
HETATM   23  O   UNL     1     -44.249 -55.578  14.672  1.00  0.00    -0.319 OA
BRANCH  23  24
HETATM   24  C   UNL     1     -45.236 -54.857  14.069  1.00  0.00     0.258 C 
HETATM   25  O   UNL     1     -45.328 -54.681  12.862  1.00  0.00    -0.265 OA
BRANCH  24  26
HETATM   26  C   UNL     1     -46.180 -54.310  15.111  1.00  0.00     0.106 C 
HETATM   27  C   UNL     1     -46.844 -53.023  14.652  1.00  0.00     0.015 C 
ENDBRANCH  24  26
ENDBRANCH  23  24
ENDBRANCH  22  23
ENDBRANCH   5  22
TORSDOF 8
ENDMDL
MODEL 9
REMARK VINA RESULT:      -5.6      3.239      6.411
REMARK  8 active torsions:
REMARK  status: ('A' for Active; 'I' for Inactive)
REMARK    1  A    between atoms: N_1  and  C_2 
REMARK    2  A    between atoms: C_10  and  O_12 
REMARK    3  A    between atoms: C_11  and  C_17 
REMARK    4  A    between atoms: O_12  and  C_14 
REMARK    5  A    between atoms: C_14  and  C_23 
REMARK    6  A    between atoms: C_15  and  O_20 
REMARK    7  A    between atoms: C_15  and  C_24 
REMARK    8  A    between atoms: C_17  and  O_20 
ROOT
HETATM    1  C   UNL     1     -40.755 -48.788  12.433  1.00  0.00     0.249 C 
HETATM    2  C   UNL     1     -40.146 -50.069  11.843  1.00  0.00     0.139 C 
HETATM    3  O   UNL     1     -41.594 -49.206  13.526  1.00  0.00    -0.355 OA
HETATM    4  C   UNL     1     -40.435 -51.152  12.886  1.00  0.00     0.181 C 
HETATM    5  C   UNL     1     -40.964 -50.377  14.095  1.00  0.00     0.179 C 
HETATM    6 BR   UNL     1     -38.241 -49.820  11.475  1.00  0.00    -0.084 Br
ENDROOT
BRANCH   1   7
HETATM    7  N   UNL     1     -41.493 -47.971  11.469  1.00  0.00    -0.278 N 
HETATM    8  C   UNL     1     -40.813 -46.884  10.920  1.00  0.00     0.331 C 
HETATM    9  N   UNL     1     -41.485 -46.175   9.961  1.00  0.00    -0.273 N 
HETATM   10  O   UNL     1     -39.686 -46.534  11.259  1.00  0.00    -0.246 OA
HETATM   11  C   UNL     1     -42.809 -46.311   9.642  1.00  0.00     0.289 C 
HETATM   12  H   UNL     1     -41.005 -45.376   9.578  1.00  0.00     0.173 HD
HETATM   13  C   UNL     1     -43.475 -47.473  10.262  1.00  0.00     0.199 C 
HETATM   14  O   UNL     1     -43.391 -45.520   8.911  1.00  0.00    -0.265 OA
HETATM   15  C   UNL     1     -42.804 -48.248  11.119  1.00  0.00     0.146 C 
HETATM   16  F   UNL     1     -44.762 -47.691   9.945  1.00  0.00    -0.199 F 
ENDBRANCH   1   7
BRANCH   4  17
HETATM   17  O   UNL     1     -39.341 -52.015  13.224  1.00  0.00    -0.312 OA
BRANCH  17  18
HETATM   18  C   UNL     1     -39.696 -53.241  13.708  1.00  0.00     0.258 C 
HETATM   19  O   UNL     1     -39.187 -53.765  14.691  1.00  0.00    -0.265 OA
BRANCH  18  20
HETATM   20  C   UNL     1     -40.836 -53.807  12.898  1.00  0.00     0.106 C 
HETATM   21  C   UNL     1     -41.962 -54.317  13.782  1.00  0.00     0.015 C 
ENDBRANCH  18  20
ENDBRANCH  17  18
ENDBRANCH   4  17
BRANCH   5  22
HETATM   22  C   UNL     1     -39.890 -49.984  15.125  1.00  0.00     0.213 C 
BRANCH  22  23
HETATM   23  O   UNL     1     -40.241 -48.750  15.783  1.00  0.00    -0.319 OA
BRANCH  23  24
HETATM   24  C   UNL     1     -39.341 -47.737  15.638  1.00  0.00     0.258 C 
HETATM   25  O   UNL     1     -39.634 -46.551  15.576  1.00  0.00    -0.265 OA
BRANCH  24  26
HETATM   26  C   UNL     1     -37.944 -48.302  15.558  1.00  0.00     0.106 C 
HETATM   27  C   UNL     1     -37.095 -47.564  14.536  1.00  0.00     0.015 C 
ENDBRANCH  24  26
ENDBRANCH  23  24
ENDBRANCH  22  23
ENDBRANCH   5  22
TORSDOF 8
ENDMDL
