MODEL 1
REMARK VINA RESULT:      -6.4      0.000      0.000
REMARK  6 active torsions:
REMARK  status: ('A' for Active; 'I' for Inactive)
REMARK    1  A    between atoms: C_2  and  C_3 
REMARK    2  A    between atoms: C_2  and  N_10 
REMARK    3  A    between atoms: C_3  and  N_4 
REMARK       I    between atoms: N_10  and  C_11 
REMARK    4  A    between atoms: C_11  and  C_13 
REMARK    5  A    between atoms: C_13  and  C_14 
REMARK    6  A    between atoms: C_14  and  C_15 
ROOT
HETATM    1  N   UNL     1     -40.596 -46.173  10.123  1.00  0.00    -0.355 N 
HETATM    2  C   UNL     1     -40.722 -47.249  10.971  1.00  0.00     0.218 C 
HETATM    3  O   UNL     1     -40.054 -47.377  11.994  1.00  0.00    -0.274 OA
HETATM    4  H   UNL     1     -41.276 -46.053   9.383  1.00  0.00     0.162 HD
ENDROOT
BRANCH   2   5
HETATM    5  C   UNL     1     -41.758 -48.272  10.539  1.00  0.00     0.105 C 
BRANCH   5   6
HETATM    6  C   UNL     1     -42.611 -47.692   9.410  1.00  0.00     0.044 C 
BRANCH   6   7
HETATM    7  C   UNL     1     -43.941 -47.100   9.846  1.00  0.00     0.179 C 
HETATM    8  N   UNL     1     -45.095 -47.917   9.574  1.00  0.00    -0.330 N 
HETATM    9  C   UNL     1     -46.133 -47.165   9.072  1.00  0.00     0.323 C 
HETATM   10  H   UNL     1     -45.286 -48.823   9.986  1.00  0.00     0.165 HD
HETATM   11  O   UNL     1     -47.273 -47.560   8.912  1.00  0.00    -0.247 OA
HETATM   12  N   UNL     1     -45.669 -45.921   8.799  1.00  0.00    -0.278 N 
HETATM   13  C   UNL     1     -44.355 -45.811   9.136  1.00  0.00     0.248 C 
HETATM   14  H   UNL     1     -46.223 -45.197   8.376  1.00  0.00     0.173 HD
HETATM   15  O   UNL     1     -43.651 -44.833   8.942  1.00  0.00    -0.271 OA
ENDBRANCH   6   7
ENDBRANCH   5   6
ENDBRANCH   2   5
BRANCH   1  16
HETATM   16  C   UNL     1     -39.666 -45.066  10.388  1.00  0.00     0.100 C 
HETATM   17  C   UNL     1     -38.861 -44.801   9.117  1.00  0.00     0.034 C 
BRANCH  16  18
HETATM   18  C   UNL     1     -40.413 -43.819  10.897  1.00  0.00     0.172 C 
BRANCH  18  19
HETATM   19  N   UNL     1     -41.176 -44.046  12.110  1.00  0.00    -0.302 N 
HETATM   20  C   UNL     1     -42.521 -43.876  12.285  1.00  0.00     0.111 A 
HETATM   21  C   UNL     1     -42.778 -44.194  13.597  1.00  0.00     0.037 A 
HETATM   22  C   UNL     1     -41.525 -44.534  14.136  1.00  0.00     0.108 A 
HETATM   23  N   UNL     1     -40.542 -44.437  13.235  1.00  0.00    -0.310 N 
ATOM     24  HN  UNL     1     -39.547 -44.617  13.367  1.00  0.00     0.186 HD
ENDBRANCH  18  19
ENDBRANCH  16  18
ENDBRANCH   1  16
TORSDOF 6
ENDMDL
MODEL 2
REMARK VINA RESULT:      -6.3      3.915      5.721
REMARK  6 active torsions:
REMARK  status: ('A' for Active; 'I' for Inactive)
REMARK    1  A    between atoms: C_2  and  C_3 
REMARK    2  A    between atoms: C_2  and  N_10 
REMARK    3  A    between atoms: C_3  and  N_4 
REMARK       I    between atoms: N_10  and  C_11 
REMARK    4  A    between atoms: C_11  and  C_13 
REMARK    5  A    between atoms: C_13  and  C_14 
REMARK    6  A    between atoms: C_14  and  C_15 
ROOT
HETATM    1  N   UNL     1     -41.917 -49.545  11.427  1.00  0.00    -0.355 N 
HETATM    2  C   UNL     1     -41.425 -48.284  11.668  1.00  0.00     0.218 C 
HETATM    3  O   UNL     1     -40.931 -47.953  12.742  1.00  0.00    -0.274 OA
HETATM    4  H   UNL     1     -42.173 -49.797  10.480  1.00  0.00     0.162 HD
ENDROOT
BRANCH   2   5
HETATM    5  C   UNL     1     -41.544 -47.328  10.494  1.00  0.00     0.105 C 
BRANCH   5   6
HETATM    6  C   UNL     1     -42.717 -47.748   9.608  1.00  0.00     0.044 C 
BRANCH   6   7
HETATM    7  C   UNL     1     -44.046 -47.089   9.941  1.00  0.00     0.179 C 
HETATM    8  N   UNL     1     -45.211 -47.899   9.696  1.00  0.00    -0.330 N 
HETATM    9  C   UNL     1     -46.210 -47.169   9.092  1.00  0.00     0.323 C 
HETATM   10  H   UNL     1     -45.440 -48.762  10.176  1.00  0.00     0.165 HD
HETATM   11  O   UNL     1     -47.353 -47.549   8.924  1.00  0.00    -0.247 OA
HETATM   12  N   UNL     1     -45.703 -45.965   8.732  1.00  0.00    -0.278 N 
HETATM   13  C   UNL     1     -44.399 -45.856   9.108  1.00  0.00     0.248 C 
HETATM   14  H   UNL     1     -46.222 -45.267   8.228  1.00  0.00     0.173 HD
HETATM   15  O   UNL     1     -43.663 -44.916   8.858  1.00  0.00    -0.271 OA
ENDBRANCH   6   7
ENDBRANCH   5   6
ENDBRANCH   2   5
BRANCH   1  16
HETATM   16  C   UNL     1     -41.865 -50.617  12.432  1.00  0.00     0.100 C 
HETATM   17  C   UNL     1     -43.238 -50.720  13.096  1.00  0.00     0.034 C 
BRANCH  16  18
HETATM   18  C   UNL     1     -41.399 -51.946  11.807  1.00  0.00     0.172 C 
BRANCH  18  19
HETATM   19  N   UNL     1     -40.655 -52.793  12.719  1.00  0.00    -0.302 N 
HETATM   20  C   UNL     1     -39.811 -52.393  13.718  1.00  0.00     0.111 A 
HETATM   21  C   UNL     1     -39.328 -53.544  14.293  1.00  0.00     0.037 A 
HETATM   22  C   UNL     1     -39.930 -54.588  13.569  1.00  0.00     0.108 A 
HETATM   23  N   UNL     1     -40.734 -54.135  12.601  1.00  0.00    -0.310 N 
ATOM     24  HN  UNL     1     -41.279 -54.677  11.931  1.00  0.00     0.186 HD
ENDBRANCH  18  19
ENDBRANCH  16  18
ENDBRANCH   1  16
TORSDOF 6
ENDMDL
MODEL 3
REMARK VINA RESULT:      -6.1      3.250      5.039
REMARK  6 active torsions:
REMARK  status: ('A' for Active; 'I' for Inactive)
REMARK    1  A    between atoms: C_2  and  C_3 
REMARK    2  A    between atoms: C_2  and  N_10 
REMARK    3  A    between atoms: C_3  and  N_4 
REMARK       I    between atoms: N_10  and  C_11 
REMARK    4  A    between atoms: C_11  and  C_13 
REMARK    5  A    between atoms: C_13  and  C_14 
REMARK    6  A    between atoms: C_14  and  C_15 
ROOT
HETATM    1  N   UNL     1     -42.700 -49.522  12.051  1.00  0.00    -0.355 N 
HETATM    2  C   UNL     1     -42.473 -48.252  12.525  1.00  0.00     0.218 C 
HETATM    3  O   UNL     1     -41.856 -48.024  13.561  1.00  0.00    -0.274 OA
HETATM    4  H   UNL     1     -43.082 -49.635  11.120  1.00  0.00     0.162 HD
ENDROOT
BRANCH   2   5
HETATM    5  C   UNL     1     -43.052 -47.146  11.659  1.00  0.00     0.105 C 
BRANCH   5   6
HETATM    6  C   UNL     1     -42.791 -47.458  10.186  1.00  0.00     0.044 C 
BRANCH   6   7
HETATM    7  C   UNL     1     -43.886 -47.015   9.229  1.00  0.00     0.179 C 
HETATM    8  N   UNL     1     -45.222 -47.059   9.763  1.00  0.00    -0.330 N 
HETATM    9  C   UNL     1     -46.108 -47.588   8.851  1.00  0.00     0.323 C 
HETATM   10  H   UNL     1     -45.569 -46.494  10.529  1.00  0.00     0.165 HD
HETATM   11  O   UNL     1     -47.319 -47.589   8.969  1.00  0.00    -0.247 OA
HETATM   12  N   UNL     1     -45.402 -48.092   7.810  1.00  0.00    -0.278 N 
HETATM   13  C   UNL     1     -44.068 -47.885   7.985  1.00  0.00     0.248 C 
HETATM   14  H   UNL     1     -45.818 -48.579   7.035  1.00  0.00     0.173 HD
HETATM   15  O   UNL     1     -43.183 -48.289   7.248  1.00  0.00    -0.271 OA
ENDBRANCH   6   7
ENDBRANCH   5   6
ENDBRANCH   2   5
BRANCH   1  16
HETATM   16  C   UNL     1     -42.193 -50.720  12.736  1.00  0.00     0.100 C 
HETATM   17  C   UNL     1     -43.381 -51.620  13.074  1.00  0.00     0.034 C 
BRANCH  16  18
HETATM   18  C   UNL     1     -41.120 -51.435  11.891  1.00  0.00     0.172 C 
BRANCH  18  19
HETATM   19  N   UNL     1     -39.799 -50.847  12.002  1.00  0.00    -0.302 N 
HETATM   20  C   UNL     1     -38.914 -50.991  13.034  1.00  0.00     0.111 A 
HETATM   21  C   UNL     1     -37.813 -50.238  12.700  1.00  0.00     0.037 A 
HETATM   22  C   UNL     1     -38.132 -49.669  11.454  1.00  0.00     0.108 A 
HETATM   23  N   UNL     1     -39.346 -50.031  11.027  1.00  0.00    -0.310 N 
ATOM     24  HN  UNL     1     -39.819 -49.755  10.167  1.00  0.00     0.186 HD
ENDBRANCH  18  19
ENDBRANCH  16  18
ENDBRANCH   1  16
TORSDOF 6
ENDMDL
MODEL 4
REMARK VINA RESULT:      -6.0      3.610      5.411
REMARK  6 active torsions:
REMARK  status: ('A' for Active; 'I' for Inactive)
REMARK    1  A    between atoms: C_2  and  C_3 
REMARK    2  A    between atoms: C_2  and  N_10 
REMARK    3  A    between atoms: C_3  and  N_4 
REMARK       I    between atoms: N_10  and  C_11 
REMARK    4  A    between atoms: C_11  and  C_13 
REMARK    5  A    between atoms: C_13  and  C_14 
REMARK    6  A    between atoms: C_14  and  C_15 
ROOT
HETATM    1  N   UNL     1     -42.655 -49.291  12.557  1.00  0.00    -0.355 N 
HETATM    2  C   UNL     1     -42.454 -48.495  11.453  1.00  0.00     0.218 C 
HETATM    3  O   UNL     1     -41.630 -48.754  10.581  1.00  0.00    -0.274 OA
HETATM    4  H   UNL     1     -43.448 -49.103  13.157  1.00  0.00     0.162 HD
ENDROOT
BRANCH   2   5
HETATM    5  C   UNL     1     -43.339 -47.262  11.400  1.00  0.00     0.105 C 
BRANCH   5   6
HETATM    6  C   UNL     1     -43.032 -46.465  10.132  1.00  0.00     0.044 C 
BRANCH   6   7
HETATM    7  C   UNL     1     -44.123 -46.491   9.073  1.00  0.00     0.179 C 
HETATM    8  N   UNL     1     -45.468 -46.569   9.580  1.00  0.00    -0.330 N 
HETATM    9  C   UNL     1     -46.222 -47.469   8.860  1.00  0.00     0.323 C 
HETATM   10  H   UNL     1     -45.930 -45.860  10.137  1.00  0.00     0.165 HD
HETATM   11  O   UNL     1     -47.426 -47.612   8.959  1.00  0.00    -0.247 OA
HETATM   12  N   UNL     1     -45.398 -48.150   8.028  1.00  0.00    -0.278 N 
HETATM   13  C   UNL     1     -44.116 -47.708   8.147  1.00  0.00     0.248 C 
HETATM   14  H   UNL     1     -45.700 -48.900   7.431  1.00  0.00     0.173 HD
HETATM   15  O   UNL     1     -43.145 -48.178   7.577  1.00  0.00    -0.271 OA
ENDBRANCH   6   7
ENDBRANCH   5   6
ENDBRANCH   2   5
BRANCH   1  16
HETATM   16  C   UNL     1     -41.912 -50.542  12.770  1.00  0.00     0.100 C 
HETATM   17  C   UNL     1     -40.496 -50.190  13.224  1.00  0.00     0.034 C 
BRANCH  16  18
HETATM   18  C   UNL     1     -42.648 -51.466  13.760  1.00  0.00     0.172 C 
BRANCH  18  19
HETATM   19  N   UNL     1     -44.052 -51.656  13.453  1.00  0.00    -0.302 N 
HETATM   20  C   UNL     1     -45.122 -51.099  14.096  1.00  0.00     0.111 A 
HETATM   21  C   UNL     1     -46.242 -51.585  13.465  1.00  0.00     0.037 A 
HETATM   22  C   UNL     1     -45.747 -52.435  12.459  1.00  0.00     0.108 A 
HETATM   23  N   UNL     1     -44.411 -52.488  12.453  1.00  0.00    -0.310 N 
ATOM     24  HN  UNL     1     -43.806 -53.030  11.837  1.00  0.00     0.186 HD
ENDBRANCH  18  19
ENDBRANCH  16  18
ENDBRANCH   1  16
TORSDOF 6
ENDMDL
MODEL 5
REMARK VINA RESULT:      -5.9      4.000      5.662
REMARK  6 active torsions:
REMARK  status: ('A' for Active; 'I' for Inactive)
REMARK    1  A    between atoms: C_2  and  C_3 
REMARK    2  A    between atoms: C_2  and  N_10 
REMARK    3  A    between atoms: C_3  and  N_4 
REMARK       I    between atoms: N_10  and  C_11 
REMARK    4  A    between atoms: C_11  and  C_13 
REMARK    5  A    between atoms: C_13  and  C_14 
REMARK    6  A    between atoms: C_14  and  C_15 
ROOT
HETATM    1  N   UNL     1     -42.917 -48.330  10.610  1.00  0.00    -0.355 N 
HETATM    2  C   UNL     1     -41.809 -48.841  11.245  1.00  0.00     0.218 C 
HETATM    3  O   UNL     1     -40.662 -48.513  10.957  1.00  0.00    -0.274 OA
HETATM    4  H   UNL     1     -43.834 -48.527  10.993  1.00  0.00     0.162 HD
ENDROOT
BRANCH   2   5
HETATM    5  C   UNL     1     -42.121 -49.849  12.337  1.00  0.00     0.105 C 
BRANCH   5   6
HETATM    6  C   UNL     1     -41.061 -50.951  12.335  1.00  0.00     0.044 C 
BRANCH   6   7
HETATM    7  C   UNL     1     -41.549 -52.316  11.878  1.00  0.00     0.179 C 
HETATM    8  N   UNL     1     -42.977 -52.501  11.917  1.00  0.00    -0.330 N 
HETATM    9  C   UNL     1     -43.307 -53.734  12.434  1.00  0.00     0.323 C 
HETATM   10  H   UNL     1     -43.652 -51.995  11.356  1.00  0.00     0.165 HD
HETATM   11  O   UNL     1     -44.422 -54.222  12.428  1.00  0.00    -0.247 OA
HETATM   12  N   UNL     1     -42.184 -54.304  12.935  1.00  0.00    -0.278 N 
HETATM   13  C   UNL     1     -41.104 -53.499  12.737  1.00  0.00     0.248 C 
HETATM   14  H   UNL     1     -42.170 -55.188  13.412  1.00  0.00     0.173 HD
HETATM   15  O   UNL     1     -39.973 -53.715  13.141  1.00  0.00    -0.271 OA
ENDBRANCH   6   7
ENDBRANCH   5   6
ENDBRANCH   2   5
BRANCH   1  16
HETATM   16  C   UNL     1     -42.819 -47.320   9.546  1.00  0.00     0.100 C 
HETATM   17  C   UNL     1     -43.843 -47.663   8.463  1.00  0.00     0.034 C 
BRANCH  16  18
HETATM   18  C   UNL     1     -42.994 -45.897  10.108  1.00  0.00     0.172 C 
BRANCH  18  19
HETATM   19  N   UNL     1     -41.745 -45.243  10.447  1.00  0.00    -0.302 N 
HETATM   20  C   UNL     1     -41.575 -44.147  11.247  1.00  0.00     0.111 A 
HETATM   21  C   UNL     1     -40.226 -43.885  11.254  1.00  0.00     0.037 A 
HETATM   22  C   UNL     1     -39.664 -44.871  10.422  1.00  0.00     0.108 A 
HETATM   23  N   UNL     1     -40.588 -45.696   9.920  1.00  0.00    -0.310 N 
ATOM     24  HN  UNL     1     -40.450 -46.484   9.287  1.00  0.00     0.186 HD
ENDBRANCH  18  19
ENDBRANCH  16  18
ENDBRANCH   1  16
TORSDOF 6
ENDMDL
MODEL 6
REMARK VINA RESULT:      -5.9      4.882      6.475
REMARK  6 active torsions:
REMARK  status: ('A' for Active; 'I' for Inactive)
REMARK    1  A    between atoms: C_2  and  C_3 
REMARK    2  A    between atoms: C_2  and  N_10 
REMARK    3  A    between atoms: C_3  and  N_4 
REMARK       I    between atoms: N_10  and  C_11 
REMARK    4  A    between atoms: C_11  and  C_13 
REMARK    5  A    between atoms: C_13  and  C_14 
REMARK    6  A    between atoms: C_14  and  C_15 
ROOT
HETATM    1  N   UNL     1     -41.560 -50.378  11.638  1.00  0.00    -0.355 N 
HETATM    2  C   UNL     1     -42.035 -51.266  12.573  1.00  0.00     0.218 C 
HETATM    3  O   UNL     1     -42.576 -50.915  13.618  1.00  0.00    -0.274 OA
HETATM    4  H   UNL     1     -41.262 -50.730  10.737  1.00  0.00     0.162 HD
ENDROOT
BRANCH   2   5
HETATM    5  C   UNL     1     -41.834 -52.728  12.210  1.00  0.00     0.105 C 
BRANCH   5   6
HETATM    6  C   UNL     1     -42.733 -53.602  13.085  1.00  0.00     0.044 C 
BRANCH   6   7
HETATM    7  C   UNL     1     -44.145 -53.804  12.559  1.00  0.00     0.179 C 
HETATM    8  N   UNL     1     -44.827 -52.602  12.154  1.00  0.00    -0.330 N 
HETATM    9  C   UNL     1     -46.131 -52.595  12.596  1.00  0.00     0.323 C 
HETATM   10  H   UNL     1     -44.554 -52.000  11.387  1.00  0.00     0.165 HD
HETATM   11  O   UNL     1     -46.981 -51.791  12.261  1.00  0.00    -0.247 OA
HETATM   12  N   UNL     1     -46.301 -53.633  13.450  1.00  0.00    -0.278 N 
HETATM   13  C   UNL     1     -45.153 -54.356  13.567  1.00  0.00     0.248 C 
HETATM   14  H   UNL     1     -47.155 -53.816  13.947  1.00  0.00     0.173 HD
HETATM   15  O   UNL     1     -44.983 -55.304  14.316  1.00  0.00    -0.271 OA
ENDBRANCH   6   7
ENDBRANCH   5   6
ENDBRANCH   2   5
BRANCH   1  16
HETATM   16  C   UNL     1     -41.688 -48.922  11.799  1.00  0.00     0.100 C 
HETATM   17  C   UNL     1     -40.667 -48.462  12.839  1.00  0.00     0.034 C 
BRANCH  16  18
HETATM   18  C   UNL     1     -41.538 -48.195  10.449  1.00  0.00     0.172 C 
BRANCH  18  19
HETATM   19  N   UNL     1     -42.801 -47.876   9.812  1.00  0.00    -0.302 N 
HETATM   20  C   UNL     1     -43.970 -47.521  10.425  1.00  0.00     0.111 A 
HETATM   21  C   UNL     1     -44.888 -47.335   9.418  1.00  0.00     0.037 A 
HETATM   22  C   UNL     1     -44.182 -47.611   8.233  1.00  0.00     0.108 A 
HETATM   23  N   UNL     1     -42.910 -47.949   8.468  1.00  0.00    -0.310 N 
ATOM     24  HN  UNL     1     -42.191 -48.203   7.792  1.00  0.00     0.186 HD
ENDBRANCH  18  19
ENDBRANCH  16  18
ENDBRANCH   1  16
TORSDOF 6
ENDMDL
MODEL 7
REMARK VINA RESULT:      -5.7      4.465      6.453
REMARK  6 active torsions:
REMARK  status: ('A' for Active; 'I' for Inactive)
REMARK    1  A    between atoms: C_2  and  C_3 
REMARK    2  A    between atoms: C_2  and  N_10 
REMARK    3  A    between atoms: C_3  and  N_4 
REMARK       I    between atoms: N_10  and  C_11 
REMARK    4  A    between atoms: C_11  and  C_13 
REMARK    5  A    between atoms: C_13  and  C_14 
REMARK    6  A    between atoms: C_14  and  C_15 
ROOT
HETATM    1  N   UNL     1     -43.315 -49.764  12.723  1.00  0.00    -0.355 N 
HETATM    2  C   UNL     1     -42.168 -49.513  12.008  1.00  0.00     0.218 C 
HETATM    3  O   UNL     1     -41.308 -50.365  11.801  1.00  0.00    -0.274 OA
HETATM    4  H   UNL     1     -44.049 -49.067  12.730  1.00  0.00     0.162 HD
ENDROOT
BRANCH   2   5
HETATM    5  C   UNL     1     -42.048 -48.089  11.493  1.00  0.00     0.105 C 
BRANCH   5   6
HETATM    6  C   UNL     1     -42.751 -47.973  10.140  1.00  0.00     0.044 C 
BRANCH   6   7
HETATM    7  C   UNL     1     -44.078 -47.231  10.164  1.00  0.00     0.179 C 
HETATM    8  N   UNL     1     -45.236 -48.037   9.879  1.00  0.00    -0.330 N 
HETATM    9  C   UNL     1     -46.100 -47.386   9.027  1.00  0.00     0.323 C 
HETATM   10  H   UNL     1     -45.576 -48.803  10.448  1.00  0.00     0.165 HD
HETATM   11  O   UNL     1     -47.226 -47.757   8.751  1.00  0.00    -0.247 OA
HETATM   12  N   UNL     1     -45.486 -46.272   8.562  1.00  0.00    -0.278 N 
HETATM   13  C   UNL     1     -44.245 -46.140   9.106  1.00  0.00     0.248 C 
HETATM   14  H   UNL     1     -45.891 -45.650   7.883  1.00  0.00     0.173 HD
HETATM   15  O   UNL     1     -43.433 -45.274   8.825  1.00  0.00    -0.271 OA
ENDBRANCH   6   7
ENDBRANCH   5   6
ENDBRANCH   2   5
BRANCH   1  16
HETATM   16  C   UNL     1     -43.623 -51.091  13.278  1.00  0.00     0.100 C 
HETATM   17  C   UNL     1     -43.156 -51.123  14.733  1.00  0.00     0.034 C 
BRANCH  16  18
HETATM   18  C   UNL     1     -45.117 -51.430  13.119  1.00  0.00     0.172 C 
BRANCH  18  19
HETATM   19  N   UNL     1     -45.472 -52.754  13.591  1.00  0.00    -0.302 N 
HETATM   20  C   UNL     1     -46.350 -53.069  14.590  1.00  0.00     0.111 A 
HETATM   21  C   UNL     1     -46.342 -54.440  14.688  1.00  0.00     0.037 A 
HETATM   22  C   UNL     1     -45.420 -54.864  13.714  1.00  0.00     0.108 A 
HETATM   23  N   UNL     1     -44.880 -53.838  13.047  1.00  0.00    -0.310 N 
ATOM     24  HN  UNL     1     -44.184 -53.869  12.302  1.00  0.00     0.186 HD
ENDBRANCH  18  19
ENDBRANCH  16  18
ENDBRANCH   1  16
TORSDOF 6
ENDMDL
MODEL 8
REMARK VINA RESULT:      -5.6      4.338      6.867
REMARK  6 active torsions:
REMARK  status: ('A' for Active; 'I' for Inactive)
REMARK    1  A    between atoms: C_2  and  C_3 
REMARK    2  A    between atoms: C_2  and  N_10 
REMARK    3  A    between atoms: C_3  and  N_4 
REMARK       I    between atoms: N_10  and  C_11 
REMARK    4  A    between atoms: C_11  and  C_13 
REMARK    5  A    between atoms: C_13  and  C_14 
REMARK    6  A    between atoms: C_14  and  C_15 
ROOT
HETATM    1  N   UNL     1     -44.366 -50.594  13.108  1.00  0.00    -0.355 N 
HETATM    2  C   UNL     1     -43.514 -50.048  14.039  1.00  0.00     0.218 C 
HETATM    3  O   UNL     1     -43.287 -50.570  15.127  1.00  0.00    -0.274 OA
HETATM    4  H   UNL     1     -44.394 -50.195  12.178  1.00  0.00     0.162 HD
ENDROOT
BRANCH   2   5
HETATM    5  C   UNL     1     -42.874 -48.738  13.612  1.00  0.00     0.105 C 
BRANCH   5   6
HETATM    6  C   UNL     1     -43.059 -48.544  12.107  1.00  0.00     0.044 C 
BRANCH   6   7
HETATM    7  C   UNL     1     -42.791 -47.135  11.601  1.00  0.00     0.179 C 
HETATM    8  N   UNL     1     -43.742 -46.638  10.642  1.00  0.00    -0.330 N 
HETATM    9  C   UNL     1     -43.112 -45.988   9.604  1.00  0.00     0.323 C 
HETATM   10  H   UNL     1     -44.723 -46.460  10.822  1.00  0.00     0.165 HD
HETATM   11  O   UNL     1     -43.670 -45.329   8.746  1.00  0.00    -0.247 OA
HETATM   12  N   UNL     1     -41.779 -46.203   9.710  1.00  0.00    -0.278 N 
HETATM   13  C   UNL     1     -41.495 -46.952  10.811  1.00  0.00     0.248 C 
HETATM   14  H   UNL     1     -41.103 -45.874   9.042  1.00  0.00     0.173 HD
HETATM   15  O   UNL     1     -40.390 -47.362  11.127  1.00  0.00    -0.271 OA
ENDBRANCH   6   7
ENDBRANCH   5   6
ENDBRANCH   2   5
BRANCH   1  16
HETATM   16  C   UNL     1     -45.057 -51.873  13.328  1.00  0.00     0.100 C 
HETATM   17  C   UNL     1     -46.556 -51.649  13.131  1.00  0.00     0.034 C 
BRANCH  16  18
HETATM   18  C   UNL     1     -44.490 -52.978  12.418  1.00  0.00     0.172 C 
BRANCH  18  19
HETATM   19  N   UNL     1     -43.057 -53.160  12.539  1.00  0.00    -0.302 N 
HETATM   20  C   UNL     1     -42.391 -53.874  13.497  1.00  0.00     0.111 A 
HETATM   21  C   UNL     1     -41.053 -53.741  13.212  1.00  0.00     0.037 A 
HETATM   22  C   UNL     1     -41.009 -52.922  12.069  1.00  0.00     0.108 A 
HETATM   23  N   UNL     1     -42.229 -52.558  11.659  1.00  0.00    -0.310 N 
ATOM     24  HN  UNL     1     -42.476 -51.964  10.868  1.00  0.00     0.186 HD
ENDBRANCH  18  19
ENDBRANCH  16  18
ENDBRANCH   1  16
TORSDOF 6
ENDMDL
MODEL 9
REMARK VINA RESULT:      -5.6      4.647      6.578
REMARK  6 active torsions:
REMARK  status: ('A' for Active; 'I' for Inactive)
REMARK    1  A    between atoms: C_2  and  C_3 
REMARK    2  A    between atoms: C_2  and  N_10 
REMARK    3  A    between atoms: C_3  and  N_4 
REMARK       I    between atoms: N_10  and  C_11 
REMARK    4  A    between atoms: C_11  and  C_13 
REMARK    5  A    between atoms: C_13  and  C_14 
REMARK    6  A    between atoms: C_14  and  C_15 
ROOT
HETATM    1  N   UNL     1     -42.074 -50.436  11.923  1.00  0.00    -0.355 N 
HETATM    2  C   UNL     1     -41.030 -49.594  12.223  1.00  0.00     0.218 C 
HETATM    3  O   UNL     1     -40.497 -49.555  13.328  1.00  0.00    -0.274 OA
HETATM    4  H   UNL     1     -42.368 -50.526  10.958  1.00  0.00     0.162 HD
ENDROOT
BRANCH   2   5
HETATM    5  C   UNL     1     -40.587 -48.708  11.071  1.00  0.00     0.105 C 
BRANCH   5   6
HETATM    6  C   UNL     1     -41.303 -47.360  11.156  1.00  0.00     0.044 C 
BRANCH   6   7
HETATM    7  C   UNL     1     -42.594 -47.263  10.360  1.00  0.00     0.179 C 
HETATM    8  N   UNL     1     -42.725 -48.216   9.288  1.00  0.00    -0.330 N 
HETATM    9  C   UNL     1     -43.225 -47.622   8.150  1.00  0.00     0.323 C 
HETATM   10  H   UNL     1     -42.788 -49.221   9.397  1.00  0.00     0.165 HD
HETATM   11  O   UNL     1     -43.593 -48.214   7.153  1.00  0.00    -0.247 OA
HETATM   12  N   UNL     1     -43.241 -46.280   8.338  1.00  0.00    -0.278 N 
HETATM   13  C   UNL     1     -42.798 -45.961   9.585  1.00  0.00     0.248 C 
HETATM   14  H   UNL     1     -43.518 -45.618   7.634  1.00  0.00     0.173 HD
HETATM   15  O   UNL     1     -42.636 -44.830  10.015  1.00  0.00    -0.271 OA
ENDBRANCH   6   7
ENDBRANCH   5   6
ENDBRANCH   2   5
BRANCH   1  16
HETATM   16  C   UNL     1     -42.624 -51.388  12.900  1.00  0.00     0.100 C 
HETATM   17  C   UNL     1     -43.897 -50.787  13.493  1.00  0.00     0.034 C 
BRANCH  16  18
HETATM   18  C   UNL     1     -42.854 -52.772  12.263  1.00  0.00     0.172 C 
BRANCH  18  19
HETATM   19  N   UNL     1     -43.500 -53.724  13.145  1.00  0.00    -0.302 N 
HETATM   20  C   UNL     1     -44.758 -54.246  13.020  1.00  0.00     0.111 A 
HETATM   21  C   UNL     1     -44.932 -55.082  14.097  1.00  0.00     0.037 A 
HETATM   22  C   UNL     1     -43.730 -54.993  14.820  1.00  0.00     0.108 A 
HETATM   23  N   UNL     1     -42.855 -54.158  14.248  1.00  0.00    -0.310 N 
ATOM     24  HN  UNL     1     -41.920 -53.908  14.570  1.00  0.00     0.186 HD
ENDBRANCH  18  19
ENDBRANCH  16  18
ENDBRANCH   1  16
TORSDOF 6
ENDMDL
