MODEL 1
REMARK VINA RESULT:      -6.2      0.000      0.000
REMARK  6 active torsions:
REMARK  status: ('A' for Active; 'I' for Inactive)
REMARK    1  A    between atoms: C_2  and  O_3 
REMARK    2  A    between atoms: C_2  and  C_7 
REMARK    3  A    between atoms: O_3  and  C_4 
REMARK    4  A    between atoms: C_4  and  C_5 
REMARK       I    between atoms: C_7  and  N_9 
REMARK    5  A    between atoms: N_9  and  C_10 
REMARK    6  A    between atoms: C_16  and  N_17 
ROOT
HETATM    1  C   UNL     1     -42.284 -51.831  12.433  1.00  0.00     0.077 A 
HETATM    2  C   UNL     1     -41.107 -52.357  11.901  1.00  0.00     0.119 A 
HETATM    3  N   UNL     1     -40.611 -53.582  12.197  1.00  0.00    -0.373 N 
ATOM      4  HN  UNL     1     -39.750 -53.931  11.775  1.00  0.00     0.164 HD
HETATM    5  C   UNL     1     -41.315 -54.313  13.076  1.00  0.00     0.090 A 
HETATM    6  C   UNL     1     -42.496 -53.887  13.664  1.00  0.00     0.048 A 
HETATM    7  C   UNL     1     -43.026 -52.629  13.339  1.00  0.00     0.060 A 
ENDROOT
BRANCH   1   8
HETATM    8  N   UNL     1     -42.808 -50.570  12.052  1.00  0.00    -0.322 N 
HETATM    9  C   UNL     1     -42.245 -49.335  12.317  1.00  0.00     0.251 C 
HETATM   10  O   UNL     1     -41.200 -49.156  12.935  1.00  0.00    -0.270 OA
HETATM   11  H   UNL     1     -43.709 -50.628  11.593  1.00  0.00     0.169 HD
BRANCH   9  12
HETATM   12  C   UNL     1     -43.071 -48.146  11.760  1.00  0.00     0.209 C 
HETATM   13  C   UNL     1     -42.571 -46.863  12.428  1.00  0.00     0.050 C 
BRANCH  12  14
HETATM   14  O   UNL     1     -42.973 -47.954  10.349  1.00  0.00    -0.373 OA
BRANCH  14  15
HETATM   15  C   UNL     1     -43.832 -46.934   9.855  1.00  0.00     0.195 C 
BRANCH  15  16
HETATM   16  C   UNL     1     -45.003 -47.580   9.189  1.00  0.00    -0.011 C 
HETATM   17  C   UNL     1     -46.226 -47.039   9.154  1.00  0.00     0.009 C 
ENDBRANCH  15  16
ENDBRANCH  14  15
ENDBRANCH  12  14
ENDBRANCH   9  12
ENDBRANCH   1   8
BRANCH   7  18
HETATM   18  N   UNL     1     -44.278 -52.203  13.821  1.00  0.00    -0.379 N 
HETATM   19  C   UNL     1     -45.476 -52.651  13.090  1.00  0.00     0.123 C 
HETATM   20  C   UNL     1     -46.576 -51.615  13.310  1.00  0.00     0.020 C 
HETATM   21  C   UNL     1     -46.842 -51.388  14.800  1.00  0.00     0.003 C 
HETATM   22  C   UNL     1     -45.547 -51.135  15.581  1.00  0.00     0.020 C 
HETATM   23  C   UNL     1     -44.487 -52.203  15.280  1.00  0.00     0.123 C 
ENDBRANCH   7  18
TORSDOF 6
ENDMDL
MODEL 2
REMARK VINA RESULT:      -5.9      2.894      6.323
REMARK  6 active torsions:
REMARK  status: ('A' for Active; 'I' for Inactive)
REMARK    1  A    between atoms: C_2  and  O_3 
REMARK    2  A    between atoms: C_2  and  C_7 
REMARK    3  A    between atoms: O_3  and  C_4 
REMARK    4  A    between atoms: C_4  and  C_5 
REMARK       I    between atoms: C_7  and  N_9 
REMARK    5  A    between atoms: N_9  and  C_10 
REMARK    6  A    between atoms: C_16  and  N_17 
ROOT
HETATM    1  C   UNL     1     -41.317 -48.794  11.141  1.00  0.00     0.077 A 
HETATM    2  C   UNL     1     -42.078 -47.968  10.314  1.00  0.00     0.119 A 
HETATM    3  N   UNL     1     -41.778 -46.678  10.031  1.00  0.00    -0.373 N 
ATOM      4  HN  UNL     1     -42.360 -46.113   9.411  1.00  0.00     0.164 HD
HETATM    5  C   UNL     1     -40.674 -46.183  10.611  1.00  0.00     0.090 A 
HETATM    6  C   UNL     1     -39.847 -46.915  11.449  1.00  0.00     0.048 A 
HETATM    7  C   UNL     1     -40.140 -48.260  11.722  1.00  0.00     0.060 A 
ENDROOT
BRANCH   1   8
HETATM    8  N   UNL     1     -41.625 -50.159  11.364  1.00  0.00    -0.322 N 
HETATM    9  C   UNL     1     -42.252 -50.687  12.477  1.00  0.00     0.251 C 
HETATM   10  O   UNL     1     -42.629 -50.036  13.447  1.00  0.00    -0.270 OA
HETATM   11  H   UNL     1     -41.285 -50.776  10.635  1.00  0.00     0.169 HD
BRANCH   9  12
HETATM   12  C   UNL     1     -42.444 -52.225  12.411  1.00  0.00     0.209 C 
HETATM   13  C   UNL     1     -41.134 -52.888  12.840  1.00  0.00     0.050 C 
BRANCH  12  14
HETATM   14  O   UNL     1     -43.475 -52.740  13.252  1.00  0.00    -0.373 OA
BRANCH  14  15
HETATM   15  C   UNL     1     -44.511 -53.401  12.538  1.00  0.00     0.195 C 
BRANCH  15  16
HETATM   16  C   UNL     1     -45.758 -52.585  12.642  1.00  0.00    -0.011 C 
HETATM   17  C   UNL     1     -45.884 -51.526  13.450  1.00  0.00     0.009 C 
ENDBRANCH  15  16
ENDBRANCH  14  15
ENDBRANCH  12  14
ENDBRANCH   9  12
ENDBRANCH   1   8
BRANCH   7  18
HETATM   18  N   UNL     1     -39.269 -49.073  12.472  1.00  0.00    -0.379 N 
HETATM   19  C   UNL     1     -37.971 -49.418  11.866  1.00  0.00     0.123 C 
HETATM   20  C   UNL     1     -37.515 -50.749  12.459  1.00  0.00     0.020 C 
HETATM   21  C   UNL     1     -37.459 -50.692  13.987  1.00  0.00     0.003 C 
HETATM   22  C   UNL     1     -38.749 -50.123  14.587  1.00  0.00     0.020 C 
HETATM   23  C   UNL     1     -39.153 -48.804  13.916  1.00  0.00     0.123 C 
ENDBRANCH   7  18
TORSDOF 6
ENDMDL
MODEL 3
REMARK VINA RESULT:      -5.8      2.346      4.286
REMARK  6 active torsions:
REMARK  status: ('A' for Active; 'I' for Inactive)
REMARK    1  A    between atoms: C_2  and  O_3 
REMARK    2  A    between atoms: C_2  and  C_7 
REMARK    3  A    between atoms: O_3  and  C_4 
REMARK    4  A    between atoms: C_4  and  C_5 
REMARK       I    between atoms: C_7  and  N_9 
REMARK    5  A    between atoms: N_9  and  C_10 
REMARK    6  A    between atoms: C_16  and  N_17 
ROOT
HETATM    1  C   UNL     1     -41.685 -51.593  12.270  1.00  0.00     0.077 A 
HETATM    2  C   UNL     1     -42.605 -52.639  12.181  1.00  0.00     0.119 A 
HETATM    3  N   UNL     1     -42.426 -53.867  12.723  1.00  0.00    -0.373 N 
ATOM      4  HN  UNL     1     -43.132 -54.599  12.641  1.00  0.00     0.164 HD
HETATM    5  C   UNL     1     -41.269 -54.068  13.373  1.00  0.00     0.090 A 
HETATM    6  C   UNL     1     -40.287 -53.100  13.521  1.00  0.00     0.048 A 
HETATM    7  C   UNL     1     -40.482 -51.818  12.984  1.00  0.00     0.060 A 
ENDROOT
BRANCH   1   8
HETATM    8  N   UNL     1     -41.933 -50.300  11.746  1.00  0.00    -0.322 N 
HETATM    9  C   UNL     1     -42.736 -49.326  12.312  1.00  0.00     0.251 C 
HETATM   10  O   UNL     1     -43.362 -49.452  13.360  1.00  0.00    -0.270 OA
HETATM   11  H   UNL     1     -41.503 -50.139  10.843  1.00  0.00     0.169 HD
BRANCH   9  12
HETATM   12  C   UNL     1     -42.796 -48.015  11.485  1.00  0.00     0.209 C 
HETATM   13  C   UNL     1     -41.667 -48.050  10.453  1.00  0.00     0.050 C 
BRANCH  12  14
HETATM   14  O   UNL     1     -44.015 -47.808  10.773  1.00  0.00    -0.373 OA
BRANCH  14  15
HETATM   15  C   UNL     1     -43.822 -47.470   9.405  1.00  0.00     0.195 C 
BRANCH  15  16
HETATM   16  C   UNL     1     -45.131 -47.591   8.696  1.00  0.00    -0.011 C 
HETATM   17  C   UNL     1     -46.307 -47.278   9.252  1.00  0.00     0.009 C 
ENDBRANCH  15  16
ENDBRANCH  14  15
ENDBRANCH  12  14
ENDBRANCH   9  12
ENDBRANCH   1   8
BRANCH   7  18
HETATM   18  N   UNL     1     -39.566 -50.772  13.208  1.00  0.00    -0.379 N 
HETATM   19  C   UNL     1     -39.321 -50.371  14.604  1.00  0.00     0.123 C 
HETATM   20  C   UNL     1     -38.893 -48.905  14.604  1.00  0.00     0.020 C 
HETATM   21  C   UNL     1     -37.680 -48.676  13.700  1.00  0.00     0.003 C 
HETATM   22  C   UNL     1     -37.875 -49.294  12.311  1.00  0.00     0.020 C 
HETATM   23  C   UNL     1     -38.333 -50.756  12.402  1.00  0.00     0.123 C 
ENDBRANCH   7  18
TORSDOF 6
ENDMDL
MODEL 4
REMARK VINA RESULT:      -5.3      3.249      5.443
REMARK  6 active torsions:
REMARK  status: ('A' for Active; 'I' for Inactive)
REMARK    1  A    between atoms: C_2  and  O_3 
REMARK    2  A    between atoms: C_2  and  C_7 
REMARK    3  A    between atoms: O_3  and  C_4 
REMARK    4  A    between atoms: C_4  and  C_5 
REMARK       I    between atoms: C_7  and  N_9 
REMARK    5  A    between atoms: N_9  and  C_10 
REMARK    6  A    between atoms: C_16  and  N_17 
ROOT
HETATM    1  C   UNL     1     -39.847 -50.425  12.667  1.00  0.00     0.077 A 
HETATM    2  C   UNL     1     -39.615 -49.777  11.453  1.00  0.00     0.119 A 
HETATM    3  N   UNL     1     -38.412 -49.714  10.834  1.00  0.00    -0.373 N 
ATOM      4  HN  UNL     1     -38.291 -49.237   9.940  1.00  0.00     0.164 HD
HETATM    5  C   UNL     1     -37.388 -50.314  11.461  1.00  0.00     0.090 A 
HETATM    6  C   UNL     1     -37.507 -50.985  12.669  1.00  0.00     0.048 A 
HETATM    7  C   UNL     1     -38.758 -51.075  13.298  1.00  0.00     0.060 A 
ENDROOT
BRANCH   1   8
HETATM    8  N   UNL     1     -41.133 -50.527  13.254  1.00  0.00    -0.322 N 
HETATM    9  C   UNL     1     -42.137 -51.403  12.884  1.00  0.00     0.251 C 
HETATM   10  O   UNL     1     -42.054 -52.223  11.974  1.00  0.00    -0.270 OA
HETATM   11  H   UNL     1     -41.306 -49.834  13.973  1.00  0.00     0.169 HD
BRANCH   9  12
HETATM   12  C   UNL     1     -43.428 -51.259  13.731  1.00  0.00     0.209 C 
HETATM   13  C   UNL     1     -43.442 -49.859  14.347  1.00  0.00     0.050 C 
BRANCH  12  14
HETATM   14  O   UNL     1     -44.645 -51.414  13.003  1.00  0.00    -0.373 OA
BRANCH  14  15
HETATM   15  C   UNL     1     -45.550 -52.334  13.601  1.00  0.00     0.195 C 
BRANCH  15  16
HETATM   16  C   UNL     1     -46.715 -51.572  14.143  1.00  0.00    -0.011 C 
HETATM   17  C   UNL     1     -46.910 -51.343  15.446  1.00  0.00     0.009 C 
ENDBRANCH  15  16
ENDBRANCH  14  15
ENDBRANCH  12  14
ENDBRANCH   9  12
ENDBRANCH   1   8
BRANCH   7  18
HETATM   18  N   UNL     1     -38.950 -51.842  14.464  1.00  0.00    -0.379 N 
HETATM   19  C   UNL     1     -38.999 -53.307  14.312  1.00  0.00     0.123 C 
HETATM   20  C   UNL     1     -39.841 -53.869  15.456  1.00  0.00     0.020 C 
HETATM   21  C   UNL     1     -39.298 -53.432  16.818  1.00  0.00     0.003 C 
HETATM   22  C   UNL     1     -39.049 -51.921  16.879  1.00  0.00     0.020 C 
HETATM   23  C   UNL     1     -38.223 -51.435  15.679  1.00  0.00     0.123 C 
ENDBRANCH   7  18
TORSDOF 6
ENDMDL
MODEL 5
REMARK VINA RESULT:      -5.3      2.667      4.927
REMARK  6 active torsions:
REMARK  status: ('A' for Active; 'I' for Inactive)
REMARK    1  A    between atoms: C_2  and  O_3 
REMARK    2  A    between atoms: C_2  and  C_7 
REMARK    3  A    between atoms: O_3  and  C_4 
REMARK    4  A    between atoms: C_4  and  C_5 
REMARK       I    between atoms: C_7  and  N_9 
REMARK    5  A    between atoms: N_9  and  C_10 
REMARK    6  A    between atoms: C_16  and  N_17 
ROOT
HETATM    1  C   UNL     1     -44.021 -52.913  12.999  1.00  0.00     0.077 A 
HETATM    2  C   UNL     1     -45.403 -52.899  12.804  1.00  0.00     0.119 A 
HETATM    3  N   UNL     1     -46.264 -53.790  13.349  1.00  0.00    -0.373 N 
ATOM      4  HN  UNL     1     -47.270 -53.735  13.186  1.00  0.00     0.164 HD
HETATM    5  C   UNL     1     -45.722 -54.750  14.114  1.00  0.00     0.090 A 
HETATM    6  C   UNL     1     -44.364 -54.857  14.373  1.00  0.00     0.048 A 
HETATM    7  C   UNL     1     -43.472 -53.919  13.832  1.00  0.00     0.060 A 
ENDROOT
BRANCH   1   8
HETATM    8  N   UNL     1     -43.156 -51.926  12.465  1.00  0.00    -0.322 N 
HETATM    9  C   UNL     1     -42.921 -50.669  12.993  1.00  0.00     0.251 C 
HETATM   10  O   UNL     1     -43.443 -50.225  14.010  1.00  0.00    -0.270 OA
HETATM   11  H   UNL     1     -42.734 -52.191  11.582  1.00  0.00     0.169 HD
BRANCH   9  12
HETATM   12  C   UNL     1     -41.914 -49.828  12.165  1.00  0.00     0.209 C 
HETATM   13  C   UNL     1     -41.678 -48.507  12.901  1.00  0.00     0.050 C 
BRANCH  12  14
HETATM   14  O   UNL     1     -40.639 -50.437  11.968  1.00  0.00    -0.373 OA
BRANCH  14  15
HETATM   15  C   UNL     1     -39.548 -49.558  12.206  1.00  0.00     0.195 C 
BRANCH  15  16
HETATM   16  C   UNL     1     -38.275 -50.313  12.003  1.00  0.00    -0.011 C 
HETATM   17  C   UNL     1     -37.336 -49.959  11.119  1.00  0.00     0.009 C 
ENDBRANCH  15  16
ENDBRANCH  14  15
ENDBRANCH  12  14
ENDBRANCH   9  12
ENDBRANCH   1   8
BRANCH   7  18
HETATM   18  N   UNL     1     -42.103 -53.919  14.160  1.00  0.00    -0.379 N 
HETATM   19  C   UNL     1     -41.721 -54.456  15.479  1.00  0.00     0.123 C 
HETATM   20  C   UNL     1     -40.416 -53.784  15.898  1.00  0.00     0.020 C 
HETATM   21  C   UNL     1     -39.324 -53.973  14.843  1.00  0.00     0.003 C 
HETATM   22  C   UNL     1     -39.816 -53.610  13.438  1.00  0.00     0.020 C 
HETATM   23  C   UNL     1     -41.146 -54.302  13.108  1.00  0.00     0.123 C 
ENDBRANCH   7  18
TORSDOF 6
ENDMDL
MODEL 6
REMARK VINA RESULT:      -5.2      3.185      4.864
REMARK  6 active torsions:
REMARK  status: ('A' for Active; 'I' for Inactive)
REMARK    1  A    between atoms: C_2  and  O_3 
REMARK    2  A    between atoms: C_2  and  C_7 
REMARK    3  A    between atoms: O_3  and  C_4 
REMARK    4  A    between atoms: C_4  and  C_5 
REMARK       I    between atoms: C_7  and  N_9 
REMARK    5  A    between atoms: N_9  and  C_10 
REMARK    6  A    between atoms: C_16  and  N_17 
ROOT
HETATM    1  C   UNL     1     -40.629 -51.492  12.100  1.00  0.00     0.077 A 
HETATM    2  C   UNL     1     -41.153 -52.727  11.714  1.00  0.00     0.119 A 
HETATM    3  N   UNL     1     -40.958 -53.887  12.384  1.00  0.00    -0.373 N 
ATOM      4  HN  UNL     1     -41.370 -54.766  12.069  1.00  0.00     0.164 HD
HETATM    5  C   UNL     1     -40.193 -53.818  13.484  1.00  0.00     0.090 A 
HETATM    6  C   UNL     1     -39.623 -52.645  13.957  1.00  0.00     0.048 A 
HETATM    7  C   UNL     1     -39.846 -51.437  13.280  1.00  0.00     0.060 A 
ENDROOT
BRANCH   1   8
HETATM    8  N   UNL     1     -40.906 -50.286  11.411  1.00  0.00    -0.322 N 
HETATM    9  C   UNL     1     -41.918 -49.389  11.702  1.00  0.00     0.251 C 
HETATM   10  O   UNL     1     -42.735 -49.520  12.609  1.00  0.00    -0.270 OA
HETATM   11  H   UNL     1     -40.315 -50.136  10.601  1.00  0.00     0.169 HD
BRANCH   9  12
HETATM   12  C   UNL     1     -41.951 -48.162  10.754  1.00  0.00     0.209 C 
HETATM   13  C   UNL     1     -43.206 -47.346  11.072  1.00  0.00     0.050 C 
BRANCH  12  14
HETATM   14  O   UNL     1     -40.833 -47.282  10.870  1.00  0.00    -0.373 OA
BRANCH  14  15
HETATM   15  C   UNL     1     -40.979 -46.313  11.899  1.00  0.00     0.195 C 
BRANCH  15  16
HETATM   16  C   UNL     1     -39.821 -45.372  11.835  1.00  0.00    -0.011 C 
HETATM   17  C   UNL     1     -39.339 -44.715  12.895  1.00  0.00     0.009 C 
ENDBRANCH  15  16
ENDBRANCH  14  15
ENDBRANCH  12  14
ENDBRANCH   9  12
ENDBRANCH   1   8
BRANCH   7  18
HETATM   18  N   UNL     1     -39.385 -50.206  13.785  1.00  0.00    -0.379 N 
HETATM   19  C   UNL     1     -40.064 -49.663  14.975  1.00  0.00     0.123 C 
HETATM   20  C   UNL     1     -39.915 -48.143  14.948  1.00  0.00     0.020 C 
HETATM   21  C   UNL     1     -38.446 -47.726  14.862  1.00  0.00     0.003 C 
HETATM   22  C   UNL     1     -37.702 -48.469  13.746  1.00  0.00     0.020 C 
HETATM   23  C   UNL     1     -37.929 -49.985  13.829  1.00  0.00     0.123 C 
ENDBRANCH   7  18
TORSDOF 6
ENDMDL
MODEL 7
REMARK VINA RESULT:      -5.2      1.848      3.851
REMARK  6 active torsions:
REMARK  status: ('A' for Active; 'I' for Inactive)
REMARK    1  A    between atoms: C_2  and  O_3 
REMARK    2  A    between atoms: C_2  and  C_7 
REMARK    3  A    between atoms: O_3  and  C_4 
REMARK    4  A    between atoms: C_4  and  C_5 
REMARK       I    between atoms: C_7  and  N_9 
REMARK    5  A    between atoms: N_9  and  C_10 
REMARK    6  A    between atoms: C_16  and  N_17 
ROOT
HETATM    1  C   UNL     1     -44.438 -52.476  13.175  1.00  0.00     0.077 A 
HETATM    2  C   UNL     1     -45.819 -52.627  13.041  1.00  0.00     0.119 A 
HETATM    3  N   UNL     1     -46.529 -53.669  13.533  1.00  0.00    -0.373 N 
ATOM      4  HN  UNL     1     -47.541 -53.733  13.420  1.00  0.00     0.164 HD
HETATM    5  C   UNL     1     -45.828 -54.615  14.178  1.00  0.00     0.090 A 
HETATM    6  C   UNL     1     -44.455 -54.565  14.367  1.00  0.00     0.048 A 
HETATM    7  C   UNL     1     -43.721 -53.472  13.883  1.00  0.00     0.060 A 
ENDROOT
BRANCH   1   8
HETATM    8  N   UNL     1     -43.736 -51.339  12.703  1.00  0.00    -0.322 N 
HETATM    9  C   UNL     1     -43.505 -50.169  13.404  1.00  0.00     0.251 C 
HETATM   10  O   UNL     1     -43.888 -49.947  14.549  1.00  0.00    -0.270 OA
HETATM   11  H   UNL     1     -43.443 -51.416  11.736  1.00  0.00     0.169 HD
BRANCH   9  12
HETATM   12  C   UNL     1     -42.701 -49.114  12.600  1.00  0.00     0.209 C 
HETATM   13  C   UNL     1     -41.533 -49.825  11.913  1.00  0.00     0.050 C 
BRANCH  12  14
HETATM   14  O   UNL     1     -43.441 -48.438  11.585  1.00  0.00    -0.373 OA
BRANCH  14  15
HETATM   15  C   UNL     1     -42.664 -47.511  10.838  1.00  0.00     0.195 C 
BRANCH  15  16
HETATM   16  C   UNL     1     -43.027 -47.639   9.395  1.00  0.00    -0.011 C 
HETATM   17  C   UNL     1     -44.215 -47.283   8.895  1.00  0.00     0.009 C 
ENDBRANCH  15  16
ENDBRANCH  14  15
ENDBRANCH  12  14
ENDBRANCH   9  12
ENDBRANCH   1   8
BRANCH   7  18
HETATM   18  N   UNL     1     -42.347 -53.322  14.150  1.00  0.00    -0.379 N 
HETATM   19  C   UNL     1     -41.963 -52.883  15.504  1.00  0.00     0.123 C 
HETATM   20  C   UNL     1     -40.621 -52.163  15.401  1.00  0.00     0.020 C 
HETATM   21  C   UNL     1     -39.560 -53.045  14.741  1.00  0.00     0.003 C 
HETATM   22  C   UNL     1     -40.063 -53.667  13.433  1.00  0.00     0.020 C 
HETATM   23  C   UNL     1     -41.428 -54.344  13.618  1.00  0.00     0.123 C 
ENDBRANCH   7  18
TORSDOF 6
ENDMDL
MODEL 8
REMARK VINA RESULT:      -5.1      2.554      5.463
REMARK  6 active torsions:
REMARK  status: ('A' for Active; 'I' for Inactive)
REMARK    1  A    between atoms: C_2  and  O_3 
REMARK    2  A    between atoms: C_2  and  C_7 
REMARK    3  A    between atoms: O_3  and  C_4 
REMARK    4  A    between atoms: C_4  and  C_5 
REMARK       I    between atoms: C_7  and  N_9 
REMARK    5  A    between atoms: N_9  and  C_10 
REMARK    6  A    between atoms: C_16  and  N_17 
ROOT
HETATM    1  C   UNL     1     -39.805 -50.559  13.092  1.00  0.00     0.077 A 
HETATM    2  C   UNL     1     -38.686 -51.368  13.294  1.00  0.00     0.119 A 
HETATM    3  N   UNL     1     -37.472 -51.153  12.736  1.00  0.00    -0.373 N 
ATOM      4  HN  UNL     1     -36.678 -51.766  12.921  1.00  0.00     0.164 HD
HETATM    5  C   UNL     1     -37.370 -50.088  11.927  1.00  0.00     0.090 A 
HETATM    6  C   UNL     1     -38.417 -49.219  11.656  1.00  0.00     0.048 A 
HETATM    7  C   UNL     1     -39.668 -49.424  12.255  1.00  0.00     0.060 A 
ENDROOT
BRANCH   1   8
HETATM    8  N   UNL     1     -41.044 -50.778  13.744  1.00  0.00    -0.322 N 
HETATM    9  C   UNL     1     -42.121 -51.487  13.242  1.00  0.00     0.251 C 
HETATM   10  O   UNL     1     -42.155 -52.029  12.141  1.00  0.00    -0.270 OA
HETATM   11  H   UNL     1     -41.123 -50.304  14.636  1.00  0.00     0.169 HD
BRANCH   9  12
HETATM   12  C   UNL     1     -43.332 -51.542  14.209  1.00  0.00     0.209 C 
HETATM   13  C   UNL     1     -43.701 -50.108  14.593  1.00  0.00     0.050 C 
BRANCH  12  14
HETATM   14  O   UNL     1     -44.505 -52.151  13.671  1.00  0.00    -0.373 OA
BRANCH  14  15
HETATM   15  C   UNL     1     -45.631 -51.284  13.640  1.00  0.00     0.195 C 
BRANCH  15  16
HETATM   16  C   UNL     1     -46.736 -51.910  14.426  1.00  0.00    -0.011 C 
HETATM   17  C   UNL     1     -47.131 -51.474  15.626  1.00  0.00     0.009 C 
ENDBRANCH  15  16
ENDBRANCH  14  15
ENDBRANCH  12  14
ENDBRANCH   9  12
ENDBRANCH   1   8
BRANCH   7  18
HETATM   18  N   UNL     1     -40.725 -48.507  12.102  1.00  0.00    -0.379 N 
HETATM   19  C   UNL     1     -40.488 -47.119  12.538  1.00  0.00     0.123 C 
HETATM   20  C   UNL     1     -41.835 -46.509  12.918  1.00  0.00     0.020 C 
HETATM   21  C   UNL     1     -42.839 -46.606  11.767  1.00  0.00     0.003 C 
HETATM   22  C   UNL     1     -42.910 -48.022  11.185  1.00  0.00     0.020 C 
HETATM   23  C   UNL     1     -41.514 -48.570  10.859  1.00  0.00     0.123 C 
ENDBRANCH   7  18
TORSDOF 6
ENDMDL
MODEL 9
REMARK VINA RESULT:      -4.8      2.998      5.758
REMARK  6 active torsions:
REMARK  status: ('A' for Active; 'I' for Inactive)
REMARK    1  A    between atoms: C_2  and  O_3 
REMARK    2  A    between atoms: C_2  and  C_7 
REMARK    3  A    between atoms: O_3  and  C_4 
REMARK    4  A    between atoms: C_4  and  C_5 
REMARK       I    between atoms: C_7  and  N_9 
REMARK    5  A    between atoms: N_9  and  C_10 
REMARK    6  A    between atoms: C_16  and  N_17 
ROOT
HETATM    1  C   UNL     1     -43.280 -52.856  14.054  1.00  0.00     0.077 A 
HETATM    2  C   UNL     1     -44.135 -53.952  13.925  1.00  0.00     0.119 A 
HETATM    3  N   UNL     1     -45.427 -53.875  13.527  1.00  0.00    -0.373 N 
ATOM      4  HN  UNL     1     -46.013 -54.706  13.438  1.00  0.00     0.164 HD
HETATM    5  C   UNL     1     -45.895 -52.647  13.258  1.00  0.00     0.090 A 
HETATM    6  C   UNL     1     -45.134 -51.491  13.354  1.00  0.00     0.048 A 
HETATM    7  C   UNL     1     -43.787 -51.571  13.739  1.00  0.00     0.060 A 
ENDROOT
BRANCH   1   8
HETATM    8  N   UNL     1     -41.914 -52.980  14.410  1.00  0.00    -0.322 N 
HETATM    9  C   UNL     1     -40.904 -53.494  13.618  1.00  0.00     0.251 C 
HETATM   10  O   UNL     1     -41.054 -53.928  12.480  1.00  0.00    -0.270 OA
HETATM   11  H   UNL     1     -41.718 -52.704  15.365  1.00  0.00     0.169 HD
BRANCH   9  12
HETATM   12  C   UNL     1     -39.514 -53.488  14.307  1.00  0.00     0.209 C 
HETATM   13  C   UNL     1     -39.071 -54.940  14.500  1.00  0.00     0.050 C 
BRANCH  12  14
HETATM   14  O   UNL     1     -38.483 -52.825  13.576  1.00  0.00    -0.373 OA
BRANCH  14  15
HETATM   15  C   UNL     1     -38.420 -51.427  13.826  1.00  0.00     0.195 C 
BRANCH  15  16
HETATM   16  C   UNL     1     -37.336 -50.840  12.982  1.00  0.00    -0.011 C 
HETATM   17  C   UNL     1     -37.525 -50.405  11.732  1.00  0.00     0.009 C 
ENDBRANCH  15  16
ENDBRANCH  14  15
ENDBRANCH  12  14
ENDBRANCH   9  12
ENDBRANCH   1   8
BRANCH   7  18
HETATM   18  N   UNL     1     -42.946 -50.442  13.738  1.00  0.00    -0.379 N 
HETATM   19  C   UNL     1     -42.468 -49.952  12.433  1.00  0.00     0.123 C 
HETATM   20  C   UNL     1     -41.137 -49.238  12.658  1.00  0.00     0.020 C 
HETATM   21  C   UNL     1     -41.267 -48.124  13.698  1.00  0.00     0.003 C 
HETATM   22  C   UNL     1     -41.966 -48.608  14.973  1.00  0.00     0.020 C 
HETATM   23  C   UNL     1     -43.279 -49.338  14.656  1.00  0.00     0.123 C 
ENDBRANCH   7  18
TORSDOF 6
ENDMDL
