MODEL 1
REMARK VINA RESULT:      -6.3      0.000      0.000
REMARK  5 active torsions:
REMARK  status: ('A' for Active; 'I' for Inactive)
REMARK    1  A    between atoms: C_2  and  C_4 
REMARK    2  A    between atoms: C_4  and  N_6 
REMARK       I    between atoms: N_6  and  C_7 
REMARK    3  A    between atoms: C_7  and  C_9 
REMARK    4  A    between atoms: C_9  and  C_10 
REMARK    5  A    between atoms: C_13  and  N_16 
ROOT
HETATM    1  C   UNL     1     -40.656 -51.075  11.858  1.00  0.00     0.026 A 
HETATM    2  C   UNL     1     -39.498 -50.836  12.574  1.00  0.00     0.078 A 
HETATM    3  S   UNL     1     -39.087 -49.181  12.483  1.00  0.00    -0.064 SA
HETATM    4  C   UNL     1     -40.468 -48.887  11.520  1.00  0.00     0.155 A 
HETATM    5  N   UNL     1     -41.168 -49.958  11.200  1.00  0.00    -0.339 N 
ATOM      6  HN  UNL     1     -41.966 -49.967  10.565  1.00  0.00     0.168 HD
ENDROOT
BRANCH   1   7
HETATM    7  C   UNL     1     -41.402 -52.367  11.808  1.00  0.00     0.160 C 
BRANCH   7   8
HETATM    8  C   UNL     1     -42.393 -52.519  12.941  1.00  0.00     0.223 C 
HETATM    9  N   UNL     1     -43.717 -52.448  12.553  1.00  0.00    -0.356 N 
HETATM   10  H   UNL     1     -43.903 -52.648  11.572  1.00  0.00     0.162 HD
HETATM   11  O   UNL     1     -42.032 -52.623  14.111  1.00  0.00    -0.273 OA
BRANCH   9  12
HETATM   12  C   UNL     1     -44.803 -52.601  13.516  1.00  0.00     0.083 C 
HETATM   13  C   UNL     1     -45.379 -54.015  13.397  1.00  0.00     0.032 C 
BRANCH  12  14
HETATM   14  C   UNL     1     -45.882 -51.504  13.321  1.00  0.00    -0.000 C 
HETATM   15  C   UNL     1     -46.753 -51.779  12.090  1.00  0.00     0.011 C 
HETATM   16  C   UNL     1     -46.795 -51.380  14.549  1.00  0.00     0.011 C 
ENDBRANCH  12  14
ENDBRANCH   9  12
ENDBRANCH   7   8
ENDBRANCH   1   7
BRANCH   4  17
HETATM   17  N   UNL     1     -40.795 -47.614  11.106  1.00  0.00    -0.278 N 
HETATM   18  C   UNL     1     -40.000 -46.440  11.381  1.00  0.00     0.155 C 
HETATM   19  C   UNL     1     -40.531 -45.389  10.422  1.00  0.00     0.145 C 
HETATM   20  N   UNL     1     -41.768 -45.939   9.953  1.00  0.00    -0.341 N 
HETATM   21  C   UNL     1     -41.860 -47.296  10.255  1.00  0.00     0.324 C 
HETATM   22  H   UNL     1     -42.317 -45.585   9.179  1.00  0.00     0.164 HD
HETATM   23  O   UNL     1     -42.721 -48.000   9.757  1.00  0.00    -0.247 OA
ENDBRANCH   4  17
TORSDOF 5
ENDMDL
MODEL 2
REMARK VINA RESULT:      -5.9      2.662      3.795
REMARK  5 active torsions:
REMARK  status: ('A' for Active; 'I' for Inactive)
REMARK    1  A    between atoms: C_2  and  C_4 
REMARK    2  A    between atoms: C_4  and  N_6 
REMARK       I    between atoms: N_6  and  C_7 
REMARK    3  A    between atoms: C_7  and  C_9 
REMARK    4  A    between atoms: C_9  and  C_10 
REMARK    5  A    between atoms: C_13  and  N_16 
ROOT
HETATM    1  C   UNL     1     -41.355 -48.704  11.124  1.00  0.00     0.026 A 
HETATM    2  C   UNL     1     -41.427 -47.826  12.188  1.00  0.00     0.078 A 
HETATM    3  S   UNL     1     -42.736 -46.751  11.972  1.00  0.00    -0.064 SA
HETATM    4  C   UNL     1     -43.131 -47.524  10.499  1.00  0.00     0.155 A 
HETATM    5  N   UNL     1     -42.300 -48.478  10.125  1.00  0.00    -0.339 N 
ATOM      6  HN  UNL     1     -42.344 -48.976   9.236  1.00  0.00     0.168 HD
ENDROOT
BRANCH   1   7
HETATM    7  C   UNL     1     -40.431 -49.871  11.014  1.00  0.00     0.160 C 
BRANCH   7   8
HETATM    8  C   UNL     1     -40.438 -50.747  12.247  1.00  0.00     0.223 C 
HETATM    9  N   UNL     1     -41.381 -51.756  12.223  1.00  0.00    -0.356 N 
HETATM   10  H   UNL     1     -41.717 -52.028  11.301  1.00  0.00     0.162 HD
HETATM   11  O   UNL     1     -39.709 -50.521  13.209  1.00  0.00    -0.273 OA
BRANCH   9  12
HETATM   12  C   UNL     1     -41.506 -52.709  13.322  1.00  0.00     0.083 C 
HETATM   13  C   UNL     1     -40.674 -53.952  13.000  1.00  0.00     0.032 C 
BRANCH  12  14
HETATM   14  C   UNL     1     -42.994 -53.049  13.600  1.00  0.00    -0.000 C 
HETATM   15  C   UNL     1     -43.803 -53.157  12.302  1.00  0.00     0.011 C 
HETATM   16  C   UNL     1     -43.141 -54.363  14.380  1.00  0.00     0.011 C 
ENDBRANCH  12  14
ENDBRANCH   9  12
ENDBRANCH   7   8
ENDBRANCH   1   7
BRANCH   4  17
HETATM   17  N   UNL     1     -44.233 -47.146   9.765  1.00  0.00    -0.278 N 
HETATM   18  C   UNL     1     -45.443 -47.928   9.653  1.00  0.00     0.155 C 
HETATM   19  C   UNL     1     -46.472 -46.957   9.097  1.00  0.00     0.145 C 
HETATM   20  N   UNL     1     -45.690 -45.850   8.633  1.00  0.00    -0.341 N 
HETATM   21  C   UNL     1     -44.394 -45.905   9.138  1.00  0.00     0.324 C 
HETATM   22  H   UNL     1     -46.053 -44.949   8.347  1.00  0.00     0.164 HD
HETATM   23  O   UNL     1     -43.637 -44.953   9.048  1.00  0.00    -0.247 OA
ENDBRANCH   4  17
TORSDOF 5
ENDMDL
MODEL 3
REMARK VINA RESULT:      -5.7      4.271      6.706
REMARK  5 active torsions:
REMARK  status: ('A' for Active; 'I' for Inactive)
REMARK    1  A    between atoms: C_2  and  C_4 
REMARK    2  A    between atoms: C_4  and  N_6 
REMARK       I    between atoms: N_6  and  C_7 
REMARK    3  A    between atoms: C_7  and  C_9 
REMARK    4  A    between atoms: C_9  and  C_10 
REMARK    5  A    between atoms: C_13  and  N_16 
ROOT
HETATM    1  C   UNL     1     -41.571 -53.040  13.211  1.00  0.00     0.026 A 
HETATM    2  C   UNL     1     -40.310 -52.511  13.409  1.00  0.00     0.078 A 
HETATM    3  S   UNL     1     -39.558 -53.274  14.739  1.00  0.00    -0.064 SA
HETATM    4  C   UNL     1     -40.937 -54.261  14.956  1.00  0.00     0.155 A 
HETATM    5  N   UNL     1     -41.948 -54.000  14.150  1.00  0.00    -0.339 N 
ATOM      6  HN  UNL     1     -42.868 -54.436  14.205  1.00  0.00     0.168 HD
ENDROOT
BRANCH   1   7
HETATM    7  C   UNL     1     -42.483 -52.727  12.071  1.00  0.00     0.160 C 
BRANCH   7   8
HETATM    8  C   UNL     1     -43.912 -53.153  12.325  1.00  0.00     0.223 C 
HETATM    9  N   UNL     1     -44.797 -52.106  12.496  1.00  0.00    -0.356 N 
HETATM   10  H   UNL     1     -44.505 -51.212  12.106  1.00  0.00     0.162 HD
HETATM   11  O   UNL     1     -44.227 -54.335  12.440  1.00  0.00    -0.273 OA
BRANCH   9  12
HETATM   12  C   UNL     1     -46.219 -52.339  12.723  1.00  0.00     0.083 C 
HETATM   13  C   UNL     1     -47.026 -51.543  11.695  1.00  0.00     0.032 C 
BRANCH  12  14
HETATM   14  C   UNL     1     -46.615 -51.993  14.183  1.00  0.00    -0.000 C 
HETATM   15  C   UNL     1     -46.761 -53.253  15.045  1.00  0.00     0.011 C 
HETATM   16  C   UNL     1     -45.589 -51.063  14.845  1.00  0.00     0.011 C 
ENDBRANCH  12  14
ENDBRANCH   9  12
ENDBRANCH   7   8
ENDBRANCH   1   7
BRANCH   4  17
HETATM   17  N   UNL     1     -40.972 -55.240  15.925  1.00  0.00    -0.278 N 
HETATM   18  C   UNL     1     -39.800 -55.871  16.486  1.00  0.00     0.155 C 
HETATM   19  C   UNL     1     -40.306 -56.559  17.743  1.00  0.00     0.145 C 
HETATM   20  N   UNL     1     -41.731 -56.550  17.595  1.00  0.00    -0.341 N 
HETATM   21  C   UNL     1     -42.125 -55.666  16.594  1.00  0.00     0.324 C 
HETATM   22  H   UNL     1     -42.401 -56.783  18.317  1.00  0.00     0.164 HD
HETATM   23  O   UNL     1     -43.293 -55.342  16.457  1.00  0.00    -0.247 OA
ENDBRANCH   4  17
TORSDOF 5
ENDMDL
MODEL 4
REMARK VINA RESULT:      -5.7      2.116      6.650
REMARK  5 active torsions:
REMARK  status: ('A' for Active; 'I' for Inactive)
REMARK    1  A    between atoms: C_2  and  C_4 
REMARK    2  A    between atoms: C_4  and  N_6 
REMARK       I    between atoms: N_6  and  C_7 
REMARK    3  A    between atoms: C_7  and  C_9 
REMARK    4  A    between atoms: C_9  and  C_10 
REMARK    5  A    between atoms: C_13  and  N_16 
ROOT
HETATM    1  C   UNL     1     -41.394 -51.697  12.242  1.00  0.00     0.026 A 
HETATM    2  C   UNL     1     -40.668 -52.784  12.688  1.00  0.00     0.078 A 
HETATM    3  S   UNL     1     -41.720 -53.961  13.341  1.00  0.00    -0.064 SA
HETATM    4  C   UNL     1     -43.062 -52.966  12.979  1.00  0.00     0.155 A 
HETATM    5  N   UNL     1     -42.766 -51.783  12.476  1.00  0.00    -0.339 N 
ATOM      6  HN  UNL     1     -43.440 -51.042  12.286  1.00  0.00     0.168 HD
ENDROOT
BRANCH   1   7
HETATM    7  C   UNL     1     -40.846 -50.528  11.493  1.00  0.00     0.160 C 
BRANCH   7   8
HETATM    8  C   UNL     1     -41.744 -49.312  11.560  1.00  0.00     0.223 C 
HETATM    9  N   UNL     1     -41.754 -48.546  10.409  1.00  0.00    -0.356 N 
HETATM   10  H   UNL     1     -41.464 -49.024   9.558  1.00  0.00     0.162 HD
HETATM   11  O   UNL     1     -42.348 -49.006  12.585  1.00  0.00    -0.273 OA
BRANCH   9  12
HETATM   12  C   UNL     1     -42.586 -47.353  10.295  1.00  0.00     0.083 C 
HETATM   13  C   UNL     1     -43.494 -47.494   9.071  1.00  0.00     0.032 C 
BRANCH  12  14
HETATM   14  C   UNL     1     -41.715 -46.069  10.242  1.00  0.00    -0.000 C 
HETATM   15  C   UNL     1     -42.373 -44.908  10.995  1.00  0.00     0.011 C 
HETATM   16  C   UNL     1     -40.317 -46.306  10.829  1.00  0.00     0.011 C 
ENDBRANCH  12  14
ENDBRANCH   9  12
ENDBRANCH   7   8
ENDBRANCH   1   7
BRANCH   4  17
HETATM   17  N   UNL     1     -44.351 -53.386  13.221  1.00  0.00    -0.278 N 
HETATM   18  C   UNL     1     -44.702 -54.708  13.689  1.00  0.00     0.155 C 
HETATM   19  C   UNL     1     -46.136 -54.571  14.171  1.00  0.00     0.145 C 
HETATM   20  N   UNL     1     -46.568 -53.317  13.629  1.00  0.00    -0.341 N 
HETATM   21  C   UNL     1     -45.485 -52.565  13.181  1.00  0.00     0.324 C 
HETATM   22  H   UNL     1     -47.418 -52.826  13.878  1.00  0.00     0.164 HD
HETATM   23  O   UNL     1     -45.606 -51.387  12.891  1.00  0.00    -0.247 OA
ENDBRANCH   4  17
TORSDOF 5
ENDMDL
MODEL 5
REMARK VINA RESULT:      -5.6      2.608      6.712
REMARK  5 active torsions:
REMARK  status: ('A' for Active; 'I' for Inactive)
REMARK    1  A    between atoms: C_2  and  C_4 
REMARK    2  A    between atoms: C_4  and  N_6 
REMARK       I    between atoms: N_6  and  C_7 
REMARK    3  A    between atoms: C_7  and  C_9 
REMARK    4  A    between atoms: C_9  and  C_10 
REMARK    5  A    between atoms: C_13  and  N_16 
ROOT
HETATM    1  C   UNL     1     -42.683 -49.764  12.677  1.00  0.00     0.026 A 
HETATM    2  C   UNL     1     -41.593 -50.546  12.349  1.00  0.00     0.078 A 
HETATM    3  S   UNL     1     -42.010 -52.199  12.441  1.00  0.00    -0.064 SA
HETATM    4  C   UNL     1     -43.603 -51.775  12.893  1.00  0.00     0.155 A 
HETATM    5  N   UNL     1     -43.817 -50.483  13.054  1.00  0.00    -0.339 N 
ATOM      6  HN  UNL     1     -44.683 -50.072  13.402  1.00  0.00     0.168 HD
ENDROOT
BRANCH   1   7
HETATM    7  C   UNL     1     -42.752 -48.276  12.585  1.00  0.00     0.160 C 
BRANCH   7   8
HETATM    8  C   UNL     1     -42.584 -47.764  11.171  1.00  0.00     0.223 C 
HETATM    9  N   UNL     1     -43.602 -46.936  10.740  1.00  0.00    -0.356 N 
HETATM   10  H   UNL     1     -44.146 -46.485  11.473  1.00  0.00     0.162 HD
HETATM   11  O   UNL     1     -41.652 -48.125  10.456  1.00  0.00    -0.273 OA
BRANCH   9  12
HETATM   12  C   UNL     1     -43.583 -46.334   9.411  1.00  0.00     0.083 C 
HETATM   13  C   UNL     1     -43.931 -44.848   9.531  1.00  0.00     0.032 C 
BRANCH  12  14
HETATM   14  C   UNL     1     -44.533 -47.088   8.443  1.00  0.00    -0.000 C 
HETATM   15  C   UNL     1     -43.775 -48.108   7.585  1.00  0.00     0.011 C 
HETATM   16  C   UNL     1     -45.651 -47.819   9.199  1.00  0.00     0.011 C 
ENDBRANCH  12  14
ENDBRANCH   9  12
ENDBRANCH   7   8
ENDBRANCH   1   7
BRANCH   4  17
HETATM   17  N   UNL     1     -44.573 -52.734  13.086  1.00  0.00    -0.278 N 
HETATM   18  C   UNL     1     -44.319 -54.157  13.093  1.00  0.00     0.155 C 
HETATM   19  C   UNL     1     -45.567 -54.760  13.716  1.00  0.00     0.145 C 
HETATM   20  N   UNL     1     -46.523 -53.694  13.684  1.00  0.00    -0.341 N 
HETATM   21  C   UNL     1     -45.904 -52.473  13.432  1.00  0.00     0.324 C 
HETATM   22  H   UNL     1     -47.416 -53.686  14.161  1.00  0.00     0.164 HD
HETATM   23  O   UNL     1     -46.496 -51.418  13.581  1.00  0.00    -0.247 OA
ENDBRANCH   4  17
TORSDOF 5
ENDMDL
MODEL 6
REMARK VINA RESULT:      -5.6      1.865      6.749
REMARK  5 active torsions:
REMARK  status: ('A' for Active; 'I' for Inactive)
REMARK    1  A    between atoms: C_2  and  C_4 
REMARK    2  A    between atoms: C_4  and  N_6 
REMARK       I    between atoms: N_6  and  C_7 
REMARK    3  A    between atoms: C_7  and  C_9 
REMARK    4  A    between atoms: C_9  and  C_10 
REMARK    5  A    between atoms: C_13  and  N_16 
ROOT
HETATM    1  C   UNL     1     -41.142 -50.718  12.036  1.00  0.00     0.026 A 
HETATM    2  C   UNL     1     -40.489 -51.581  12.894  1.00  0.00     0.078 A 
HETATM    3  S   UNL     1     -41.627 -52.484  13.792  1.00  0.00    -0.064 SA
HETATM    4  C   UNL     1     -42.904 -51.688  12.980  1.00  0.00     0.155 A 
HETATM    5  N   UNL     1     -42.532 -50.740  12.142  1.00  0.00    -0.339 N 
ATOM      6  HN  UNL     1     -43.168 -50.115  11.646  1.00  0.00     0.168 HD
ENDROOT
BRANCH   1   7
HETATM    7  C   UNL     1     -40.496 -49.861  10.998  1.00  0.00     0.160 C 
BRANCH   7   8
HETATM    8  C   UNL     1     -41.112 -48.482  10.905  1.00  0.00     0.223 C 
HETATM    9  N   UNL     1     -40.220 -47.445  11.100  1.00  0.00    -0.356 N 
HETATM   10  H   UNL     1     -39.239 -47.669  10.940  1.00  0.00     0.162 HD
HETATM   11  O   UNL     1     -42.319 -48.319  10.744  1.00  0.00    -0.273 OA
BRANCH   9  12
HETATM   12  C   UNL     1     -40.642 -46.051  11.018  1.00  0.00     0.083 C 
HETATM   13  C   UNL     1     -39.606 -45.263  10.213  1.00  0.00     0.032 C 
BRANCH  12  14
HETATM   14  C   UNL     1     -40.873 -45.454  12.431  1.00  0.00    -0.000 C 
HETATM   15  C   UNL     1     -39.951 -44.259  12.699  1.00  0.00     0.011 C 
HETATM   16  C   UNL     1     -42.327 -45.004  12.628  1.00  0.00     0.011 C 
ENDBRANCH  12  14
ENDBRANCH   9  12
ENDBRANCH   7   8
ENDBRANCH   1   7
BRANCH   4  17
HETATM   17  N   UNL     1     -44.220 -52.021  13.215  1.00  0.00    -0.278 N 
HETATM   18  C   UNL     1     -45.192 -51.127  13.801  1.00  0.00     0.155 C 
HETATM   19  C   UNL     1     -46.533 -51.775  13.500  1.00  0.00     0.145 C 
HETATM   20  N   UNL     1     -46.192 -53.106  13.093  1.00  0.00    -0.341 N 
HETATM   21  C   UNL     1     -44.834 -53.210  12.804  1.00  0.00     0.324 C 
HETATM   22  H   UNL     1     -46.822 -53.773  12.665  1.00  0.00     0.164 HD
HETATM   23  O   UNL     1     -44.378 -54.186  12.233  1.00  0.00    -0.247 OA
ENDBRANCH   4  17
TORSDOF 5
ENDMDL
MODEL 7
REMARK VINA RESULT:      -5.6      1.942      2.452
REMARK  5 active torsions:
REMARK  status: ('A' for Active; 'I' for Inactive)
REMARK    1  A    between atoms: C_2  and  C_4 
REMARK    2  A    between atoms: C_4  and  N_6 
REMARK       I    between atoms: N_6  and  C_7 
REMARK    3  A    between atoms: C_7  and  C_9 
REMARK    4  A    between atoms: C_9  and  C_10 
REMARK    5  A    between atoms: C_13  and  N_16 
ROOT
HETATM    1  C   UNL     1     -41.745 -51.871  12.591  1.00  0.00     0.026 A 
HETATM    2  C   UNL     1     -40.387 -51.707  12.395  1.00  0.00     0.078 A 
HETATM    3  S   UNL     1     -40.070 -50.147  11.777  1.00  0.00    -0.064 SA
HETATM    4  C   UNL     1     -41.740 -49.786  11.822  1.00  0.00     0.155 A 
HETATM    5  N   UNL     1     -42.521 -50.783  12.194  1.00  0.00    -0.339 N 
ATOM      6  HN  UNL     1     -43.540 -50.760  12.192  1.00  0.00     0.168 HD
ENDROOT
BRANCH   1   7
HETATM    7  C   UNL     1     -42.400 -53.045  13.239  1.00  0.00     0.160 C 
BRANCH   7   8
HETATM    8  C   UNL     1     -43.889 -53.108  12.978  1.00  0.00     0.223 C 
HETATM    9  N   UNL     1     -44.672 -52.739  14.055  1.00  0.00    -0.356 N 
HETATM   10  H   UNL     1     -44.216 -52.156  14.754  1.00  0.00     0.162 HD
HETATM   11  O   UNL     1     -44.345 -53.525  11.917  1.00  0.00    -0.273 OA
BRANCH   9  12
HETATM   12  C   UNL     1     -46.128 -52.718  13.966  1.00  0.00     0.083 C 
HETATM   13  C   UNL     1     -46.563 -51.448  13.230  1.00  0.00     0.032 C 
BRANCH  12  14
HETATM   14  C   UNL     1     -46.775 -52.838  15.371  1.00  0.00    -0.000 C 
HETATM   15  C   UNL     1     -45.827 -53.504  16.376  1.00  0.00     0.011 C 
HETATM   16  C   UNL     1     -47.192 -51.468  15.925  1.00  0.00     0.011 C 
ENDBRANCH  12  14
ENDBRANCH   9  12
ENDBRANCH   7   8
ENDBRANCH   1   7
BRANCH   4  17
HETATM   17  N   UNL     1     -42.214 -48.541  11.473  1.00  0.00    -0.278 N 
HETATM   18  C   UNL     1     -42.223 -48.023  10.124  1.00  0.00     0.155 C 
HETATM   19  C   UNL     1     -43.166 -46.833  10.182  1.00  0.00     0.145 C 
HETATM   20  N   UNL     1     -43.325 -46.582  11.583  1.00  0.00    -0.341 N 
HETATM   21  C   UNL     1     -42.870 -47.659  12.340  1.00  0.00     0.324 C 
HETATM   22  H   UNL     1     -44.009 -45.962  11.999  1.00  0.00     0.164 HD
HETATM   23  O   UNL     1     -43.113 -47.746  13.531  1.00  0.00    -0.247 OA
ENDBRANCH   4  17
TORSDOF 5
ENDMDL
MODEL 8
REMARK VINA RESULT:      -5.5      2.830      3.595
REMARK  5 active torsions:
REMARK  status: ('A' for Active; 'I' for Inactive)
REMARK    1  A    between atoms: C_2  and  C_4 
REMARK    2  A    between atoms: C_4  and  N_6 
REMARK       I    between atoms: N_6  and  C_7 
REMARK    3  A    between atoms: C_7  and  C_9 
REMARK    4  A    between atoms: C_9  and  C_10 
REMARK    5  A    between atoms: C_13  and  N_16 
ROOT
HETATM    1  C   UNL     1     -41.014 -53.526  14.151  1.00  0.00     0.026 A 
HETATM    2  C   UNL     1     -40.365 -53.275  15.345  1.00  0.00     0.078 A 
HETATM    3  S   UNL     1     -39.167 -52.079  15.118  1.00  0.00    -0.064 SA
HETATM    4  C   UNL     1     -39.594 -51.960  13.467  1.00  0.00     0.155 A 
HETATM    5  N   UNL     1     -40.516 -52.812  13.062  1.00  0.00    -0.339 N 
ATOM      6  HN  UNL     1     -40.820 -52.930  12.096  1.00  0.00     0.168 HD
ENDROOT
BRANCH   1   7
HETATM    7  C   UNL     1     -42.205 -54.407  13.972  1.00  0.00     0.160 C 
BRANCH   7   8
HETATM    8  C   UNL     1     -43.426 -53.657  13.485  1.00  0.00     0.223 C 
HETATM    9  N   UNL     1     -44.327 -53.330  14.479  1.00  0.00    -0.356 N 
HETATM   10  H   UNL     1     -43.952 -53.302  15.425  1.00  0.00     0.162 HD
HETATM   11  O   UNL     1     -43.618 -53.432  12.293  1.00  0.00    -0.273 OA
BRANCH   9  12
HETATM   12  C   UNL     1     -45.546 -52.583  14.187  1.00  0.00     0.083 C 
HETATM   13  C   UNL     1     -45.195 -51.102  14.022  1.00  0.00     0.032 C 
BRANCH  12  14
HETATM   14  C   UNL     1     -46.621 -52.818  15.281  1.00  0.00    -0.000 C 
HETATM   15  C   UNL     1     -46.067 -53.634  16.454  1.00  0.00     0.011 C 
HETATM   16  C   UNL     1     -47.178 -51.495  15.825  1.00  0.00     0.011 C 
ENDBRANCH  12  14
ENDBRANCH   9  12
ENDBRANCH   7   8
ENDBRANCH   1   7
BRANCH   4  17
HETATM   17  N   UNL     1     -38.988 -51.045  12.635  1.00  0.00    -0.278 N 
HETATM   18  C   UNL     1     -37.559 -50.858  12.532  1.00  0.00     0.155 C 
HETATM   19  C   UNL     1     -37.372 -50.061  11.253  1.00  0.00     0.145 C 
HETATM   20  N   UNL     1     -38.687 -49.584  10.944  1.00  0.00    -0.341 N 
HETATM   21  C   UNL     1     -39.653 -50.264  11.681  1.00  0.00     0.324 C 
HETATM   22  H   UNL     1     -38.970 -49.150  10.073  1.00  0.00     0.164 HD
HETATM   23  O   UNL     1     -40.839 -50.171  11.413  1.00  0.00    -0.247 OA
ENDBRANCH   4  17
TORSDOF 5
ENDMDL
MODEL 9
REMARK VINA RESULT:      -5.4      3.214      6.670
REMARK  5 active torsions:
REMARK  status: ('A' for Active; 'I' for Inactive)
REMARK    1  A    between atoms: C_2  and  C_4 
REMARK    2  A    between atoms: C_4  and  N_6 
REMARK       I    between atoms: N_6  and  C_7 
REMARK    3  A    between atoms: C_7  and  C_9 
REMARK    4  A    between atoms: C_9  and  C_10 
REMARK    5  A    between atoms: C_13  and  N_16 
ROOT
HETATM    1  C   UNL     1     -41.129 -53.147  14.909  1.00  0.00     0.026 A 
HETATM    2  C   UNL     1     -41.328 -54.352  15.554  1.00  0.00     0.078 A 
HETATM    3  S   UNL     1     -42.993 -54.730  15.588  1.00  0.00    -0.064 SA
HETATM    4  C   UNL     1     -43.340 -53.288  14.738  1.00  0.00     0.155 A 
HETATM    5  N   UNL     1     -42.301 -52.510  14.503  1.00  0.00    -0.339 N 
ATOM      6  HN  UNL     1     -42.349 -51.581  14.085  1.00  0.00     0.168 HD
ENDROOT
BRANCH   1   7
HETATM    7  C   UNL     1     -39.807 -52.546  14.564  1.00  0.00     0.160 C 
BRANCH   7   8
HETATM    8  C   UNL     1     -39.768 -51.969  13.166  1.00  0.00     0.223 C 
HETATM    9  N   UNL     1     -39.080 -50.775  13.061  1.00  0.00    -0.356 N 
HETATM   10  H   UNL     1     -38.405 -50.588  13.799  1.00  0.00     0.162 HD
HETATM   11  O   UNL     1     -40.366 -52.494  12.229  1.00  0.00    -0.273 OA
BRANCH   9  12
HETATM   12  C   UNL     1     -38.924 -50.096  11.779  1.00  0.00     0.083 C 
HETATM   13  C   UNL     1     -37.433 -49.972  11.460  1.00  0.00     0.032 C 
BRANCH  12  14
HETATM   14  C   UNL     1     -39.645 -48.722  11.784  1.00  0.00    -0.000 C 
HETATM   15  C   UNL     1     -41.053 -48.818  11.187  1.00  0.00     0.011 C 
HETATM   16  C   UNL     1     -39.753 -48.142  13.202  1.00  0.00     0.011 C 
ENDBRANCH  12  14
ENDBRANCH   9  12
ENDBRANCH   7   8
ENDBRANCH   1   7
BRANCH   4  17
HETATM   17  N   UNL     1     -44.625 -52.975  14.353  1.00  0.00    -0.278 N 
HETATM   18  C   UNL     1     -45.387 -51.869  14.886  1.00  0.00     0.155 C 
HETATM   19  C   UNL     1     -46.538 -51.697  13.909  1.00  0.00     0.145 C 
HETATM   20  N   UNL     1     -46.520 -52.901  13.134  1.00  0.00    -0.341 N 
HETATM   21  C   UNL     1     -45.324 -53.592  13.308  1.00  0.00     0.324 C 
HETATM   22  H   UNL     1     -47.045 -53.065  12.283  1.00  0.00     0.164 HD
HETATM   23  O   UNL     1     -45.012 -54.518  12.579  1.00  0.00    -0.247 OA
ENDBRANCH   4  17
TORSDOF 5
ENDMDL
