MODEL 1
REMARK VINA RESULT:      -5.4      0.000      0.000
REMARK  7 active torsions:
REMARK  status: ('A' for Active; 'I' for Inactive)
REMARK    1  A    between atoms: C_2  and  N_3 
REMARK    2  A    between atoms: N_3  and  C_4 
REMARK    3  A    between atoms: N_3  and  C_6 
REMARK    4  A    between atoms: C_6  and  C_7 
REMARK    5  A    between atoms: C_7  and  N_8 
REMARK       I    between atoms: N_8  and  C_9 
REMARK    6  A    between atoms: C_9  and  C_11 
REMARK    7  A    between atoms: C_17  and  N_18 
ROOT
HETATM    1  C   UNL     1     -41.357 -49.049  11.735  1.00  0.00     0.075 A 
HETATM    2  C   UNL     1     -42.395 -48.436  11.008  1.00  0.00     0.022 A 
HETATM    3  C   UNL     1     -42.195 -47.193  10.423  1.00  0.00     0.018 A 
HETATM    4  C   UNL     1     -40.966 -46.601  10.596  1.00  0.00     0.089 A 
HETATM    5  N   UNL     1     -39.949 -47.174  11.273  1.00  0.00    -0.352 N 
ATOM      6  HN  UNL     1     -39.055 -46.688  11.357  1.00  0.00     0.166 HD
HETATM    7  C   UNL     1     -40.114 -48.399  11.846  1.00  0.00     0.119 A 
ENDROOT
BRANCH   1   8
HETATM    8  C   UNL     1     -41.717 -50.267  12.508  1.00  0.00     0.255 C 
HETATM    9  N   UNL     1     -41.999 -51.419  11.794  1.00  0.00    -0.355 N 
HETATM   10  H   UNL     1     -41.745 -51.503  10.817  1.00  0.00     0.162 HD
HETATM   11  O   UNL     1     -41.789 -50.230  13.734  1.00  0.00    -0.268 OA
BRANCH   9  12
HETATM   12  C   UNL     1     -42.298 -52.637  12.524  1.00  0.00     0.153 C 
BRANCH  12  13
HETATM   13  C   UNL     1     -43.801 -52.960  12.636  1.00  0.00     0.292 C 
BRANCH  13  14
HETATM   14  N   UNL     1     -44.466 -52.527  13.888  1.00  0.00     0.089 N 
BRANCH  14  15
HETATM   15  C   UNL     1     -45.344 -51.364  13.661  1.00  0.00     0.268 C 
HETATM   16  C   UNL     1     -46.459 -51.596  12.646  1.00  0.00     0.037 C 
ENDBRANCH  14  15
BRANCH  14  17
HETATM   17  C   UNL     1     -45.153 -53.668  14.531  1.00  0.00     0.268 C 
HETATM   18  C   UNL     1     -45.257 -54.958  13.717  1.00  0.00     0.037 C 
ENDBRANCH  14  17
ENDBRANCH  13  14
ENDBRANCH  12  13
ENDBRANCH   9  12
ENDBRANCH   1   8
BRANCH   7  19
HETATM   19  N   UNL     1     -38.981 -48.901  12.437  1.00  0.00    -0.362 N 
HETATM   20  C   UNL     1     -37.993 -49.616  11.618  1.00  0.00     0.150 C 
HETATM   21  C   UNL     1     -37.557 -50.902  12.335  1.00  0.00     0.187 C 
HETATM   22  O   UNL     1     -37.076 -50.633  13.665  1.00  0.00    -0.388 OA
HETATM   23  C   UNL     1     -38.105 -50.000  14.442  1.00  0.00     0.187 C 
HETATM   24  C   UNL     1     -38.565 -48.668  13.819  1.00  0.00     0.150 C 
ENDBRANCH   7  19
TORSDOF 7
ENDMDL
MODEL 2
REMARK VINA RESULT:      -5.3      2.250      6.116
REMARK  7 active torsions:
REMARK  status: ('A' for Active; 'I' for Inactive)
REMARK    1  A    between atoms: C_2  and  N_3 
REMARK    2  A    between atoms: N_3  and  C_4 
REMARK    3  A    between atoms: N_3  and  C_6 
REMARK    4  A    between atoms: C_6  and  C_7 
REMARK    5  A    between atoms: C_7  and  N_8 
REMARK       I    between atoms: N_8  and  C_9 
REMARK    6  A    between atoms: C_9  and  C_11 
REMARK    7  A    between atoms: C_17  and  N_18 
ROOT
HETATM    1  C   UNL     1     -44.182 -51.273  13.397  1.00  0.00     0.075 A 
HETATM    2  C   UNL     1     -45.570 -51.219  13.629  1.00  0.00     0.022 A 
HETATM    3  C   UNL     1     -46.328 -52.381  13.588  1.00  0.00     0.018 A 
HETATM    4  C   UNL     1     -45.673 -53.556  13.304  1.00  0.00     0.089 A 
HETATM    5  N   UNL     1     -44.342 -53.638  13.094  1.00  0.00    -0.352 N 
ATOM      6  HN  UNL     1     -43.912 -54.542  12.898  1.00  0.00     0.166 HD
HETATM    7  C   UNL     1     -43.572 -52.515  13.142  1.00  0.00     0.119 A 
ENDROOT
BRANCH   1   8
HETATM    8  C   UNL     1     -43.484 -49.970  13.244  1.00  0.00     0.255 C 
HETATM    9  N   UNL     1     -43.536 -49.356  12.004  1.00  0.00    -0.355 N 
HETATM   10  H   UNL     1     -44.207 -49.650  11.304  1.00  0.00     0.162 HD
HETATM   11  O   UNL     1     -42.859 -49.481  14.182  1.00  0.00    -0.268 OA
BRANCH   9  12
HETATM   12  C   UNL     1     -42.912 -48.057  11.840  1.00  0.00     0.153 C 
BRANCH  12  13
HETATM   13  C   UNL     1     -42.138 -47.883  10.518  1.00  0.00     0.292 C 
BRANCH  13  14
HETATM   14  N   UNL     1     -42.380 -46.617   9.787  1.00  0.00     0.089 N 
BRANCH  14  15
HETATM   15  C   UNL     1     -43.607 -46.690   8.971  1.00  0.00     0.268 C 
HETATM   16  C   UNL     1     -43.583 -47.754   7.878  1.00  0.00     0.037 C 
ENDBRANCH  14  15
BRANCH  14  17
HETATM   17  C   UNL     1     -42.359 -45.468  10.717  1.00  0.00     0.268 C 
HETATM   18  C   UNL     1     -41.007 -44.789  10.941  1.00  0.00     0.037 C 
ENDBRANCH  14  17
ENDBRANCH  13  14
ENDBRANCH  12  13
ENDBRANCH   9  12
ENDBRANCH   1   8
BRANCH   7  19
HETATM   19  N   UNL     1     -42.228 -52.747  12.988  1.00  0.00    -0.362 N 
HETATM   20  C   UNL     1     -41.555 -53.715  13.866  1.00  0.00     0.150 C 
HETATM   21  C   UNL     1     -40.232 -53.123  14.374  1.00  0.00     0.187 C 
HETATM   22  O   UNL     1     -39.392 -52.690  13.289  1.00  0.00    -0.388 OA
HETATM   23  C   UNL     1     -40.071 -51.693  12.507  1.00  0.00     0.187 C 
HETATM   24  C   UNL     1     -41.389 -52.223  11.912  1.00  0.00     0.150 C 
ENDBRANCH   7  19
TORSDOF 7
ENDMDL
MODEL 3
REMARK VINA RESULT:      -5.3      3.197      5.386
REMARK  7 active torsions:
REMARK  status: ('A' for Active; 'I' for Inactive)
REMARK    1  A    between atoms: C_2  and  N_3 
REMARK    2  A    between atoms: N_3  and  C_4 
REMARK    3  A    between atoms: N_3  and  C_6 
REMARK    4  A    between atoms: C_6  and  C_7 
REMARK    5  A    between atoms: C_7  and  N_8 
REMARK       I    between atoms: N_8  and  C_9 
REMARK    6  A    between atoms: C_9  and  C_11 
REMARK    7  A    between atoms: C_17  and  N_18 
ROOT
HETATM    1  C   UNL     1     -43.566 -47.328  10.663  1.00  0.00     0.075 A 
HETATM    2  C   UNL     1     -44.720 -47.804  10.011  1.00  0.00     0.022 A 
HETATM    3  C   UNL     1     -45.394 -46.992   9.110  1.00  0.00     0.018 A 
HETATM    4  C   UNL     1     -44.897 -45.726   8.901  1.00  0.00     0.089 A 
HETATM    5  N   UNL     1     -43.784 -45.252   9.500  1.00  0.00    -0.352 N 
ATOM      6  HN  UNL     1     -43.459 -44.307   9.295  1.00  0.00     0.166 HD
HETATM    7  C   UNL     1     -43.096 -46.033  10.379  1.00  0.00     0.119 A 
ENDROOT
BRANCH   1   8
HETATM    8  C   UNL     1     -43.033 -48.170  11.766  1.00  0.00     0.255 C 
HETATM    9  N   UNL     1     -42.488 -49.397  11.431  1.00  0.00    -0.355 N 
HETATM   10  H   UNL     1     -42.244 -49.615  10.471  1.00  0.00     0.162 HD
HETATM   11  O   UNL     1     -43.108 -47.792  12.934  1.00  0.00    -0.268 OA
BRANCH   9  12
HETATM   12  C   UNL     1     -41.909 -50.215  12.479  1.00  0.00     0.153 C 
BRANCH  12  13
HETATM   13  C   UNL     1     -40.953 -51.315  11.975  1.00  0.00     0.292 C 
BRANCH  13  14
HETATM   14  N   UNL     1     -39.523 -51.141  12.323  1.00  0.00     0.089 N 
BRANCH  14  15
HETATM   15  C   UNL     1     -38.951 -49.944  11.677  1.00  0.00     0.268 C 
HETATM   16  C   UNL     1     -37.439 -49.990  11.476  1.00  0.00     0.037 C 
ENDBRANCH  14  15
BRANCH  14  17
HETATM   17  C   UNL     1     -39.339 -51.163  13.790  1.00  0.00     0.268 C 
HETATM   18  C   UNL     1     -38.950 -52.503  14.416  1.00  0.00     0.037 C 
ENDBRANCH  14  17
ENDBRANCH  13  14
ENDBRANCH  12  13
ENDBRANCH   9  12
ENDBRANCH   1   8
BRANCH   7  19
HETATM   19  N   UNL     1     -41.943 -45.460  10.857  1.00  0.00    -0.362 N 
HETATM   20  C   UNL     1     -42.029 -44.338  11.801  1.00  0.00     0.150 C 
HETATM   21  C   UNL     1     -41.051 -43.231  11.384  1.00  0.00     0.187 C 
HETATM   22  O   UNL     1     -39.708 -43.732  11.247  1.00  0.00    -0.388 OA
HETATM   23  C   UNL     1     -39.669 -44.775  10.261  1.00  0.00     0.187 C 
HETATM   24  C   UNL     1     -40.586 -45.956  10.630  1.00  0.00     0.150 C 
ENDBRANCH   7  19
TORSDOF 7
ENDMDL
MODEL 4
REMARK VINA RESULT:      -5.3      1.627      3.737
REMARK  7 active torsions:
REMARK  status: ('A' for Active; 'I' for Inactive)
REMARK    1  A    between atoms: C_2  and  N_3 
REMARK    2  A    between atoms: N_3  and  C_4 
REMARK    3  A    between atoms: N_3  and  C_6 
REMARK    4  A    between atoms: C_6  and  C_7 
REMARK    5  A    between atoms: C_7  and  N_8 
REMARK       I    between atoms: N_8  and  C_9 
REMARK    6  A    between atoms: C_9  and  C_11 
REMARK    7  A    between atoms: C_17  and  N_18 
ROOT
HETATM    1  C   UNL     1     -39.603 -50.450  12.971  1.00  0.00     0.075 A 
HETATM    2  C   UNL     1     -38.418 -51.209  13.004  1.00  0.00     0.022 A 
HETATM    3  C   UNL     1     -37.358 -50.883  12.169  1.00  0.00     0.018 A 
HETATM    4  C   UNL     1     -37.526 -49.815  11.319  1.00  0.00     0.089 A 
HETATM    5  N   UNL     1     -38.645 -49.061  11.279  1.00  0.00    -0.352 N 
ATOM      6  HN  UNL     1     -38.705 -48.273  10.633  1.00  0.00     0.166 HD
HETATM    7  C   UNL     1     -39.695 -49.351  12.098  1.00  0.00     0.119 A 
ENDROOT
BRANCH   1   8
HETATM    8  C   UNL     1     -40.760 -50.991  13.732  1.00  0.00     0.255 C 
HETATM    9  N   UNL     1     -41.644 -51.814  13.055  1.00  0.00    -0.355 N 
HETATM   10  H   UNL     1     -41.397 -52.222  12.161  1.00  0.00     0.162 HD
HETATM   11  O   UNL     1     -40.931 -50.686  14.910  1.00  0.00    -0.268 OA
BRANCH   9  12
HETATM   12  C   UNL     1     -42.750 -52.402  13.786  1.00  0.00     0.153 C 
BRANCH  12  13
HETATM   13  C   UNL     1     -44.133 -51.827  13.422  1.00  0.00     0.292 C 
BRANCH  13  14
HETATM   14  N   UNL     1     -45.119 -52.797  12.890  1.00  0.00     0.089 N 
BRANCH  14  15
HETATM   15  C   UNL     1     -44.604 -54.177  12.945  1.00  0.00     0.268 C 
HETATM   16  C   UNL     1     -45.428 -55.131  13.805  1.00  0.00     0.037 C 
ENDBRANCH  14  15
BRANCH  14  17
HETATM   17  C   UNL     1     -46.426 -52.628  13.560  1.00  0.00     0.268 C 
HETATM   18  C   UNL     1     -46.551 -51.465  14.545  1.00  0.00     0.037 C 
ENDBRANCH  14  17
ENDBRANCH  13  14
ENDBRANCH  12  13
ENDBRANCH   9  12
ENDBRANCH   1   8
BRANCH   7  19
HETATM   19  N   UNL     1     -40.737 -48.462  12.012  1.00  0.00    -0.362 N 
HETATM   20  C   UNL     1     -41.791 -48.675  11.011  1.00  0.00     0.150 C 
HETATM   21  C   UNL     1     -42.103 -47.353  10.295  1.00  0.00     0.187 C 
HETATM   22  O   UNL     1     -42.436 -46.308  11.229  1.00  0.00    -0.388 OA
HETATM   23  C   UNL     1     -41.344 -46.093  12.137  1.00  0.00     0.187 C 
HETATM   24  C   UNL     1     -40.999 -47.361  12.939  1.00  0.00     0.150 C 
ENDBRANCH   7  19
TORSDOF 7
ENDMDL
MODEL 5
REMARK VINA RESULT:      -5.3      2.796      4.217
REMARK  7 active torsions:
REMARK  status: ('A' for Active; 'I' for Inactive)
REMARK    1  A    between atoms: C_2  and  N_3 
REMARK    2  A    between atoms: N_3  and  C_4 
REMARK    3  A    between atoms: N_3  and  C_6 
REMARK    4  A    between atoms: C_6  and  C_7 
REMARK    5  A    between atoms: C_7  and  N_8 
REMARK       I    between atoms: N_8  and  C_9 
REMARK    6  A    between atoms: C_9  and  C_11 
REMARK    7  A    between atoms: C_17  and  N_18 
ROOT
HETATM    1  C   UNL     1     -43.532 -47.372  10.659  1.00  0.00     0.075 A 
HETATM    2  C   UNL     1     -44.692 -47.841  10.011  1.00  0.00     0.022 A 
HETATM    3  C   UNL     1     -45.362 -47.027   9.109  1.00  0.00     0.018 A 
HETATM    4  C   UNL     1     -44.856 -45.766   8.894  1.00  0.00     0.089 A 
HETATM    5  N   UNL     1     -43.738 -45.298   9.489  1.00  0.00    -0.352 N 
ATOM      6  HN  UNL     1     -43.406 -44.356   9.280  1.00  0.00     0.166 HD
HETATM    7  C   UNL     1     -43.053 -46.081  10.369  1.00  0.00     0.119 A 
ENDROOT
BRANCH   1   8
HETATM    8  C   UNL     1     -43.003 -48.214  11.763  1.00  0.00     0.255 C 
HETATM    9  N   UNL     1     -42.392 -49.409  11.423  1.00  0.00    -0.355 N 
HETATM   10  H   UNL     1     -42.105 -49.595  10.469  1.00  0.00     0.162 HD
HETATM   11  O   UNL     1     -43.136 -47.866  12.934  1.00  0.00    -0.268 OA
BRANCH   9  12
HETATM   12  C   UNL     1     -41.816 -50.224  12.475  1.00  0.00     0.153 C 
BRANCH  12  13
HETATM   13  C   UNL     1     -42.476 -51.607  12.644  1.00  0.00     0.292 C 
BRANCH  13  14
HETATM   14  N   UNL     1     -43.212 -51.823  13.912  1.00  0.00     0.089 N 
BRANCH  14  15
HETATM   15  C   UNL     1     -44.411 -50.968  13.994  1.00  0.00     0.268 C 
HETATM   16  C   UNL     1     -45.582 -51.428  13.132  1.00  0.00     0.037 C 
ENDBRANCH  14  15
BRANCH  14  17
HETATM   17  C   UNL     1     -43.498 -53.260  14.108  1.00  0.00     0.268 C 
HETATM   18  C   UNL     1     -42.354 -54.235  13.830  1.00  0.00     0.037 C 
ENDBRANCH  14  17
ENDBRANCH  13  14
ENDBRANCH  12  13
ENDBRANCH   9  12
ENDBRANCH   1   8
BRANCH   7  19
HETATM   19  N   UNL     1     -41.895 -45.516  10.841  1.00  0.00    -0.362 N 
HETATM   20  C   UNL     1     -41.970 -44.399  11.793  1.00  0.00     0.150 C 
HETATM   21  C   UNL     1     -40.990 -43.293  11.375  1.00  0.00     0.187 C 
HETATM   22  O   UNL     1     -39.650 -43.798  11.226  1.00  0.00    -0.388 OA
HETATM   23  C   UNL     1     -39.623 -44.836  10.233  1.00  0.00     0.187 C 
HETATM   24  C   UNL     1     -40.542 -46.016  10.603  1.00  0.00     0.150 C 
ENDBRANCH   7  19
TORSDOF 7
ENDMDL
MODEL 6
REMARK VINA RESULT:      -5.2      1.971      2.704
REMARK  7 active torsions:
REMARK  status: ('A' for Active; 'I' for Inactive)
REMARK    1  A    between atoms: C_2  and  N_3 
REMARK    2  A    between atoms: N_3  and  C_4 
REMARK    3  A    between atoms: N_3  and  C_6 
REMARK    4  A    between atoms: C_6  and  C_7 
REMARK    5  A    between atoms: C_7  and  N_8 
REMARK       I    between atoms: N_8  and  C_9 
REMARK    6  A    between atoms: C_9  and  C_11 
REMARK    7  A    between atoms: C_17  and  N_18 
ROOT
HETATM    1  C   UNL     1     -41.167 -48.923  11.405  1.00  0.00     0.075 A 
HETATM    2  C   UNL     1     -42.155 -48.229  10.681  1.00  0.00     0.022 A 
HETATM    3  C   UNL     1     -41.928 -46.922  10.271  1.00  0.00     0.018 A 
HETATM    4  C   UNL     1     -40.724 -46.351  10.611  1.00  0.00     0.089 A 
HETATM    5  N   UNL     1     -39.754 -46.999  11.290  1.00  0.00    -0.352 N 
ATOM      6  HN  UNL     1     -38.877 -46.524  11.502  1.00  0.00     0.166 HD
HETATM    7  C   UNL     1     -39.946 -48.287  11.692  1.00  0.00     0.119 A 
ENDROOT
BRANCH   1   8
HETATM    8  C   UNL     1     -41.568 -50.229  11.990  1.00  0.00     0.255 C 
HETATM    9  N   UNL     1     -41.011 -51.374  11.447  1.00  0.00    -0.355 N 
HETATM   10  H   UNL     1     -40.196 -51.324  10.846  1.00  0.00     0.162 HD
HETATM   11  O   UNL     1     -42.390 -50.279  12.903  1.00  0.00    -0.268 OA
BRANCH   9  12
HETATM   12  C   UNL     1     -41.341 -52.659  12.035  1.00  0.00     0.153 C 
BRANCH  12  13
HETATM   13  C   UNL     1     -40.379 -53.115  13.151  1.00  0.00     0.292 C 
BRANCH  13  14
HETATM   14  N   UNL     1     -40.839 -54.255  13.977  1.00  0.00     0.089 N 
BRANCH  14  15
HETATM   15  C   UNL     1     -40.252 -54.214  15.330  1.00  0.00     0.268 C 
HETATM   16  C   UNL     1     -39.145 -55.236  15.575  1.00  0.00     0.037 C 
ENDBRANCH  14  15
BRANCH  14  17
HETATM   17  C   UNL     1     -42.316 -54.333  13.978  1.00  0.00     0.268 C 
HETATM   18  C   UNL     1     -42.961 -55.175  15.080  1.00  0.00     0.037 C 
ENDBRANCH  14  17
ENDBRANCH  13  14
ENDBRANCH  12  13
ENDBRANCH   9  12
ENDBRANCH   1   8
BRANCH   7  19
HETATM   19  N   UNL     1     -38.855 -48.854  12.302  1.00  0.00    -0.362 N 
HETATM   20  C   UNL     1     -37.846 -49.545  11.487  1.00  0.00     0.150 C 
HETATM   21  C   UNL     1     -37.476 -50.883  12.143  1.00  0.00     0.187 C 
HETATM   22  O   UNL     1     -37.052 -50.707  13.508  1.00  0.00    -0.388 OA
HETATM   23  C   UNL     1     -38.102 -50.094  14.275  1.00  0.00     0.187 C 
HETATM   24  C   UNL     1     -38.499 -48.716  13.714  1.00  0.00     0.150 C 
ENDBRANCH   7  19
TORSDOF 7
ENDMDL
MODEL 7
REMARK VINA RESULT:      -5.2      2.280      5.122
REMARK  7 active torsions:
REMARK  status: ('A' for Active; 'I' for Inactive)
REMARK    1  A    between atoms: C_2  and  N_3 
REMARK    2  A    between atoms: N_3  and  C_4 
REMARK    3  A    between atoms: N_3  and  C_6 
REMARK    4  A    between atoms: C_6  and  C_7 
REMARK    5  A    between atoms: C_7  and  N_8 
REMARK       I    between atoms: N_8  and  C_9 
REMARK    6  A    between atoms: C_9  and  C_11 
REMARK    7  A    between atoms: C_17  and  N_18 
ROOT
HETATM    1  C   UNL     1     -41.554 -51.183  12.868  1.00  0.00     0.075 A 
HETATM    2  C   UNL     1     -42.686 -52.002  12.688  1.00  0.00     0.022 A 
HETATM    3  C   UNL     1     -42.577 -53.379  12.827  1.00  0.00     0.018 A 
HETATM    4  C   UNL     1     -41.336 -53.890  13.129  1.00  0.00     0.089 A 
HETATM    5  N   UNL     1     -40.240 -53.127  13.322  1.00  0.00    -0.352 N 
ATOM      6  HN  UNL     1     -39.349 -53.565  13.555  1.00  0.00     0.166 HD
HETATM    7  C   UNL     1     -40.322 -51.771  13.205  1.00  0.00     0.119 A 
ENDROOT
BRANCH   1   8
HETATM    8  C   UNL     1     -41.704 -49.753  12.491  1.00  0.00     0.255 C 
HETATM    9  N   UNL     1     -42.055 -49.468  11.182  1.00  0.00    -0.355 N 
HETATM   10  H   UNL     1     -42.425 -50.189  10.572  1.00  0.00     0.162 HD
HETATM   11  O   UNL     1     -41.490 -48.864  13.311  1.00  0.00    -0.268 OA
BRANCH   9  12
HETATM   12  C   UNL     1     -42.264 -48.085  10.800  1.00  0.00     0.153 C 
BRANCH  12  13
HETATM   13  C   UNL     1     -43.726 -47.607  10.907  1.00  0.00     0.292 C 
BRANCH  13  14
HETATM   14  N   UNL     1     -44.317 -47.047   9.669  1.00  0.00     0.089 N 
BRANCH  14  15
HETATM   15  C   UNL     1     -43.329 -46.990   8.575  1.00  0.00     0.268 C 
HETATM   16  C   UNL     1     -43.525 -48.038   7.484  1.00  0.00     0.037 C 
ENDBRANCH  14  15
BRANCH  14  17
HETATM   17  C   UNL     1     -45.554 -47.774   9.309  1.00  0.00     0.268 C 
HETATM   18  C   UNL     1     -46.798 -46.926   9.040  1.00  0.00     0.037 C 
ENDBRANCH  14  17
ENDBRANCH  13  14
ENDBRANCH  12  13
ENDBRANCH   9  12
ENDBRANCH   1   8
BRANCH   7  19
HETATM   19  N   UNL     1     -39.157 -51.110  13.502  1.00  0.00    -0.362 N 
HETATM   20  C   UNL     1     -38.717 -51.009  14.901  1.00  0.00     0.150 C 
HETATM   21  C   UNL     1     -38.269 -49.572  15.203  1.00  0.00     0.187 C 
HETATM   22  O   UNL     1     -37.262 -49.123  14.277  1.00  0.00    -0.388 OA
HETATM   23  C   UNL     1     -37.769 -49.174  12.934  1.00  0.00     0.187 C 
HETATM   24  C   UNL     1     -38.193 -50.598  12.529  1.00  0.00     0.150 C 
ENDBRANCH   7  19
TORSDOF 7
ENDMDL
MODEL 8
REMARK VINA RESULT:      -5.2      1.374      2.234
REMARK  7 active torsions:
REMARK  status: ('A' for Active; 'I' for Inactive)
REMARK    1  A    between atoms: C_2  and  N_3 
REMARK    2  A    between atoms: N_3  and  C_4 
REMARK    3  A    between atoms: N_3  and  C_6 
REMARK    4  A    between atoms: C_6  and  C_7 
REMARK    5  A    between atoms: C_7  and  N_8 
REMARK       I    between atoms: N_8  and  C_9 
REMARK    6  A    between atoms: C_9  and  C_11 
REMARK    7  A    between atoms: C_17  and  N_18 
ROOT
HETATM    1  C   UNL     1     -42.521 -48.277  11.828  1.00  0.00     0.075 A 
HETATM    2  C   UNL     1     -43.446 -47.465  11.145  1.00  0.00     0.022 A 
HETATM    3  C   UNL     1     -42.999 -46.452  10.308  1.00  0.00     0.018 A 
HETATM    4  C   UNL     1     -41.639 -46.278  10.193  1.00  0.00     0.089 A 
HETATM    5  N   UNL     1     -40.731 -47.052  10.824  1.00  0.00    -0.352 N 
ATOM      6  HN  UNL     1     -39.734 -46.880  10.690  1.00  0.00     0.166 HD
HETATM    7  C   UNL     1     -41.143 -48.062  11.641  1.00  0.00     0.119 A 
ENDROOT
BRANCH   1   8
HETATM    8  C   UNL     1     -43.075 -49.187  12.864  1.00  0.00     0.255 C 
HETATM    9  N   UNL     1     -43.507 -50.437  12.455  1.00  0.00    -0.355 N 
HETATM   10  H   UNL     1     -43.245 -50.809  11.549  1.00  0.00     0.162 HD
HETATM   11  O   UNL     1     -43.170 -48.820  14.033  1.00  0.00    -0.268 OA
BRANCH   9  12
HETATM   12  C   UNL     1     -44.000 -51.367  13.452  1.00  0.00     0.153 C 
BRANCH  12  13
HETATM   13  C   UNL     1     -44.863 -52.512  12.885  1.00  0.00     0.292 C 
BRANCH  13  14
HETATM   14  N   UNL     1     -46.180 -52.713  13.534  1.00  0.00     0.089 N 
BRANCH  14  15
HETATM   15  C   UNL     1     -46.179 -53.907  14.401  1.00  0.00     0.268 C 
HETATM   16  C   UNL     1     -45.455 -55.117  13.819  1.00  0.00     0.037 C 
ENDBRANCH  14  15
BRANCH  14  17
HETATM   17  C   UNL     1     -46.611 -51.481  14.228  1.00  0.00     0.268 C 
HETATM   18  C   UNL     1     -47.154 -51.643  15.648  1.00  0.00     0.037 C 
ENDBRANCH  14  17
ENDBRANCH  13  14
ENDBRANCH  12  13
ENDBRANCH   9  12
ENDBRANCH   1   8
BRANCH   7  19
HETATM   19  N   UNL     1     -40.122 -48.819  12.158  1.00  0.00    -0.362 N 
HETATM   20  C   UNL     1     -39.575 -48.492  13.482  1.00  0.00     0.150 C 
HETATM   21  C   UNL     1     -38.041 -48.519  13.432  1.00  0.00     0.187 C 
HETATM   22  O   UNL     1     -37.547 -49.775  12.930  1.00  0.00    -0.388 OA
HETATM   23  C   UNL     1     -38.054 -50.010  11.606  1.00  0.00     0.187 C 
HETATM   24  C   UNL     1     -39.594 -50.052  11.575  1.00  0.00     0.150 C 
ENDBRANCH   7  19
TORSDOF 7
ENDMDL
MODEL 9
REMARK VINA RESULT:      -5.1      2.346      5.876
REMARK  7 active torsions:
REMARK  status: ('A' for Active; 'I' for Inactive)
REMARK    1  A    between atoms: C_2  and  N_3 
REMARK    2  A    between atoms: N_3  and  C_4 
REMARK    3  A    between atoms: N_3  and  C_6 
REMARK    4  A    between atoms: C_6  and  C_7 
REMARK    5  A    between atoms: C_7  and  N_8 
REMARK       I    between atoms: N_8  and  C_9 
REMARK    6  A    between atoms: C_9  and  C_11 
REMARK    7  A    between atoms: C_17  and  N_18 
ROOT
HETATM    1  C   UNL     1     -43.704 -51.640  13.494  1.00  0.00     0.075 A 
HETATM    2  C   UNL     1     -44.941 -50.982  13.355  1.00  0.00     0.022 A 
HETATM    3  C   UNL     1     -46.124 -51.708  13.399  1.00  0.00     0.018 A 
HETATM    4  C   UNL     1     -46.027 -53.069  13.567  1.00  0.00     0.089 A 
HETATM    5  N   UNL     1     -44.855 -53.723  13.719  1.00  0.00    -0.352 N 
ATOM      6  HN  UNL     1     -44.849 -54.734  13.852  1.00  0.00     0.166 HD
HETATM    7  C   UNL     1     -43.680 -53.032  13.694  1.00  0.00     0.119 A 
ENDROOT
BRANCH   1   8
HETATM    8  C   UNL     1     -42.487 -50.831  13.219  1.00  0.00     0.255 C 
HETATM    9  N   UNL     1     -42.170 -50.578  11.896  1.00  0.00    -0.355 N 
HETATM   10  H   UNL     1     -42.849 -50.727  11.158  1.00  0.00     0.162 HD
HETATM   11  O   UNL     1     -41.780 -50.433  14.142  1.00  0.00    -0.268 OA
BRANCH   9  12
HETATM   12  C   UNL     1     -41.021 -49.744  11.600  1.00  0.00     0.153 C 
BRANCH  12  13
HETATM   13  C   UNL     1     -41.346 -48.480  10.779  1.00  0.00     0.292 C 
BRANCH  13  14
HETATM   14  N   UNL     1     -42.685 -47.886  11.005  1.00  0.00     0.089 N 
BRANCH  14  15
HETATM   15  C   UNL     1     -42.625 -46.760  11.954  1.00  0.00     0.268 C 
HETATM   16  C   UNL     1     -42.995 -47.116  13.391  1.00  0.00     0.037 C 
ENDBRANCH  14  15
BRANCH  14  17
HETATM   17  C   UNL     1     -43.323 -47.538   9.717  1.00  0.00     0.268 C 
HETATM   18  C   UNL     1     -44.851 -47.496   9.694  1.00  0.00     0.037 C 
ENDBRANCH  14  17
ENDBRANCH  13  14
ENDBRANCH  12  13
ENDBRANCH   9  12
ENDBRANCH   1   8
BRANCH   7  19
HETATM   19  N   UNL     1     -42.570 -53.803  13.937  1.00  0.00    -0.362 N 
HETATM   20  C   UNL     1     -42.454 -54.524  15.212  1.00  0.00     0.150 C 
HETATM   21  C   UNL     1     -41.043 -54.338  15.787  1.00  0.00     0.187 C 
HETATM   22  O   UNL     1     -40.027 -54.725  14.843  1.00  0.00    -0.388 OA
HETATM   23  C   UNL     1     -40.143 -53.940  13.645  1.00  0.00     0.187 C 
HETATM   24  C   UNL     1     -41.517 -54.111  12.971  1.00  0.00     0.150 C 
ENDBRANCH   7  19
TORSDOF 7
ENDMDL
