MODEL 1
REMARK VINA RESULT:      -6.4      0.000      0.000
REMARK  4 active torsions:
REMARK  status: ('A' for Active; 'I' for Inactive)
REMARK    1  A    between atoms: C_2  and  S_3 
REMARK    2  A    between atoms: S_3  and  C_5 
REMARK    3  A    between atoms: C_9  and  N_11 
REMARK       I    between atoms: N_11  and  C_12 
REMARK       I    between atoms: C_12  and  N_14 
REMARK    4  A    between atoms: N_14  and  C_15 
ROOT
HETATM    1  N   UNL     1     -43.028 -50.809  12.793  1.00  0.00    -0.338 N 
HETATM    2  C   UNL     1     -41.939 -51.415  12.247  1.00  0.00     0.322 C 
HETATM    3  O   UNL     1     -41.712 -52.617  12.338  1.00  0.00    -0.247 OA
HETATM    4  N   UNL     1     -41.115 -50.612  11.509  1.00  0.00    -0.295 N 
HETATM    5  H   UNL     1     -43.090 -49.808  12.617  1.00  0.00     0.164 HD
HETATM    6  H   UNL     1     -40.394 -51.118  11.020  1.00  0.00     0.172 HD
ENDROOT
BRANCH   1   7
HETATM    7  C   UNL     1     -44.137 -51.492  13.406  1.00  0.00     0.087 C 
HETATM    8  C   UNL     1     -45.475 -50.944  12.905  1.00  0.00     0.025 C 
HETATM    9  C   UNL     1     -46.644 -51.673  13.563  1.00  0.00     0.003 C 
HETATM   10  C   UNL     1     -46.545 -51.729  15.093  1.00  0.00     0.017 C 
HETATM   11  C   UNL     1     -45.156 -52.118  15.636  1.00  0.00     0.081 C 
HETATM   12  C   UNL     1     -44.066 -51.322  14.925  1.00  0.00     0.043 C 
BRANCH  11  13
HETATM   13  S   UNL     1     -44.902 -53.941  15.518  1.00  0.00     0.019 S 
HETATM   14  O   UNL     1     -45.734 -54.566  16.600  1.00  0.00    -0.258 OA
BRANCH  13  15
HETATM   15  C   UNL     1     -43.164 -53.991  16.069  1.00  0.00     0.104 C 
HETATM   16  C   UNL     1     -42.310 -54.826  15.136  1.00  0.00     0.018 C 
ENDBRANCH  13  15
ENDBRANCH  11  13
ENDBRANCH   1   7
BRANCH   4  17
HETATM   17  C   UNL     1     -41.224 -49.231  11.310  1.00  0.00     0.109 A 
HETATM   18  C   UNL     1     -40.446 -48.381  12.083  1.00  0.00     0.055 A 
HETATM   19  C   UNL     1     -40.511 -47.004  11.840  1.00  0.00    -0.057 A 
HETATM   20  C   UNL     1     -39.630 -46.045  12.584  1.00  0.00     0.048 C 
HETATM   21  C   UNL     1     -41.390 -46.528  10.866  1.00  0.00     0.031 A 
HETATM   22  C   UNL     1     -42.156 -47.437  10.152  1.00  0.00     0.007 A 
HETATM   23  C   UNL     1     -43.152 -47.001   9.122  1.00  0.00     0.068 C 
HETATM   24  N   UNL     1     -42.060 -48.769  10.352  1.00  0.00    -0.346 N 
ATOM     25  HN  UNL     1     -42.609 -49.418   9.788  1.00  0.00     0.167 HD
ENDBRANCH   4  17
TORSDOF 4
ENDMDL
MODEL 2
REMARK VINA RESULT:      -6.3      1.322      1.991
REMARK  4 active torsions:
REMARK  status: ('A' for Active; 'I' for Inactive)
REMARK    1  A    between atoms: C_2  and  S_3 
REMARK    2  A    between atoms: S_3  and  C_5 
REMARK    3  A    between atoms: C_9  and  N_11 
REMARK       I    between atoms: N_11  and  C_12 
REMARK       I    between atoms: C_12  and  N_14 
REMARK    4  A    between atoms: N_14  and  C_15 
ROOT
HETATM    1  N   UNL     1     -42.177 -51.235  12.603  1.00  0.00    -0.338 N 
HETATM    2  C   UNL     1     -41.001 -51.598  12.024  1.00  0.00     0.322 C 
HETATM    3  O   UNL     1     -40.544 -52.736  12.065  1.00  0.00    -0.247 OA
HETATM    4  N   UNL     1     -40.359 -50.623  11.312  1.00  0.00    -0.295 N 
HETATM    5  H   UNL     1     -42.434 -50.259  12.468  1.00  0.00     0.164 HD
HETATM    6  H   UNL     1     -39.561 -50.961  10.797  1.00  0.00     0.172 HD
ENDROOT
BRANCH   1   7
HETATM    7  C   UNL     1     -43.124 -52.143  13.197  1.00  0.00     0.087 C 
HETATM    8  C   UNL     1     -43.553 -53.228  12.207  1.00  0.00     0.025 C 
HETATM    9  C   UNL     1     -44.558 -54.183  12.846  1.00  0.00     0.003 C 
HETATM   10  C   UNL     1     -45.740 -53.468  13.513  1.00  0.00     0.017 C 
HETATM   11  C   UNL     1     -45.353 -52.260  14.389  1.00  0.00     0.081 C 
HETATM   12  C   UNL     1     -44.361 -51.366  13.652  1.00  0.00     0.043 C 
BRANCH  11  13
HETATM   13  S   UNL     1     -44.724 -52.826  16.028  1.00  0.00     0.019 S 
HETATM   14  O   UNL     1     -45.190 -54.241  16.207  1.00  0.00    -0.258 OA
BRANCH  13  15
HETATM   15  C   UNL     1     -45.775 -51.769  17.080  1.00  0.00     0.104 C 
HETATM   16  C   UNL     1     -47.078 -51.419  16.387  1.00  0.00     0.018 C 
ENDBRANCH  13  15
ENDBRANCH  11  13
ENDBRANCH   1   7
BRANCH   4  17
HETATM   17  C   UNL     1     -40.735 -49.283  11.170  1.00  0.00     0.109 A 
HETATM   18  C   UNL     1     -40.100 -48.324  11.946  1.00  0.00     0.055 A 
HETATM   19  C   UNL     1     -40.435 -46.978  11.759  1.00  0.00    -0.057 A 
HETATM   20  C   UNL     1     -39.720 -45.892  12.506  1.00  0.00     0.048 C 
HETATM   21  C   UNL     1     -41.429 -46.649  10.835  1.00  0.00     0.031 A 
HETATM   22  C   UNL     1     -42.039 -47.665  10.115  1.00  0.00     0.007 A 
HETATM   23  C   UNL     1     -43.143 -47.395   9.140  1.00  0.00     0.068 C 
HETATM   24  N   UNL     1     -41.684 -48.960  10.261  1.00  0.00    -0.346 N 
ATOM     25  HN  UNL     1     -42.124 -49.684   9.693  1.00  0.00     0.167 HD
ENDBRANCH   4  17
TORSDOF 4
ENDMDL
MODEL 3
REMARK VINA RESULT:      -6.1      1.934      2.747
REMARK  4 active torsions:
REMARK  status: ('A' for Active; 'I' for Inactive)
REMARK    1  A    between atoms: C_2  and  S_3 
REMARK    2  A    between atoms: S_3  and  C_5 
REMARK    3  A    between atoms: C_9  and  N_11 
REMARK       I    between atoms: N_11  and  C_12 
REMARK       I    between atoms: C_12  and  N_14 
REMARK    4  A    between atoms: N_14  and  C_15 
ROOT
HETATM    1  N   UNL     1     -43.564 -52.189  13.674  1.00  0.00    -0.338 N 
HETATM    2  C   UNL     1     -43.429 -52.941  12.548  1.00  0.00     0.322 C 
HETATM    3  O   UNL     1     -44.192 -53.852  12.243  1.00  0.00    -0.247 OA
HETATM    4  N   UNL     1     -42.412 -52.582  11.709  1.00  0.00    -0.295 N 
HETATM    5  H   UNL     1     -42.865 -51.457  13.783  1.00  0.00     0.164 HD
HETATM    6  H   UNL     1     -42.422 -53.078  10.832  1.00  0.00     0.172 HD
ENDROOT
BRANCH   1   7
HETATM    7  C   UNL     1     -44.688 -52.237  14.574  1.00  0.00     0.087 C 
HETATM    8  C   UNL     1     -45.838 -51.358  14.077  1.00  0.00     0.025 C 
HETATM    9  C   UNL     1     -47.022 -51.414  15.038  1.00  0.00     0.003 C 
HETATM   10  C   UNL     1     -46.636 -51.141  16.498  1.00  0.00     0.017 C 
HETATM   11  C   UNL     1     -45.378 -51.886  16.983  1.00  0.00     0.081 C 
HETATM   12  C   UNL     1     -44.255 -51.754  15.959  1.00  0.00     0.043 C 
BRANCH  11  13
HETATM   13  S   UNL     1     -45.778 -53.643  17.380  1.00  0.00     0.019 S 
HETATM   14  O   UNL     1     -46.532 -53.633  18.679  1.00  0.00    -0.258 OA
BRANCH  13  15
HETATM   15  C   UNL     1     -44.083 -54.214  17.738  1.00  0.00     0.104 C 
HETATM   16  C   UNL     1     -44.049 -55.124  18.951  1.00  0.00     0.018 C 
ENDBRANCH  13  15
ENDBRANCH  11  13
ENDBRANCH   1   7
BRANCH   4  17
HETATM   17  C   UNL     1     -41.455 -51.581  11.907  1.00  0.00     0.109 A 
HETATM   18  C   UNL     1     -40.278 -51.902  12.567  1.00  0.00     0.055 A 
HETATM   19  C   UNL     1     -39.297 -50.915  12.711  1.00  0.00    -0.057 A 
HETATM   20  C   UNL     1     -37.970 -51.227  13.337  1.00  0.00     0.048 C 
HETATM   21  C   UNL     1     -39.553 -49.629  12.230  1.00  0.00     0.031 A 
HETATM   22  C   UNL     1     -40.764 -49.376  11.605  1.00  0.00     0.007 A 
HETATM   23  C   UNL     1     -41.130 -48.013  11.103  1.00  0.00     0.068 C 
HETATM   24  N   UNL     1     -41.693 -50.340  11.424  1.00  0.00    -0.346 N 
ATOM     25  HN  UNL     1     -42.561 -50.135  10.929  1.00  0.00     0.167 HD
ENDBRANCH   4  17
TORSDOF 4
ENDMDL
MODEL 4
REMARK VINA RESULT:      -5.9      1.410      2.812
REMARK  4 active torsions:
REMARK  status: ('A' for Active; 'I' for Inactive)
REMARK    1  A    between atoms: C_2  and  S_3 
REMARK    2  A    between atoms: S_3  and  C_5 
REMARK    3  A    between atoms: C_9  and  N_11 
REMARK       I    between atoms: N_11  and  C_12 
REMARK       I    between atoms: C_12  and  N_14 
REMARK    4  A    between atoms: N_14  and  C_15 
ROOT
HETATM    1  N   UNL     1     -41.527 -50.823  12.813  1.00  0.00    -0.338 N 
HETATM    2  C   UNL     1     -40.580 -51.040  11.861  1.00  0.00     0.322 C 
HETATM    3  O   UNL     1     -39.948 -52.086  11.756  1.00  0.00    -0.247 OA
HETATM    4  N   UNL     1     -40.403 -50.034  10.953  1.00  0.00    -0.295 N 
HETATM    5  H   UNL     1     -41.980 -49.913  12.762  1.00  0.00     0.164 HD
HETATM    6  H   UNL     1     -39.788 -50.282  10.194  1.00  0.00     0.172 HD
ENDROOT
BRANCH   1   7
HETATM    7  C   UNL     1     -42.037 -51.820  13.719  1.00  0.00     0.087 C 
HETATM    8  C   UNL     1     -40.939 -52.341  14.649  1.00  0.00     0.025 C 
HETATM    9  C   UNL     1     -41.489 -53.399  15.603  1.00  0.00     0.003 C 
HETATM   10  C   UNL     1     -42.264 -54.516  14.893  1.00  0.00     0.017 C 
HETATM   11  C   UNL     1     -43.263 -54.031  13.825  1.00  0.00     0.081 C 
HETATM   12  C   UNL     1     -42.609 -52.992  12.919  1.00  0.00     0.043 C 
BRANCH  11  13
HETATM   13  S   UNL     1     -44.810 -53.414  14.619  1.00  0.00     0.019 S 
HETATM   14  O   UNL     1     -45.487 -54.604  15.233  1.00  0.00    -0.258 OA
BRANCH  13  15
HETATM   15  C   UNL     1     -45.724 -52.992  13.098  1.00  0.00     0.104 C 
HETATM   16  C   UNL     1     -46.094 -51.521  13.063  1.00  0.00     0.018 C 
ENDBRANCH  13  15
ENDBRANCH  11  13
ENDBRANCH   1   7
BRANCH   4  17
HETATM   17  C   UNL     1     -41.033 -48.784  10.931  1.00  0.00     0.109 A 
HETATM   18  C   UNL     1     -40.389 -47.702  11.513  1.00  0.00     0.055 A 
HETATM   19  C   UNL     1     -40.991 -46.441  11.436  1.00  0.00    -0.057 A 
HETATM   20  C   UNL     1     -40.302 -45.221  11.970  1.00  0.00     0.048 C 
HETATM   21  C   UNL     1     -42.240 -46.323  10.823  1.00  0.00     0.031 A 
HETATM   22  C   UNL     1     -42.835 -47.455  10.288  1.00  0.00     0.007 A 
HETATM   23  C   UNL     1     -44.191 -47.416   9.654  1.00  0.00     0.068 C 
HETATM   24  N   UNL     1     -42.233 -48.664  10.319  1.00  0.00    -0.346 N 
ATOM     25  HN  UNL     1     -42.677 -49.474   9.886  1.00  0.00     0.167 HD
ENDBRANCH   4  17
TORSDOF 4
ENDMDL
MODEL 5
REMARK VINA RESULT:      -5.8      1.094      2.077
REMARK  4 active torsions:
REMARK  status: ('A' for Active; 'I' for Inactive)
REMARK    1  A    between atoms: C_2  and  S_3 
REMARK    2  A    between atoms: S_3  and  C_5 
REMARK    3  A    between atoms: C_9  and  N_11 
REMARK       I    between atoms: N_11  and  C_12 
REMARK       I    between atoms: C_12  and  N_14 
REMARK    4  A    between atoms: N_14  and  C_15 
ROOT
HETATM    1  N   UNL     1     -42.415 -50.729  12.558  1.00  0.00    -0.338 N 
HETATM    2  C   UNL     1     -41.405 -51.184  11.768  1.00  0.00     0.322 C 
HETATM    3  O   UNL     1     -41.130 -52.372  11.631  1.00  0.00    -0.247 OA
HETATM    4  N   UNL     1     -40.728 -50.234  11.055  1.00  0.00    -0.295 N 
HETATM    5  H   UNL     1     -42.534 -49.718  12.555  1.00  0.00     0.164 HD
HETATM    6  H   UNL     1     -40.076 -50.619  10.391  1.00  0.00     0.172 HD
ENDROOT
BRANCH   1   7
HETATM    7  C   UNL     1     -43.396 -51.558  13.210  1.00  0.00     0.087 C 
HETATM    8  C   UNL     1     -44.760 -50.867  13.266  1.00  0.00     0.025 C 
HETATM    9  C   UNL     1     -45.791 -51.753  13.961  1.00  0.00     0.003 C 
HETATM   10  C   UNL     1     -45.322 -52.282  15.322  1.00  0.00     0.017 C 
HETATM   11  C   UNL     1     -43.883 -52.834  15.340  1.00  0.00     0.081 C 
HETATM   12  C   UNL     1     -42.935 -51.868  14.635  1.00  0.00     0.043 C 
BRANCH  11  13
HETATM   13  S   UNL     1     -43.834 -54.533  14.623  1.00  0.00     0.019 S 
HETATM   14  O   UNL     1     -45.207 -55.116  14.792  1.00  0.00    -0.258 OA
BRANCH  13  15
HETATM   15  C   UNL     1     -42.757 -55.305  15.876  1.00  0.00     0.104 C 
HETATM   16  C   UNL     1     -41.301 -54.940  15.657  1.00  0.00     0.018 C 
ENDBRANCH  13  15
ENDBRANCH  11  13
ENDBRANCH   1   7
BRANCH   4  17
HETATM   17  C   UNL     1     -40.909 -48.847  11.098  1.00  0.00     0.109 A 
HETATM   18  C   UNL     1     -41.837 -48.267  10.246  1.00  0.00     0.055 A 
HETATM   19  C   UNL     1     -42.061 -46.888  10.333  1.00  0.00    -0.057 A 
HETATM   20  C   UNL     1     -43.114 -46.221   9.499  1.00  0.00     0.048 C 
HETATM   21  C   UNL     1     -41.308 -46.136  11.237  1.00  0.00     0.031 A 
HETATM   22  C   UNL     1     -40.378 -46.781  12.037  1.00  0.00     0.007 A 
HETATM   23  C   UNL     1     -39.503 -46.037  12.998  1.00  0.00     0.068 C 
HETATM   24  N   UNL     1     -40.195 -48.119  11.988  1.00  0.00    -0.346 N 
ATOM     25  HN  UNL     1     -39.529 -48.573  12.612  1.00  0.00     0.167 HD
ENDBRANCH   4  17
TORSDOF 4
ENDMDL
MODEL 6
REMARK VINA RESULT:      -5.7      3.880      7.635
REMARK  4 active torsions:
REMARK  status: ('A' for Active; 'I' for Inactive)
REMARK    1  A    between atoms: C_2  and  S_3 
REMARK    2  A    between atoms: S_3  and  C_5 
REMARK    3  A    between atoms: C_9  and  N_11 
REMARK       I    between atoms: N_11  and  C_12 
REMARK       I    between atoms: C_12  and  N_14 
REMARK    4  A    between atoms: N_14  and  C_15 
ROOT
HETATM    1  N   UNL     1     -40.304 -50.036  12.889  1.00  0.00    -0.338 N 
HETATM    2  C   UNL     1     -40.614 -50.365  11.606  1.00  0.00     0.322 C 
HETATM    3  O   UNL     1     -40.439 -49.616  10.651  1.00  0.00    -0.247 OA
HETATM    4  N   UNL     1     -41.084 -51.633  11.411  1.00  0.00    -0.295 N 
HETATM    5  H   UNL     1     -40.488 -50.769  13.572  1.00  0.00     0.164 HD
HETATM    6  H   UNL     1     -41.183 -51.880  10.439  1.00  0.00     0.172 HD
ENDROOT
BRANCH   1   7
HETATM    7  C   UNL     1     -39.588 -48.853  13.293  1.00  0.00     0.087 C 
HETATM    8  C   UNL     1     -38.209 -49.202  13.858  1.00  0.00     0.025 C 
HETATM    9  C   UNL     1     -37.460 -47.942  14.284  1.00  0.00     0.003 C 
HETATM   10  C   UNL     1     -38.280 -47.027  15.203  1.00  0.00     0.017 C 
HETATM   11  C   UNL     1     -39.733 -46.789  14.749  1.00  0.00     0.081 C 
HETATM   12  C   UNL     1     -40.391 -48.110  14.361  1.00  0.00     0.043 C 
BRANCH  11  13
HETATM   13  S   UNL     1     -39.790 -45.538  13.394  1.00  0.00     0.019 S 
HETATM   14  O   UNL     1     -38.993 -44.356  13.861  1.00  0.00    -0.258 OA
BRANCH  13  15
HETATM   15  C   UNL     1     -41.554 -45.095  13.533  1.00  0.00     0.104 C 
HETATM   16  C   UNL     1     -42.359 -45.655  12.376  1.00  0.00     0.018 C 
ENDBRANCH  13  15
ENDBRANCH  11  13
ENDBRANCH   1   7
BRANCH   4  17
HETATM   17  C   UNL     1     -41.347 -52.605  12.383  1.00  0.00     0.109 A 
HETATM   18  C   UNL     1     -42.665 -52.941  12.654  1.00  0.00     0.055 A 
HETATM   19  C   UNL     1     -42.923 -53.956  13.582  1.00  0.00    -0.057 A 
HETATM   20  C   UNL     1     -44.324 -54.421  13.851  1.00  0.00     0.048 C 
HETATM   21  C   UNL     1     -41.851 -54.561  14.240  1.00  0.00     0.031 A 
HETATM   22  C   UNL     1     -40.561 -54.154  13.937  1.00  0.00     0.007 A 
HETATM   23  C   UNL     1     -39.363 -54.724  14.631  1.00  0.00     0.068 C 
HETATM   24  N   UNL     1     -40.308 -53.208  13.007  1.00  0.00    -0.346 N 
ATOM     25  HN  UNL     1     -39.348 -52.951  12.777  1.00  0.00     0.167 HD
ENDBRANCH   4  17
TORSDOF 4
ENDMDL
MODEL 7
REMARK VINA RESULT:      -5.7      3.186      6.618
REMARK  4 active torsions:
REMARK  status: ('A' for Active; 'I' for Inactive)
REMARK    1  A    between atoms: C_2  and  S_3 
REMARK    2  A    between atoms: S_3  and  C_5 
REMARK    3  A    between atoms: C_9  and  N_11 
REMARK       I    between atoms: N_11  and  C_12 
REMARK       I    between atoms: C_12  and  N_14 
REMARK    4  A    between atoms: N_14  and  C_15 
ROOT
HETATM    1  N   UNL     1     -42.067 -52.261  13.628  1.00  0.00    -0.338 N 
HETATM    2  C   UNL     1     -42.292 -53.521  13.170  1.00  0.00     0.322 C 
HETATM    3  O   UNL     1     -41.400 -54.335  12.951  1.00  0.00    -0.247 OA
HETATM    4  N   UNL     1     -43.603 -53.879  13.022  1.00  0.00    -0.295 N 
HETATM    5  H   UNL     1     -42.908 -51.707  13.780  1.00  0.00     0.164 HD
HETATM    6  H   UNL     1     -43.731 -54.855  12.803  1.00  0.00     0.172 HD
ENDROOT
BRANCH   1   7
HETATM    7  C   UNL     1     -40.794 -51.754  14.071  1.00  0.00     0.087 C 
HETATM    8  C   UNL     1     -40.322 -52.466  15.341  1.00  0.00     0.025 C 
HETATM    9  C   UNL     1     -38.974 -51.919  15.804  1.00  0.00     0.003 C 
HETATM   10  C   UNL     1     -38.942 -50.390  15.917  1.00  0.00     0.017 C 
HETATM   11  C   UNL     1     -39.564 -49.640  14.723  1.00  0.00     0.081 C 
HETATM   12  C   UNL     1     -40.911 -50.255  14.354  1.00  0.00     0.043 C 
BRANCH  11  13
HETATM   13  S   UNL     1     -38.387 -49.595  13.304  1.00  0.00     0.019 S 
HETATM   14  O   UNL     1     -37.391 -48.512  13.600  1.00  0.00    -0.258 OA
BRANCH  13  15
HETATM   15  C   UNL     1     -39.537 -48.947  12.044  1.00  0.00     0.104 C 
HETATM   16  C   UNL     1     -39.702 -47.444  12.164  1.00  0.00     0.018 C 
ENDBRANCH  13  15
ENDBRANCH  11  13
ENDBRANCH   1   7
BRANCH   4  17
HETATM   17  C   UNL     1     -44.733 -53.078  13.220  1.00  0.00     0.109 A 
HETATM   18  C   UNL     1     -45.055 -52.685  14.510  1.00  0.00     0.055 A 
HETATM   19  C   UNL     1     -46.150 -51.834  14.700  1.00  0.00    -0.057 A 
HETATM   20  C   UNL     1     -46.493 -51.306  16.062  1.00  0.00     0.048 C 
HETATM   21  C   UNL     1     -46.909 -51.449  13.594  1.00  0.00     0.031 A 
HETATM   22  C   UNL     1     -46.541 -51.904  12.337  1.00  0.00     0.007 A 
HETATM   23  C   UNL     1     -47.331 -51.571  11.109  1.00  0.00     0.068 C 
HETATM   24  N   UNL     1     -45.457 -52.687  12.146  1.00  0.00    -0.346 N 
ATOM     25  HN  UNL     1     -45.189 -52.980  11.207  1.00  0.00     0.167 HD
ENDBRANCH   4  17
TORSDOF 4
ENDMDL
MODEL 8
REMARK VINA RESULT:      -5.7      3.376      7.284
REMARK  4 active torsions:
REMARK  status: ('A' for Active; 'I' for Inactive)
REMARK    1  A    between atoms: C_2  and  S_3 
REMARK    2  A    between atoms: S_3  and  C_5 
REMARK    3  A    between atoms: C_9  and  N_11 
REMARK       I    between atoms: N_11  and  C_12 
REMARK       I    between atoms: C_12  and  N_14 
REMARK    4  A    between atoms: N_14  and  C_15 
ROOT
HETATM    1  N   UNL     1     -42.955 -48.908  12.920  1.00  0.00    -0.338 N 
HETATM    2  C   UNL     1     -42.212 -50.037  13.067  1.00  0.00     0.322 C 
HETATM    3  O   UNL     1     -40.991 -50.069  12.946  1.00  0.00    -0.247 OA
HETATM    4  N   UNL     1     -42.898 -51.161  13.434  1.00  0.00    -0.295 N 
HETATM    5  H   UNL     1     -43.955 -49.034  13.069  1.00  0.00     0.164 HD
HETATM    6  H   UNL     1     -42.300 -51.942  13.655  1.00  0.00     0.172 HD
ENDROOT
BRANCH   1   7
HETATM    7  C   UNL     1     -42.423 -47.578  12.766  1.00  0.00     0.087 C 
HETATM    8  C   UNL     1     -43.039 -46.611  13.778  1.00  0.00     0.025 C 
HETATM    9  C   UNL     1     -42.471 -45.204  13.605  1.00  0.00     0.003 C 
HETATM   10  C   UNL     1     -42.536 -44.694  12.159  1.00  0.00     0.017 C 
HETATM   11  C   UNL     1     -42.078 -45.710  11.095  1.00  0.00     0.081 C 
HETATM   12  C   UNL     1     -42.714 -47.072  11.352  1.00  0.00     0.043 C 
BRANCH  11  13
HETATM   13  S   UNL     1     -40.236 -45.785  11.022  1.00  0.00     0.019 S 
HETATM   14  O   UNL     1     -39.799 -46.749  12.086  1.00  0.00    -0.258 OA
BRANCH  13  15
HETATM   15  C   UNL     1     -39.891 -44.103  11.638  1.00  0.00     0.104 C 
HETATM   16  C   UNL     1     -38.948 -44.129  12.826  1.00  0.00     0.018 C 
ENDBRANCH  13  15
ENDBRANCH  11  13
ENDBRANCH   1   7
BRANCH   4  17
HETATM   17  C   UNL     1     -44.280 -51.299  13.607  1.00  0.00     0.109 A 
HETATM   18  C   UNL     1     -44.800 -51.260  14.892  1.00  0.00     0.055 A 
HETATM   19  C   UNL     1     -46.187 -51.336  15.059  1.00  0.00    -0.057 A 
HETATM   20  C   UNL     1     -46.811 -51.212  16.417  1.00  0.00     0.048 C 
HETATM   21  C   UNL     1     -46.997 -51.497  13.933  1.00  0.00     0.031 A 
HETATM   22  C   UNL     1     -46.403 -51.555  12.682  1.00  0.00     0.007 A 
HETATM   23  C   UNL     1     -47.200 -51.770  11.433  1.00  0.00     0.068 C 
HETATM   24  N   UNL     1     -45.068 -51.434  12.515  1.00  0.00    -0.346 N 
ATOM     25  HN  UNL     1     -44.660 -51.445  11.581  1.00  0.00     0.167 HD
ENDBRANCH   4  17
TORSDOF 4
ENDMDL
MODEL 9
REMARK VINA RESULT:      -5.7      3.076      7.545
REMARK  4 active torsions:
REMARK  status: ('A' for Active; 'I' for Inactive)
REMARK    1  A    between atoms: C_2  and  S_3 
REMARK    2  A    between atoms: S_3  and  C_5 
REMARK    3  A    between atoms: C_9  and  N_11 
REMARK       I    between atoms: N_11  and  C_12 
REMARK       I    between atoms: C_12  and  N_14 
REMARK    4  A    between atoms: N_14  and  C_15 
ROOT
HETATM    1  N   UNL     1     -44.239 -52.631  13.961  1.00  0.00    -0.338 N 
HETATM    2  C   UNL     1     -45.366 -53.047  13.324  1.00  0.00     0.322 C 
HETATM    3  O   UNL     1     -45.409 -53.327  12.130  1.00  0.00    -0.247 OA
HETATM    4  N   UNL     1     -46.472 -53.211  14.110  1.00  0.00    -0.295 N 
HETATM    5  H   UNL     1     -44.354 -52.454  14.957  1.00  0.00     0.164 HD
HETATM    6  H   UNL     1     -47.247 -53.638  13.628  1.00  0.00     0.172 HD
ENDROOT
BRANCH   1   7
HETATM    7  C   UNL     1     -42.919 -52.612  13.385  1.00  0.00     0.087 C 
HETATM    8  C   UNL     1     -42.225 -53.967  13.539  1.00  0.00     0.025 C 
HETATM    9  C   UNL     1     -40.826 -53.936  12.928  1.00  0.00     0.003 C 
HETATM   10  C   UNL     1     -39.974 -52.757  13.416  1.00  0.00     0.017 C 
HETATM   11  C   UNL     1     -40.699 -51.398  13.432  1.00  0.00     0.081 C 
HETATM   12  C   UNL     1     -42.075 -51.539  14.075  1.00  0.00     0.043 C 
BRANCH  11  13
HETATM   13  S   UNL     1     -40.775 -50.685  11.733  1.00  0.00     0.019 S 
HETATM   14  O   UNL     1     -39.452 -50.023  11.480  1.00  0.00    -0.258 OA
BRANCH  13  15
HETATM   15  C   UNL     1     -41.989 -49.365  12.067  1.00  0.00     0.104 C 
HETATM   16  C   UNL     1     -42.027 -48.349  10.941  1.00  0.00     0.018 C 
ENDBRANCH  13  15
ENDBRANCH  11  13
ENDBRANCH   1   7
BRANCH   4  17
HETATM   17  C   UNL     1     -46.596 -52.934  15.476  1.00  0.00     0.109 A 
HETATM   18  C   UNL     1     -47.264 -51.783  15.866  1.00  0.00     0.055 A 
HETATM   19  C   UNL     1     -47.440 -51.539  17.233  1.00  0.00    -0.057 A 
HETATM   20  C   UNL     1     -48.230 -50.357  17.713  1.00  0.00     0.048 C 
HETATM   21  C   UNL     1     -46.897 -52.433  18.157  1.00  0.00     0.031 A 
HETATM   22  C   UNL     1     -46.218 -53.549  17.691  1.00  0.00     0.007 A 
HETATM   23  C   UNL     1     -45.570 -54.529  18.619  1.00  0.00     0.068 C 
HETATM   24  N   UNL     1     -46.088 -53.810  16.373  1.00  0.00    -0.346 N 
ATOM     25  HN  UNL     1     -45.614 -54.656  16.057  1.00  0.00     0.167 HD
ENDBRANCH   4  17
TORSDOF 4
ENDMDL
