MODEL 1
REMARK VINA RESULT:      -5.9      0.000      0.000
REMARK  4 active torsions:
REMARK  status: ('A' for Active; 'I' for Inactive)
REMARK    1  A    between atoms: C_5  and  N_8 
REMARK       I    between atoms: N_8  and  C_9 
REMARK    2  A    between atoms: C_9  and  C_11 
REMARK    3  A    between atoms: C_11  and  C_12 
REMARK    4  A    between atoms: C_15  and  C_18 
ROOT
HETATM    1  N   UNL     1     -42.078 -51.258  12.573  1.00  0.00    -0.356 N 
HETATM    2  C   UNL     1     -40.843 -50.646  12.643  1.00  0.00     0.223 C 
HETATM    3  O   UNL     1     -40.133 -50.666  13.646  1.00  0.00    -0.273 OA
HETATM    4  H   UNL     1     -42.563 -51.255  11.683  1.00  0.00     0.162 HD
ENDROOT
BRANCH   2   5
HETATM    5  C   UNL     1     -40.443 -49.900  11.384  1.00  0.00     0.160 C 
BRANCH   5   6
HETATM    6  C   UNL     1     -41.299 -48.694  11.205  1.00  0.00     0.025 A 
HETATM    7  C   UNL     1     -41.368 -47.606  12.051  1.00  0.00     0.077 A 
HETATM    8  S   UNL     1     -42.511 -46.479  11.472  1.00  0.00    -0.086 SA
HETATM    9  C   UNL     1     -42.844 -47.508  10.123  1.00  0.00     0.058 A 
HETATM   10  N   UNL     1     -42.140 -48.625  10.103  1.00  0.00    -0.356 N 
ATOM     11  HN  UNL     1     -42.205 -49.338   9.377  1.00  0.00     0.166 HD
BRANCH   9  12
HETATM   12  C   UNL     1     -43.905 -47.138   9.087  1.00  0.00    -0.002 C 
HETATM   13  C   UNL     1     -43.606 -47.795   7.725  1.00  0.00     0.021 C 
HETATM   14  C   UNL     1     -45.293 -47.629   9.553  1.00  0.00     0.021 C 
HETATM   15  C   UNL     1     -43.973 -45.608   8.922  1.00  0.00     0.021 C 
ENDBRANCH   9  12
ENDBRANCH   5   6
ENDBRANCH   2   5
BRANCH   1  16
HETATM   16  C   UNL     1     -42.636 -52.017  13.685  1.00  0.00     0.087 C 
HETATM   17  C   UNL     1     -42.988 -53.447  13.266  1.00  0.00     0.055 C 
HETATM   18  C   UNL     1     -44.255 -53.489  12.409  1.00  0.00     0.274 C 
HETATM   19  N   UNL     1     -45.413 -52.819  13.013  1.00  0.00     0.084 N 
HETATM   20  C   UNL     1     -45.985 -53.587  14.117  1.00  0.00     0.309 C 
HETATM   21  C   UNL     1     -45.095 -51.440  13.399  1.00  0.00     0.274 C 
HETATM   22  C   UNL     1     -43.853 -51.306  14.283  1.00  0.00     0.055 C 
ENDBRANCH   1  16
TORSDOF 4
ENDMDL
MODEL 2
REMARK VINA RESULT:      -5.8      2.308      3.365
REMARK  4 active torsions:
REMARK  status: ('A' for Active; 'I' for Inactive)
REMARK    1  A    between atoms: C_5  and  N_8 
REMARK       I    between atoms: N_8  and  C_9 
REMARK    2  A    between atoms: C_9  and  C_11 
REMARK    3  A    between atoms: C_11  and  C_12 
REMARK    4  A    between atoms: C_15  and  C_18 
ROOT
HETATM    1  N   UNL     1     -40.483 -51.813  12.762  1.00  0.00    -0.356 N 
HETATM    2  C   UNL     1     -41.125 -50.723  12.212  1.00  0.00     0.223 C 
HETATM    3  O   UNL     1     -42.324 -50.496  12.362  1.00  0.00    -0.273 OA
HETATM    4  H   UNL     1     -39.479 -51.883  12.649  1.00  0.00     0.162 HD
ENDROOT
BRANCH   2   5
HETATM    5  C   UNL     1     -40.235 -49.838  11.360  1.00  0.00     0.160 C 
BRANCH   5   6
HETATM    6  C   UNL     1     -40.950 -48.581  11.000  1.00  0.00     0.025 A 
HETATM    7  C   UNL     1     -40.664 -47.314  11.467  1.00  0.00     0.077 A 
HETATM    8  S   UNL     1     -41.765 -46.183  10.818  1.00  0.00    -0.086 SA
HETATM    9  C   UNL     1     -42.557 -47.451   9.948  1.00  0.00     0.058 A 
HETATM   10  N   UNL     1     -42.027 -48.647  10.127  1.00  0.00    -0.356 N 
ATOM     11  HN  UNL     1     -42.363 -49.502   9.684  1.00  0.00     0.166 HD
BRANCH   9  12
HETATM   12  C   UNL     1     -43.790 -47.173   9.090  1.00  0.00    -0.002 C 
HETATM   13  C   UNL     1     -45.069 -47.705   9.764  1.00  0.00     0.021 C 
HETATM   14  C   UNL     1     -43.960 -45.652   8.886  1.00  0.00     0.021 C 
HETATM   15  C   UNL     1     -43.625 -47.822   7.702  1.00  0.00     0.021 C 
ENDBRANCH   9  12
ENDBRANCH   5   6
ENDBRANCH   2   5
BRANCH   1  16
HETATM   16  C   UNL     1     -41.174 -52.781  13.606  1.00  0.00     0.087 C 
HETATM   17  C   UNL     1     -41.002 -52.450  15.091  1.00  0.00     0.055 C 
HETATM   18  C   UNL     1     -39.597 -52.798  15.589  1.00  0.00     0.274 C 
HETATM   19  N   UNL     1     -39.182 -54.177  15.307  1.00  0.00     0.084 N 
HETATM   20  C   UNL     1     -39.861 -55.148  16.164  1.00  0.00     0.309 C 
HETATM   21  C   UNL     1     -39.322 -54.499  13.882  1.00  0.00     0.274 C 
HETATM   22  C   UNL     1     -40.709 -54.208  13.305  1.00  0.00     0.055 C 
ENDBRANCH   1  16
TORSDOF 4
ENDMDL
MODEL 3
REMARK VINA RESULT:      -5.6      4.311      7.346
REMARK  4 active torsions:
REMARK  status: ('A' for Active; 'I' for Inactive)
REMARK    1  A    between atoms: C_5  and  N_8 
REMARK       I    between atoms: N_8  and  C_9 
REMARK    2  A    between atoms: C_9  and  C_11 
REMARK    3  A    between atoms: C_11  and  C_12 
REMARK    4  A    between atoms: C_15  and  C_18 
ROOT
HETATM    1  N   UNL     1     -40.330 -43.960  11.677  1.00  0.00    -0.356 N 
HETATM    2  C   UNL     1     -39.819 -44.743  10.663  1.00  0.00     0.223 C 
HETATM    3  O   UNL     1     -39.535 -44.309   9.549  1.00  0.00    -0.273 OA
HETATM    4  H   UNL     1     -40.465 -44.385  12.587  1.00  0.00     0.162 HD
ENDROOT
BRANCH   2   5
HETATM    5  C   UNL     1     -39.673 -46.210  11.019  1.00  0.00     0.160 C 
BRANCH   5   6
HETATM    6  C   UNL     1     -41.001 -46.886  10.974  1.00  0.00     0.025 A 
HETATM    7  C   UNL     1     -41.458 -47.850  11.849  1.00  0.00     0.077 A 
HETATM    8  S   UNL     1     -43.019 -48.370  11.391  1.00  0.00    -0.086 SA
HETATM    9  C   UNL     1     -42.993 -47.273  10.054  1.00  0.00     0.058 A 
HETATM   10  N   UNL     1     -41.887 -46.558   9.958  1.00  0.00    -0.356 N 
ATOM     11  HN  UNL     1     -41.710 -45.859   9.237  1.00  0.00     0.166 HD
BRANCH   9  12
HETATM   12  C   UNL     1     -44.155 -47.201   9.066  1.00  0.00    -0.002 C 
HETATM   13  C   UNL     1     -43.789 -47.867   7.726  1.00  0.00     0.021 C 
HETATM   14  C   UNL     1     -45.384 -47.941   9.640  1.00  0.00     0.021 C 
HETATM   15  C   UNL     1     -44.555 -45.733   8.825  1.00  0.00     0.021 C 
ENDBRANCH   9  12
ENDBRANCH   5   6
ENDBRANCH   2   5
BRANCH   1  16
HETATM   16  C   UNL     1     -40.546 -42.526  11.521  1.00  0.00     0.087 C 
HETATM   17  C   UNL     1     -40.128 -41.758  12.778  1.00  0.00     0.055 C 
HETATM   18  C   UNL     1     -41.137 -41.936  13.913  1.00  0.00     0.274 C 
HETATM   19  N   UNL     1     -42.522 -41.621  13.543  1.00  0.00     0.084 N 
HETATM   20  C   UNL     1     -42.746 -40.183  13.403  1.00  0.00     0.309 C 
HETATM   21  C   UNL     1     -42.943 -42.369  12.352  1.00  0.00     0.274 C 
HETATM   22  C   UNL     1     -42.002 -42.225  11.155  1.00  0.00     0.055 C 
ENDBRANCH   1  16
TORSDOF 4
ENDMDL
MODEL 4
REMARK VINA RESULT:      -5.5      4.030      6.484
REMARK  4 active torsions:
REMARK  status: ('A' for Active; 'I' for Inactive)
REMARK    1  A    between atoms: C_5  and  N_8 
REMARK       I    between atoms: N_8  and  C_9 
REMARK    2  A    between atoms: C_9  and  C_11 
REMARK    3  A    between atoms: C_11  and  C_12 
REMARK    4  A    between atoms: C_15  and  C_18 
ROOT
HETATM    1  N   UNL     1     -39.610 -52.239  13.839  1.00  0.00    -0.356 N 
HETATM    2  C   UNL     1     -40.426 -53.175  13.238  1.00  0.00     0.223 C 
HETATM    3  O   UNL     1     -40.705 -53.161  12.041  1.00  0.00    -0.273 OA
HETATM    4  H   UNL     1     -39.373 -52.369  14.816  1.00  0.00     0.162 HD
ENDROOT
BRANCH   2   5
HETATM    5  C   UNL     1     -40.994 -54.212  14.189  1.00  0.00     0.160 C 
BRANCH   5   6
HETATM    6  C   UNL     1     -42.470 -54.050  14.306  1.00  0.00     0.025 A 
HETATM    7  C   UNL     1     -43.362 -54.991  14.779  1.00  0.00     0.077 A 
HETATM    8  S   UNL     1     -44.957 -54.388  14.696  1.00  0.00    -0.086 SA
HETATM    9  C   UNL     1     -44.362 -52.903  14.039  1.00  0.00     0.058 A 
HETATM   10  N   UNL     1     -43.050 -52.858  13.895  1.00  0.00    -0.356 N 
ATOM     11  HN  UNL     1     -42.534 -52.057  13.531  1.00  0.00     0.166 HD
BRANCH   9  12
HETATM   12  C   UNL     1     -45.314 -51.779  13.632  1.00  0.00    -0.002 C 
HETATM   13  C   UNL     1     -46.215 -52.210  12.460  1.00  0.00     0.021 C 
HETATM   14  C   UNL     1     -46.229 -51.406  14.819  1.00  0.00     0.021 C 
HETATM   15  C   UNL     1     -44.512 -50.524  13.239  1.00  0.00     0.021 C 
ENDBRANCH   9  12
ENDBRANCH   5   6
ENDBRANCH   2   5
BRANCH   1  16
HETATM   16  C   UNL     1     -38.976 -51.161  13.090  1.00  0.00     0.087 C 
HETATM   17  C   UNL     1     -37.515 -50.974  13.507  1.00  0.00     0.055 C 
HETATM   18  C   UNL     1     -37.398 -50.292  14.872  1.00  0.00     0.274 C 
HETATM   19  N   UNL     1     -38.140 -49.030  14.980  1.00  0.00     0.084 N 
HETATM   20  C   UNL     1     -37.497 -47.944  14.243  1.00  0.00     0.309 C 
HETATM   21  C   UNL     1     -39.548 -49.201  14.604  1.00  0.00     0.274 C 
HETATM   22  C   UNL     1     -39.758 -49.853  13.236  1.00  0.00     0.055 C 
ENDBRANCH   1  16
TORSDOF 4
ENDMDL
MODEL 5
REMARK VINA RESULT:      -5.3      2.231      3.169
REMARK  4 active torsions:
REMARK  status: ('A' for Active; 'I' for Inactive)
REMARK    1  A    between atoms: C_5  and  N_8 
REMARK       I    between atoms: N_8  and  C_9 
REMARK    2  A    between atoms: C_9  and  C_11 
REMARK    3  A    between atoms: C_11  and  C_12 
REMARK    4  A    between atoms: C_15  and  C_18 
ROOT
HETATM    1  N   UNL     1     -43.715 -50.699  12.888  1.00  0.00    -0.356 N 
HETATM    2  C   UNL     1     -42.884 -49.601  12.955  1.00  0.00     0.223 C 
HETATM    3  O   UNL     1     -42.930 -48.771  13.860  1.00  0.00    -0.273 OA
HETATM    4  H   UNL     1     -43.559 -51.373  12.146  1.00  0.00     0.162 HD
ENDROOT
BRANCH   2   5
HETATM    5  C   UNL     1     -41.926 -49.470  11.786  1.00  0.00     0.160 C 
BRANCH   5   6
HETATM    6  C   UNL     1     -41.993 -48.096  11.215  1.00  0.00     0.025 A 
HETATM    7  C   UNL     1     -42.924 -47.631  10.308  1.00  0.00     0.077 A 
HETATM    8  S   UNL     1     -42.592 -46.007   9.901  1.00  0.00    -0.086 SA
HETATM    9  C   UNL     1     -41.228 -46.018  10.965  1.00  0.00     0.058 A 
HETATM   10  N   UNL     1     -41.035 -47.165  11.590  1.00  0.00    -0.356 N 
ATOM     11  HN  UNL     1     -40.284 -47.342  12.257  1.00  0.00     0.166 HD
BRANCH   9  12
HETATM   12  C   UNL     1     -40.324 -44.795  11.105  1.00  0.00    -0.002 C 
HETATM   13  C   UNL     1     -41.151 -43.498  11.201  1.00  0.00     0.021 C 
HETATM   14  C   UNL     1     -39.476 -44.910  12.392  1.00  0.00     0.021 C 
HETATM   15  C   UNL     1     -39.360 -44.710   9.907  1.00  0.00     0.021 C 
ENDBRANCH   9  12
ENDBRANCH   5   6
ENDBRANCH   2   5
BRANCH   1  16
HETATM   16  C   UNL     1     -44.707 -50.990  13.916  1.00  0.00     0.087 C 
HETATM   17  C   UNL     1     -44.182 -52.013  14.927  1.00  0.00     0.055 C 
HETATM   18  C   UNL     1     -44.158 -53.427  14.342  1.00  0.00     0.274 C 
HETATM   19  N   UNL     1     -45.437 -53.864  13.771  1.00  0.00     0.084 N 
HETATM   20  C   UNL     1     -46.428 -54.172  14.801  1.00  0.00     0.309 C 
HETATM   21  C   UNL     1     -45.942 -52.902  12.784  1.00  0.00     0.274 C 
HETATM   22  C   UNL     1     -46.025 -51.463  13.295  1.00  0.00     0.055 C 
ENDBRANCH   1  16
TORSDOF 4
ENDMDL
MODEL 6
REMARK VINA RESULT:      -5.2      2.673      6.299
REMARK  4 active torsions:
REMARK  status: ('A' for Active; 'I' for Inactive)
REMARK    1  A    between atoms: C_5  and  N_8 
REMARK       I    between atoms: N_8  and  C_9 
REMARK    2  A    between atoms: C_9  and  C_11 
REMARK    3  A    between atoms: C_11  and  C_12 
REMARK    4  A    between atoms: C_15  and  C_18 
ROOT
HETATM    1  N   UNL     1     -40.683 -49.995  12.967  1.00  0.00    -0.356 N 
HETATM    2  C   UNL     1     -40.308 -51.300  13.212  1.00  0.00     0.223 C 
HETATM    3  O   UNL     1     -39.506 -51.917  12.514  1.00  0.00    -0.273 OA
HETATM    4  H   UNL     1     -41.294 -49.540  13.636  1.00  0.00     0.162 HD
ENDROOT
BRANCH   2   5
HETATM    5  C   UNL     1     -41.005 -51.938  14.399  1.00  0.00     0.160 C 
BRANCH   5   6
HETATM    6  C   UNL     1     -42.298 -52.544  13.973  1.00  0.00     0.025 A 
HETATM    7  C   UNL     1     -42.457 -53.628  13.134  1.00  0.00     0.077 A 
HETATM    8  S   UNL     1     -44.117 -53.948  12.892  1.00  0.00    -0.086 SA
HETATM    9  C   UNL     1     -44.525 -52.624  13.927  1.00  0.00     0.058 A 
HETATM   10  N   UNL     1     -43.484 -51.983  14.427  1.00  0.00    -0.356 N 
ATOM     11  HN  UNL     1     -43.543 -51.186  15.060  1.00  0.00     0.166 HD
BRANCH   9  12
HETATM   12  C   UNL     1     -45.980 -52.234  14.179  1.00  0.00    -0.002 C 
HETATM   13  C   UNL     1     -46.823 -53.460  14.580  1.00  0.00     0.021 C 
HETATM   14  C   UNL     1     -46.061 -51.208  15.330  1.00  0.00     0.021 C 
HETATM   15  C   UNL     1     -46.578 -51.582  12.919  1.00  0.00     0.021 C 
ENDBRANCH   9  12
ENDBRANCH   5   6
ENDBRANCH   2   5
BRANCH   1  16
HETATM   16  C   UNL     1     -40.126 -49.217  11.866  1.00  0.00     0.087 C 
HETATM   17  C   UNL     1     -39.472 -47.927  12.368  1.00  0.00     0.055 C 
HETATM   18  C   UNL     1     -40.516 -46.884  12.772  1.00  0.00     0.274 C 
HETATM   19  N   UNL     1     -41.513 -46.597  11.735  1.00  0.00     0.084 N 
HETATM   20  C   UNL     1     -40.962 -45.802  10.639  1.00  0.00     0.309 C 
HETATM   21  C   UNL     1     -42.164 -47.824  11.261  1.00  0.00     0.274 C 
HETATM   22  C   UNL     1     -41.192 -48.915  10.809  1.00  0.00     0.055 C 
ENDBRANCH   1  16
TORSDOF 4
ENDMDL
MODEL 7
REMARK VINA RESULT:      -5.1      1.842      2.651
REMARK  4 active torsions:
REMARK  status: ('A' for Active; 'I' for Inactive)
REMARK    1  A    between atoms: C_5  and  N_8 
REMARK       I    between atoms: N_8  and  C_9 
REMARK    2  A    between atoms: C_9  and  C_11 
REMARK    3  A    between atoms: C_11  and  C_12 
REMARK    4  A    between atoms: C_15  and  C_18 
ROOT
HETATM    1  N   UNL     1     -43.120 -52.832  13.028  1.00  0.00    -0.356 N 
HETATM    2  C   UNL     1     -41.742 -52.808  13.090  1.00  0.00     0.223 C 
HETATM    3  O   UNL     1     -41.105 -53.056  14.112  1.00  0.00    -0.273 OA
HETATM    4  H   UNL     1     -43.560 -52.688  12.127  1.00  0.00     0.162 HD
ENDROOT
BRANCH   2   5
HETATM    5  C   UNL     1     -41.065 -52.405  11.793  1.00  0.00     0.160 C 
BRANCH   5   6
HETATM    6  C   UNL     1     -40.715 -50.957  11.823  1.00  0.00     0.025 A 
HETATM    7  C   UNL     1     -39.558 -50.405  12.334  1.00  0.00     0.077 A 
HETATM    8  S   UNL     1     -39.603 -48.704  12.191  1.00  0.00    -0.086 SA
HETATM    9  C   UNL     1     -41.162 -48.806  11.450  1.00  0.00     0.058 A 
HETATM   10  N   UNL     1     -41.620 -50.037  11.313  1.00  0.00    -0.356 N 
ATOM     11  HN  UNL     1     -42.517 -50.278  10.891  1.00  0.00     0.166 HD
BRANCH   9  12
HETATM   12  C   UNL     1     -41.930 -47.550  11.044  1.00  0.00    -0.002 C 
HETATM   13  C   UNL     1     -40.981 -46.348  10.875  1.00  0.00     0.021 C 
HETATM   14  C   UNL     1     -42.646 -47.780   9.695  1.00  0.00     0.021 C 
HETATM   15  C   UNL     1     -43.002 -47.221  12.100  1.00  0.00     0.021 C 
ENDBRANCH   9  12
ENDBRANCH   5   6
ENDBRANCH   2   5
BRANCH   1  16
HETATM   16  C   UNL     1     -43.946 -53.190  14.175  1.00  0.00     0.087 C 
HETATM   17  C   UNL     1     -45.340 -53.649  13.738  1.00  0.00     0.055 C 
HETATM   18  C   UNL     1     -46.210 -52.472  13.294  1.00  0.00     0.274 C 
HETATM   19  N   UNL     1     -46.299 -51.384  14.275  1.00  0.00     0.084 N 
HETATM   20  C   UNL     1     -47.140 -51.735  15.417  1.00  0.00     0.309 C 
HETATM   21  C   UNL     1     -44.968 -50.920  14.685  1.00  0.00     0.274 C 
HETATM   22  C   UNL     1     -44.038 -52.032  15.172  1.00  0.00     0.055 C 
ENDBRANCH   1  16
TORSDOF 4
ENDMDL
MODEL 8
REMARK VINA RESULT:      -5.1      3.502      6.346
REMARK  4 active torsions:
REMARK  status: ('A' for Active; 'I' for Inactive)
REMARK    1  A    between atoms: C_5  and  N_8 
REMARK       I    between atoms: N_8  and  C_9 
REMARK    2  A    between atoms: C_9  and  C_11 
REMARK    3  A    between atoms: C_11  and  C_12 
REMARK    4  A    between atoms: C_15  and  C_18 
ROOT
HETATM    1  N   UNL     1     -40.456 -50.279  12.915  1.00  0.00    -0.356 N 
HETATM    2  C   UNL     1     -40.289 -51.605  12.572  1.00  0.00     0.223 C 
HETATM    3  O   UNL     1     -39.225 -52.208  12.695  1.00  0.00    -0.273 OA
HETATM    4  H   UNL     1     -41.386 -49.883  12.851  1.00  0.00     0.162 HD
ENDROOT
BRANCH   2   5
HETATM    5  C   UNL     1     -41.525 -52.259  11.984  1.00  0.00     0.160 C 
BRANCH   5   6
HETATM    6  C   UNL     1     -42.524 -52.531  13.056  1.00  0.00     0.025 A 
HETATM    7  C   UNL     1     -42.288 -53.184  14.249  1.00  0.00     0.077 A 
HETATM    8  S   UNL     1     -43.731 -53.303  15.152  1.00  0.00    -0.086 SA
HETATM    9  C   UNL     1     -44.586 -52.470  13.900  1.00  0.00     0.058 A 
HETATM   10  N   UNL     1     -43.837 -52.120  12.871  1.00  0.00    -0.356 N 
ATOM     11  HN  UNL     1     -44.177 -51.616  12.052  1.00  0.00     0.166 HD
BRANCH   9  12
HETATM   12  C   UNL     1     -46.089 -52.221  13.998  1.00  0.00    -0.002 C 
HETATM   13  C   UNL     1     -46.849 -53.520  14.328  1.00  0.00     0.021 C 
HETATM   14  C   UNL     1     -46.385 -51.203  15.121  1.00  0.00     0.021 C 
HETATM   15  C   UNL     1     -46.615 -51.634  12.674  1.00  0.00     0.021 C 
ENDBRANCH   9  12
ENDBRANCH   5   6
ENDBRANCH   2   5
BRANCH   1  16
HETATM   16  C   UNL     1     -39.379 -49.481  13.489  1.00  0.00     0.087 C 
HETATM   17  C   UNL     1     -39.851 -48.716  14.729  1.00  0.00     0.055 C 
HETATM   18  C   UNL     1     -40.734 -47.523  14.355  1.00  0.00     0.274 C 
HETATM   19  N   UNL     1     -40.133 -46.613  13.374  1.00  0.00     0.084 N 
HETATM   20  C   UNL     1     -39.065 -45.799  13.952  1.00  0.00     0.309 C 
HETATM   21  C   UNL     1     -39.697 -47.331  12.171  1.00  0.00     0.274 C 
HETATM   22  C   UNL     1     -38.784 -48.527  12.450  1.00  0.00     0.055 C 
ENDBRANCH   1  16
TORSDOF 4
ENDMDL
MODEL 9
REMARK VINA RESULT:      -5.1      3.015      6.970
REMARK  4 active torsions:
REMARK  status: ('A' for Active; 'I' for Inactive)
REMARK    1  A    between atoms: C_5  and  N_8 
REMARK       I    between atoms: N_8  and  C_9 
REMARK    2  A    between atoms: C_9  and  C_11 
REMARK    3  A    between atoms: C_11  and  C_12 
REMARK    4  A    between atoms: C_15  and  C_18 
ROOT
HETATM    1  N   UNL     1     -41.139 -47.437  11.945  1.00  0.00    -0.356 N 
HETATM    2  C   UNL     1     -42.043 -48.466  12.102  1.00  0.00     0.223 C 
HETATM    3  O   UNL     1     -43.086 -48.556  11.459  1.00  0.00    -0.273 OA
HETATM    4  H   UNL     1     -40.269 -47.481  12.464  1.00  0.00     0.162 HD
ENDROOT
BRANCH   2   5
HETATM    5  C   UNL     1     -41.668 -49.469  13.177  1.00  0.00     0.160 C 
BRANCH   5   6
HETATM    6  C   UNL     1     -42.496 -50.701  13.045  1.00  0.00     0.025 A 
HETATM    7  C   UNL     1     -42.085 -51.911  12.522  1.00  0.00     0.077 A 
HETATM    8  S   UNL     1     -43.377 -53.027  12.532  1.00  0.00    -0.086 SA
HETATM    9  C   UNL     1     -44.407 -51.831  13.239  1.00  0.00     0.058 A 
HETATM   10  N   UNL     1     -43.820 -50.668  13.459  1.00  0.00    -0.356 N 
ATOM     11  HN  UNL     1     -44.277 -49.858  13.877  1.00  0.00     0.166 HD
BRANCH   9  12
HETATM   12  C   UNL     1     -45.878 -52.123  13.528  1.00  0.00    -0.002 C 
HETATM   13  C   UNL     1     -46.091 -53.605  13.889  1.00  0.00     0.021 C 
HETATM   14  C   UNL     1     -46.361 -51.271  14.722  1.00  0.00     0.021 C 
HETATM   15  C   UNL     1     -46.739 -51.757  12.305  1.00  0.00     0.021 C 
ENDBRANCH   9  12
ENDBRANCH   5   6
ENDBRANCH   2   5
BRANCH   1  16
HETATM   16  C   UNL     1     -41.329 -46.374  10.964  1.00  0.00     0.087 C 
HETATM   17  C   UNL     1     -40.015 -45.649  10.663  1.00  0.00     0.055 C 
HETATM   18  C   UNL     1     -39.605 -44.721  11.807  1.00  0.00     0.274 C 
HETATM   19  N   UNL     1     -40.647 -43.771  12.214  1.00  0.00     0.084 N 
HETATM   20  C   UNL     1     -40.828 -42.695  11.242  1.00  0.00     0.309 C 
HETATM   21  C   UNL     1     -41.906 -44.456  12.528  1.00  0.00     0.274 C 
HETATM   22  C   UNL     1     -42.406 -45.387  11.423  1.00  0.00     0.055 C 
ENDBRANCH   1  16
TORSDOF 4
ENDMDL
