MODEL 1
REMARK VINA RESULT:      -6.3      0.000      0.000
REMARK  6 active torsions:
REMARK  status: ('A' for Active; 'I' for Inactive)
REMARK    1  A    between atoms: N_4  and  C_9 
REMARK    2  A    between atoms: C_12  and  C_16 
REMARK       I    between atoms: C_16  and  N_18 
REMARK    3  A    between atoms: N_18  and  C_19 
REMARK    4  A    between atoms: C_19  and  C_20 
REMARK    5  A    between atoms: C_20  and  C_21 
REMARK    6  A    between atoms: C_21  and  N_22 
REMARK       I    between atoms: N_22  and  C_23 
ROOT
HETATM    1  C   UNL     1     -41.936 -48.617  10.967  1.00  0.00     0.103 A 
HETATM    2  C   UNL     1     -42.767 -49.078  11.991  1.00  0.00     0.049 A 
HETATM    3  C   UNL     1     -42.465 -50.253  12.674  1.00  0.00     0.022 A 
HETATM    4  C   UNL     1     -41.317 -50.952  12.334  1.00  0.00     0.047 A 
HETATM    5  C   UNL     1     -40.556 -50.466  11.284  1.00  0.00     0.106 A 
HETATM    6  N   UNL     1     -40.847 -49.328  10.595  1.00  0.00    -0.351 N 
ATOM      7  HN  UNL     1     -40.261 -49.019   9.820  1.00  0.00     0.166 HD
ENDROOT
BRANCH   4   8
HETATM    8  C   UNL     1     -40.983 -52.182  13.082  1.00  0.00     0.253 C 
HETATM    9  O   UNL     1     -39.869 -52.681  12.963  1.00  0.00    -0.268 OA
HETATM   10  N   UNL     1     -41.990 -52.738  13.841  1.00  0.00    -0.357 N 
HETATM   11  H   UNL     1     -42.930 -52.368  13.784  1.00  0.00     0.162 HD
BRANCH  10  12
HETATM   12  C   UNL     1     -41.803 -54.007  14.524  1.00  0.00     0.124 C 
BRANCH  12  13
HETATM   13  C   UNL     1     -43.025 -54.420  15.339  1.00  0.00     0.039 C 
BRANCH  13  14
HETATM   14  C   UNL     1     -44.164 -54.892  14.440  1.00  0.00     0.124 C 
BRANCH  14  15
HETATM   15  N   UNL     1     -45.179 -53.874  14.266  1.00  0.00    -0.361 N 
HETATM   16  C   UNL     1     -45.311 -53.175  13.088  1.00  0.00     0.213 C 
HETATM   17  O   UNL     1     -44.589 -53.345  12.112  1.00  0.00    -0.274 OA
HETATM   18  C   UNL     1     -46.418 -52.155  13.099  1.00  0.00     0.117 C 
HETATM   19  H   UNL     1     -45.872 -53.762  14.995  1.00  0.00     0.162 HD
ENDBRANCH  14  15
ENDBRANCH  13  14
ENDBRANCH  12  13
ENDBRANCH  10  12
ENDBRANCH   4   8
BRANCH   1  20
HETATM   20  N   UNL     1     -42.267 -47.467  10.298  1.00  0.00    -0.362 N 
HETATM   21  C   UNL     1     -42.733 -47.488   8.914  1.00  0.00     0.156 C 
HETATM   22  C   UNL     1     -43.870 -46.437   8.781  1.00  0.00     0.136 C 
HETATM   23  C   UNL     1     -45.159 -46.903   9.463  1.00  0.00     0.041 C 
HETATM   24  O   UNL     1     -43.471 -45.132   9.266  1.00  0.00    -0.378 OA
HETATM   25  C   UNL     1     -42.950 -45.160  10.613  1.00  0.00     0.136 C 
HETATM   26  C   UNL     1     -41.782 -46.156  10.731  1.00  0.00     0.156 C 
HETATM   27  C   UNL     1     -42.504 -43.753  10.982  1.00  0.00     0.041 C 
ENDBRANCH   1  20
TORSDOF 6
ENDMDL
MODEL 2
REMARK VINA RESULT:      -6.0      3.198      9.043
REMARK  6 active torsions:
REMARK  status: ('A' for Active; 'I' for Inactive)
REMARK    1  A    between atoms: N_4  and  C_9 
REMARK    2  A    between atoms: C_12  and  C_16 
REMARK       I    between atoms: C_16  and  N_18 
REMARK    3  A    between atoms: N_18  and  C_19 
REMARK    4  A    between atoms: C_19  and  C_20 
REMARK    5  A    between atoms: C_20  and  C_21 
REMARK    6  A    between atoms: C_21  and  N_22 
REMARK       I    between atoms: N_22  and  C_23 
ROOT
HETATM    1  C   UNL     1     -40.442 -48.961  11.414  1.00  0.00     0.103 A 
HETATM    2  C   UNL     1     -39.925 -47.673  11.571  1.00  0.00     0.049 A 
HETATM    3  C   UNL     1     -40.640 -46.564  11.128  1.00  0.00     0.022 A 
HETATM    4  C   UNL     1     -41.882 -46.754  10.544  1.00  0.00     0.047 A 
HETATM    5  C   UNL     1     -42.322 -48.058  10.380  1.00  0.00     0.106 A 
HETATM    6  N   UNL     1     -41.626 -49.154  10.792  1.00  0.00    -0.351 N 
ATOM      7  HN  UNL     1     -41.989 -50.094  10.636  1.00  0.00     0.166 HD
ENDROOT
BRANCH   4   8
HETATM    8  C   UNL     1     -42.653 -45.573  10.104  1.00  0.00     0.253 C 
HETATM    9  O   UNL     1     -43.121 -45.541   8.971  1.00  0.00    -0.268 OA
HETATM   10  N   UNL     1     -42.750 -44.528  10.998  1.00  0.00    -0.357 N 
HETATM   11  H   UNL     1     -42.218 -44.548  11.859  1.00  0.00     0.162 HD
BRANCH  10  12
HETATM   12  C   UNL     1     -43.386 -43.277  10.625  1.00  0.00     0.124 C 
BRANCH  12  13
HETATM   13  C   UNL     1     -42.623 -42.056  11.134  1.00  0.00     0.039 C 
BRANCH  13  14
HETATM   14  C   UNL     1     -41.155 -42.382  11.393  1.00  0.00     0.124 C 
BRANCH  14  15
HETATM   15  N   UNL     1     -40.422 -41.235  11.887  1.00  0.00    -0.361 N 
HETATM   16  C   UNL     1     -39.685 -41.290  13.048  1.00  0.00     0.213 C 
HETATM   17  O   UNL     1     -39.599 -42.290  13.752  1.00  0.00    -0.274 OA
HETATM   18  C   UNL     1     -38.997 -39.999  13.402  1.00  0.00     0.117 C 
HETATM   19  H   UNL     1     -40.366 -40.414  11.298  1.00  0.00     0.162 HD
ENDBRANCH  14  15
ENDBRANCH  13  14
ENDBRANCH  12  13
ENDBRANCH  10  12
ENDBRANCH   4   8
BRANCH   1  20
HETATM   20  N   UNL     1     -39.707 -50.038  11.842  1.00  0.00    -0.362 N 
HETATM   21  C   UNL     1     -38.266 -50.124  11.621  1.00  0.00     0.156 C 
HETATM   22  C   UNL     1     -37.627 -50.735  12.898  1.00  0.00     0.136 C 
HETATM   23  C   UNL     1     -37.621 -49.743  14.063  1.00  0.00     0.041 C 
HETATM   24  O   UNL     1     -38.256 -51.981  13.284  1.00  0.00    -0.378 OA
HETATM   25  C   UNL     1     -39.689 -51.876  13.425  1.00  0.00     0.136 C 
HETATM   26  C   UNL     1     -40.331 -51.328  12.137  1.00  0.00     0.156 C 
HETATM   27  C   UNL     1     -40.239 -53.254  13.762  1.00  0.00     0.041 C 
ENDBRANCH   1  20
TORSDOF 6
ENDMDL
MODEL 3
REMARK VINA RESULT:      -5.9      1.490      2.387
REMARK  6 active torsions:
REMARK  status: ('A' for Active; 'I' for Inactive)
REMARK    1  A    between atoms: N_4  and  C_9 
REMARK    2  A    between atoms: C_12  and  C_16 
REMARK       I    between atoms: C_16  and  N_18 
REMARK    3  A    between atoms: N_18  and  C_19 
REMARK    4  A    between atoms: C_19  and  C_20 
REMARK    5  A    between atoms: C_20  and  C_21 
REMARK    6  A    between atoms: C_21  and  N_22 
REMARK       I    between atoms: N_22  and  C_23 
ROOT
HETATM    1  C   UNL     1     -41.419 -48.446  12.000  1.00  0.00     0.103 A 
HETATM    2  C   UNL     1     -40.321 -48.472  12.863  1.00  0.00     0.049 A 
HETATM    3  C   UNL     1     -39.828 -49.680  13.346  1.00  0.00     0.022 A 
HETATM    4  C   UNL     1     -40.431 -50.862  12.945  1.00  0.00     0.047 A 
HETATM    5  C   UNL     1     -41.540 -50.768  12.120  1.00  0.00     0.106 A 
HETATM    6  N   UNL     1     -42.046 -49.593  11.653  1.00  0.00    -0.351 N 
ATOM      7  HN  UNL     1     -42.874 -49.578  11.058  1.00  0.00     0.166 HD
ENDROOT
BRANCH   4   8
HETATM    8  C   UNL     1     -39.885 -52.145  13.434  1.00  0.00     0.253 C 
HETATM    9  O   UNL     1     -38.684 -52.371  13.334  1.00  0.00    -0.268 OA
HETATM   10  N   UNL     1     -40.793 -53.054  13.932  1.00  0.00    -0.357 N 
HETATM   11  H   UNL     1     -41.786 -52.874  13.852  1.00  0.00     0.162 HD
BRANCH  10  12
HETATM   12  C   UNL     1     -40.377 -54.387  14.333  1.00  0.00     0.124 C 
BRANCH  12  13
HETATM   13  C   UNL     1     -41.225 -54.949  15.472  1.00  0.00     0.039 C 
BRANCH  13  14
HETATM   14  C   UNL     1     -42.444 -54.073  15.746  1.00  0.00     0.124 C 
BRANCH  14  15
HETATM   15  N   UNL     1     -43.675 -54.703  15.318  1.00  0.00    -0.361 N 
HETATM   16  C   UNL     1     -44.203 -54.487  14.066  1.00  0.00     0.213 C 
HETATM   17  O   UNL     1     -43.692 -53.749  13.230  1.00  0.00    -0.274 OA
HETATM   18  C   UNL     1     -45.489 -55.225  13.804  1.00  0.00     0.117 C 
HETATM   19  H   UNL     1     -44.087 -55.405  15.920  1.00  0.00     0.162 HD
ENDBRANCH  14  15
ENDBRANCH  13  14
ENDBRANCH  12  13
ENDBRANCH  10  12
ENDBRANCH   4   8
BRANCH   1  20
HETATM   20  N   UNL     1     -41.897 -47.240  11.554  1.00  0.00    -0.362 N 
HETATM   21  C   UNL     1     -41.503 -45.978  12.175  1.00  0.00     0.156 C 
HETATM   22  C   UNL     1     -41.310 -44.933  11.042  1.00  0.00     0.136 C 
HETATM   23  C   UNL     1     -40.038 -45.196  10.234  1.00  0.00     0.041 C 
HETATM   24  O   UNL     1     -42.466 -44.845  10.174  1.00  0.00    -0.378 OA
HETATM   25  C   UNL     1     -42.870 -46.122   9.634  1.00  0.00     0.136 C 
HETATM   26  C   UNL     1     -43.121 -47.142  10.759  1.00  0.00     0.156 C 
HETATM   27  C   UNL     1     -44.126 -45.913   8.800  1.00  0.00     0.041 C 
ENDBRANCH   1  20
TORSDOF 6
ENDMDL
MODEL 4
REMARK VINA RESULT:      -5.9      2.203      7.835
REMARK  6 active torsions:
REMARK  status: ('A' for Active; 'I' for Inactive)
REMARK    1  A    between atoms: N_4  and  C_9 
REMARK    2  A    between atoms: C_12  and  C_16 
REMARK       I    between atoms: C_16  and  N_18 
REMARK    3  A    between atoms: N_18  and  C_19 
REMARK    4  A    between atoms: C_19  and  C_20 
REMARK    5  A    between atoms: C_20  and  C_21 
REMARK    6  A    between atoms: C_21  and  N_22 
REMARK       I    between atoms: N_22  and  C_23 
ROOT
HETATM    1  C   UNL     1     -42.988 -51.722  14.146  1.00  0.00     0.103 A 
HETATM    2  C   UNL     1     -43.589 -50.461  14.140  1.00  0.00     0.049 A 
HETATM    3  C   UNL     1     -43.176 -49.484  13.240  1.00  0.00     0.022 A 
HETATM    4  C   UNL     1     -42.169 -49.785  12.336  1.00  0.00     0.047 A 
HETATM    5  C   UNL     1     -41.585 -51.038  12.419  1.00  0.00     0.106 A 
HETATM    6  N   UNL     1     -41.967 -51.999  13.306  1.00  0.00    -0.351 N 
ATOM      7  HN  UNL     1     -41.495 -52.903  13.334  1.00  0.00     0.166 HD
ENDROOT
BRANCH   4   8
HETATM    8  C   UNL     1     -41.754 -48.755  11.361  1.00  0.00     0.253 C 
HETATM    9  O   UNL     1     -40.625 -48.281  11.422  1.00  0.00    -0.268 OA
HETATM   10  N   UNL     1     -42.707 -48.340  10.456  1.00  0.00    -0.357 N 
HETATM   11  H   UNL     1     -43.665 -48.657  10.548  1.00  0.00     0.162 HD
BRANCH  10  12
HETATM   12  C   UNL     1     -42.440 -47.254   9.529  1.00  0.00     0.124 C 
BRANCH  12  13
HETATM   13  C   UNL     1     -43.267 -46.007   9.833  1.00  0.00     0.039 C 
BRANCH  13  14
HETATM   14  C   UNL     1     -44.414 -45.840   8.840  1.00  0.00     0.124 C 
BRANCH  14  15
HETATM   15  N   UNL     1     -44.924 -47.114   8.379  1.00  0.00    -0.361 N 
HETATM   16  C   UNL     1     -46.177 -47.563   8.730  1.00  0.00     0.213 C 
HETATM   17  O   UNL     1     -46.944 -46.941   9.456  1.00  0.00    -0.274 OA
HETATM   18  C   UNL     1     -46.530 -48.910   8.158  1.00  0.00     0.117 C 
HETATM   19  H   UNL     1     -44.384 -47.625   7.692  1.00  0.00     0.162 HD
ENDBRANCH  14  15
ENDBRANCH  13  14
ENDBRANCH  12  13
ENDBRANCH  10  12
ENDBRANCH   4   8
BRANCH   1  20
HETATM   20  N   UNL     1     -43.402 -52.661  15.057  1.00  0.00    -0.362 N 
HETATM   21  C   UNL     1     -44.705 -52.578  15.711  1.00  0.00     0.156 C 
HETATM   22  C   UNL     1     -45.282 -54.017  15.804  1.00  0.00     0.136 C 
HETATM   23  C   UNL     1     -45.744 -54.535  14.440  1.00  0.00     0.041 C 
HETATM   24  O   UNL     1     -44.353 -54.942  16.420  1.00  0.00    -0.378 OA
HETATM   25  C   UNL     1     -43.053 -54.947  15.791  1.00  0.00     0.136 C 
HETATM   26  C   UNL     1     -42.453 -53.529  15.754  1.00  0.00     0.156 C 
HETATM   27  C   UNL     1     -42.151 -55.898  16.565  1.00  0.00     0.041 C 
ENDBRANCH   1  20
TORSDOF 6
ENDMDL
MODEL 5
REMARK VINA RESULT:      -5.8      2.061      7.841
REMARK  6 active torsions:
REMARK  status: ('A' for Active; 'I' for Inactive)
REMARK    1  A    between atoms: N_4  and  C_9 
REMARK    2  A    between atoms: C_12  and  C_16 
REMARK       I    between atoms: C_16  and  N_18 
REMARK    3  A    between atoms: N_18  and  C_19 
REMARK    4  A    between atoms: C_19  and  C_20 
REMARK    5  A    between atoms: C_20  and  C_21 
REMARK    6  A    between atoms: C_21  and  N_22 
REMARK       I    between atoms: N_22  and  C_23 
ROOT
HETATM    1  C   UNL     1     -41.561 -52.409  13.463  1.00  0.00     0.103 A 
HETATM    2  C   UNL     1     -42.187 -51.599  12.512  1.00  0.00     0.049 A 
HETATM    3  C   UNL     1     -41.607 -50.399  12.111  1.00  0.00     0.022 A 
HETATM    4  C   UNL     1     -40.389 -50.025  12.657  1.00  0.00     0.047 A 
HETATM    5  C   UNL     1     -39.839 -50.850  13.625  1.00  0.00     0.106 A 
HETATM    6  N   UNL     1     -40.402 -52.018  14.040  1.00  0.00    -0.351 N 
ATOM      7  HN  UNL     1     -39.962 -52.584  14.766  1.00  0.00     0.166 HD
ENDROOT
BRANCH   4   8
HETATM    8  C   UNL     1     -39.761 -48.766  12.206  1.00  0.00     0.253 C 
HETATM    9  O   UNL     1     -38.609 -48.779  11.787  1.00  0.00    -0.268 OA
HETATM   10  N   UNL     1     -40.510 -47.617  12.342  1.00  0.00    -0.357 N 
HETATM   11  H   UNL     1     -41.395 -47.645  12.832  1.00  0.00     0.162 HD
BRANCH  10  12
HETATM   12  C   UNL     1     -39.947 -46.313  12.037  1.00  0.00     0.124 C 
BRANCH  12  13
HETATM   13  C   UNL     1     -40.289 -45.843  10.625  1.00  0.00     0.039 C 
BRANCH  13  14
HETATM   14  C   UNL     1     -41.771 -45.507  10.491  1.00  0.00     0.124 C 
BRANCH  14  15
HETATM   15  N   UNL     1     -42.363 -46.115   9.318  1.00  0.00    -0.361 N 
HETATM   16  C   UNL     1     -43.063 -47.297   9.389  1.00  0.00     0.213 C 
HETATM   17  O   UNL     1     -43.232 -47.927  10.427  1.00  0.00    -0.274 OA
HETATM   18  C   UNL     1     -43.600 -47.775   8.066  1.00  0.00     0.117 C 
HETATM   19  H   UNL     1     -42.351 -45.592   8.451  1.00  0.00     0.162 HD
ENDBRANCH  14  15
ENDBRANCH  13  14
ENDBRANCH  12  13
ENDBRANCH  10  12
ENDBRANCH   4   8
BRANCH   1  20
HETATM   20  N   UNL     1     -42.164 -53.577  13.854  1.00  0.00    -0.362 N 
HETATM   21  C   UNL     1     -41.431 -54.621  14.567  1.00  0.00     0.156 C 
HETATM   22  C   UNL     1     -42.375 -55.202  15.656  1.00  0.00     0.136 C 
HETATM   23  C   UNL     1     -42.572 -54.227  16.818  1.00  0.00     0.041 C 
HETATM   24  O   UNL     1     -43.649 -55.621  15.111  1.00  0.00    -0.378 OA
HETATM   25  C   UNL     1     -44.313 -54.586  14.354  1.00  0.00     0.136 C 
HETATM   26  C   UNL     1     -43.401 -54.051  13.234  1.00  0.00     0.156 C 
HETATM   27  C   UNL     1     -45.598 -55.164  13.778  1.00  0.00     0.041 C 
ENDBRANCH   1  20
TORSDOF 6
ENDMDL
MODEL 6
REMARK VINA RESULT:      -5.7      2.538      7.882
REMARK  6 active torsions:
REMARK  status: ('A' for Active; 'I' for Inactive)
REMARK    1  A    between atoms: N_4  and  C_9 
REMARK    2  A    between atoms: C_12  and  C_16 
REMARK       I    between atoms: C_16  and  N_18 
REMARK    3  A    between atoms: N_18  and  C_19 
REMARK    4  A    between atoms: C_19  and  C_20 
REMARK    5  A    between atoms: C_20  and  C_21 
REMARK    6  A    between atoms: C_21  and  N_22 
REMARK       I    between atoms: N_22  and  C_23 
ROOT
HETATM    1  C   UNL     1     -41.820 -51.179  12.188  1.00  0.00     0.103 A 
HETATM    2  C   UNL     1     -42.656 -50.148  12.625  1.00  0.00     0.049 A 
HETATM    3  C   UNL     1     -42.471 -48.845  12.172  1.00  0.00     0.022 A 
HETATM    4  C   UNL     1     -41.453 -48.587  11.267  1.00  0.00     0.047 A 
HETATM    5  C   UNL     1     -40.633 -49.642  10.904  1.00  0.00     0.106 A 
HETATM    6  N   UNL     1     -40.791 -50.919  11.351  1.00  0.00    -0.351 N 
ATOM      7  HN  UNL     1     -40.151 -51.659  11.062  1.00  0.00     0.166 HD
ENDROOT
BRANCH   4   8
HETATM    8  C   UNL     1     -41.278 -47.208  10.765  1.00  0.00     0.253 C 
HETATM    9  O   UNL     1     -42.224 -46.627  10.246  1.00  0.00    -0.268 OA
HETATM   10  N   UNL     1     -40.013 -46.669  10.861  1.00  0.00    -0.357 N 
HETATM   11  H   UNL     1     -39.238 -47.248  11.160  1.00  0.00     0.162 HD
BRANCH  10  12
HETATM   12  C   UNL     1     -39.706 -45.367  10.295  1.00  0.00     0.124 C 
BRANCH  12  13
HETATM   13  C   UNL     1     -39.965 -44.226  11.274  1.00  0.00     0.039 C 
BRANCH  13  14
HETATM   14  C   UNL     1     -39.370 -44.521  12.648  1.00  0.00     0.124 C 
BRANCH  14  15
HETATM   15  N   UNL     1     -40.394 -44.745  13.647  1.00  0.00    -0.361 N 
HETATM   16  C   UNL     1     -40.563 -45.969  14.252  1.00  0.00     0.213 C 
HETATM   17  O   UNL     1     -39.883 -46.956  13.992  1.00  0.00    -0.274 OA
HETATM   18  C   UNL     1     -41.680 -46.009  15.260  1.00  0.00     0.117 C 
HETATM   19  H   UNL     1     -40.917 -43.945  13.982  1.00  0.00     0.162 HD
ENDBRANCH  14  15
ENDBRANCH  13  14
ENDBRANCH  12  13
ENDBRANCH  10  12
ENDBRANCH   4   8
BRANCH   1  20
HETATM   20  N   UNL     1     -42.014 -52.451  12.665  1.00  0.00    -0.362 N 
HETATM   21  C   UNL     1     -40.897 -53.359  12.911  1.00  0.00     0.156 C 
HETATM   22  C   UNL     1     -41.200 -54.139  14.220  1.00  0.00     0.136 C 
HETATM   23  C   UNL     1     -41.050 -53.252  15.458  1.00  0.00     0.041 C 
HETATM   24  O   UNL     1     -42.502 -54.773  14.192  1.00  0.00    -0.378 OA
HETATM   25  C   UNL     1     -43.574 -53.858  13.877  1.00  0.00     0.136 C 
HETATM   26  C   UNL     1     -43.304 -53.129  12.548  1.00  0.00     0.156 C 
HETATM   27  C   UNL     1     -44.873 -54.649  13.809  1.00  0.00     0.041 C 
ENDBRANCH   1  20
TORSDOF 6
ENDMDL
MODEL 7
REMARK VINA RESULT:      -5.7      2.215      8.580
REMARK  6 active torsions:
REMARK  status: ('A' for Active; 'I' for Inactive)
REMARK    1  A    between atoms: N_4  and  C_9 
REMARK    2  A    between atoms: C_12  and  C_16 
REMARK       I    between atoms: C_16  and  N_18 
REMARK    3  A    between atoms: N_18  and  C_19 
REMARK    4  A    between atoms: C_19  and  C_20 
REMARK    5  A    between atoms: C_20  and  C_21 
REMARK    6  A    between atoms: C_21  and  N_22 
REMARK       I    between atoms: N_22  and  C_23 
ROOT
HETATM    1  C   UNL     1     -41.835 -51.250  12.209  1.00  0.00     0.103 A 
HETATM    2  C   UNL     1     -42.707 -50.234  12.607  1.00  0.00     0.049 A 
HETATM    3  C   UNL     1     -42.543 -48.935  12.135  1.00  0.00     0.022 A 
HETATM    4  C   UNL     1     -41.511 -48.666  11.249  1.00  0.00     0.047 A 
HETATM    5  C   UNL     1     -40.657 -49.707  10.924  1.00  0.00     0.106 A 
HETATM    6  N   UNL     1     -40.794 -50.979  11.391  1.00  0.00    -0.351 N 
ATOM      7  HN  UNL     1     -40.129 -51.708  11.130  1.00  0.00     0.166 HD
ENDROOT
BRANCH   4   8
HETATM    8  C   UNL     1     -41.360 -47.293  10.725  1.00  0.00     0.253 C 
HETATM    9  O   UNL     1     -42.326 -46.721  10.233  1.00  0.00    -0.268 OA
HETATM   10  N   UNL     1     -40.094 -46.749  10.772  1.00  0.00    -0.357 N 
HETATM   11  H   UNL     1     -39.307 -47.321  11.051  1.00  0.00     0.162 HD
BRANCH  10  12
HETATM   12  C   UNL     1     -39.812 -45.452  10.181  1.00  0.00     0.124 C 
BRANCH  12  13
HETATM   13  C   UNL     1     -39.560 -44.371  11.230  1.00  0.00     0.039 C 
BRANCH  13  14
HETATM   14  C   UNL     1     -40.862 -43.900  11.872  1.00  0.00     0.124 C 
BRANCH  14  15
HETATM   15  N   UNL     1     -41.046 -42.470  11.741  1.00  0.00    -0.361 N 
HETATM   16  C   UNL     1     -42.081 -41.936  11.007  1.00  0.00     0.213 C 
HETATM   17  O   UNL     1     -42.908 -42.613  10.406  1.00  0.00    -0.274 OA
HETATM   18  C   UNL     1     -42.107 -40.432  10.984  1.00  0.00     0.117 C 
HETATM   19  H   UNL     1     -40.463 -41.860  12.299  1.00  0.00     0.162 HD
ENDBRANCH  14  15
ENDBRANCH  13  14
ENDBRANCH  12  13
ENDBRANCH  10  12
ENDBRANCH   4   8
BRANCH   1  20
HETATM   20  N   UNL     1     -42.008 -52.518  12.704  1.00  0.00    -0.362 N 
HETATM   21  C   UNL     1     -40.879 -53.418  12.929  1.00  0.00     0.156 C 
HETATM   22  C   UNL     1     -41.141 -54.184  14.254  1.00  0.00     0.136 C 
HETATM   23  C   UNL     1     -40.963 -53.284  15.478  1.00  0.00     0.041 C 
HETATM   24  O   UNL     1     -42.440 -54.826  14.269  1.00  0.00    -0.378 OA
HETATM   25  C   UNL     1     -43.525 -53.921  13.974  1.00  0.00     0.136 C 
HETATM   26  C   UNL     1     -43.297 -53.205  12.630  1.00  0.00     0.156 C 
HETATM   27  C   UNL     1     -44.821 -54.720  13.951  1.00  0.00     0.041 C 
ENDBRANCH   1  20
TORSDOF 6
ENDMDL
MODEL 8
REMARK VINA RESULT:      -5.6      2.341      7.743
REMARK  6 active torsions:
REMARK  status: ('A' for Active; 'I' for Inactive)
REMARK    1  A    between atoms: N_4  and  C_9 
REMARK    2  A    between atoms: C_12  and  C_16 
REMARK       I    between atoms: C_16  and  N_18 
REMARK    3  A    between atoms: N_18  and  C_19 
REMARK    4  A    between atoms: C_19  and  C_20 
REMARK    5  A    between atoms: C_20  and  C_21 
REMARK    6  A    between atoms: C_21  and  N_22 
REMARK       I    between atoms: N_22  and  C_23 
ROOT
HETATM    1  C   UNL     1     -41.551 -52.350  13.141  1.00  0.00     0.103 A 
HETATM    2  C   UNL     1     -40.299 -51.965  13.629  1.00  0.00     0.049 A 
HETATM    3  C   UNL     1     -39.680 -50.811  13.158  1.00  0.00     0.022 A 
HETATM    4  C   UNL     1     -40.331 -50.038  12.209  1.00  0.00     0.047 A 
HETATM    5  C   UNL     1     -41.551 -50.494  11.736  1.00  0.00     0.106 A 
HETATM    6  N   UNL     1     -42.161 -51.630  12.174  1.00  0.00    -0.351 N 
ATOM      7  HN  UNL     1     -43.055 -51.929  11.783  1.00  0.00     0.166 HD
ENDROOT
BRANCH   4   8
HETATM    8  C   UNL     1     -39.686 -48.796  11.735  1.00  0.00     0.253 C 
HETATM    9  O   UNL     1     -38.471 -48.666  11.838  1.00  0.00    -0.268 OA
HETATM   10  N   UNL     1     -40.519 -47.813  11.246  1.00  0.00    -0.357 N 
HETATM   11  H   UNL     1     -41.523 -47.915  11.323  1.00  0.00     0.162 HD
BRANCH  10  12
HETATM   12  C   UNL     1     -40.000 -46.512  10.861  1.00  0.00     0.124 C 
BRANCH  12  13
HETATM   13  C   UNL     1     -41.106 -45.509  10.542  1.00  0.00     0.039 C 
BRANCH  13  14
HETATM   14  C   UNL     1     -42.476 -46.037  10.957  1.00  0.00     0.124 C 
BRANCH  14  15
HETATM   15  N   UNL     1     -42.895 -45.515  12.241  1.00  0.00    -0.361 N 
HETATM   16  C   UNL     1     -42.981 -46.315  13.357  1.00  0.00     0.213 C 
HETATM   17  O   UNL     1     -42.728 -47.515  13.355  1.00  0.00    -0.274 OA
HETATM   18  C   UNL     1     -43.438 -45.595  14.597  1.00  0.00     0.117 C 
HETATM   19  H   UNL     1     -43.014 -44.514  12.333  1.00  0.00     0.162 HD
ENDBRANCH  14  15
ENDBRANCH  13  14
ENDBRANCH  12  13
ENDBRANCH  10  12
ENDBRANCH   4   8
BRANCH   1  20
HETATM   20  N   UNL     1     -42.130 -53.503  13.609  1.00  0.00    -0.362 N 
HETATM   21  C   UNL     1     -41.357 -54.520  14.317  1.00  0.00     0.156 C 
HETATM   22  C   UNL     1     -42.237 -55.060  15.478  1.00  0.00     0.136 C 
HETATM   23  C   UNL     1     -42.369 -54.042  16.613  1.00  0.00     0.041 C 
HETATM   24  O   UNL     1     -43.540 -55.497  15.021  1.00  0.00    -0.378 OA
HETATM   25  C   UNL     1     -44.246 -54.489  14.265  1.00  0.00     0.136 C 
HETATM   26  C   UNL     1     -43.399 -53.998  13.077  1.00  0.00     0.156 C 
HETATM   27  C   UNL     1     -45.561 -55.086  13.785  1.00  0.00     0.041 C 
ENDBRANCH   1  20
TORSDOF 6
ENDMDL
MODEL 9
REMARK VINA RESULT:      -5.6      1.924      2.309
REMARK  6 active torsions:
REMARK  status: ('A' for Active; 'I' for Inactive)
REMARK    1  A    between atoms: N_4  and  C_9 
REMARK    2  A    between atoms: C_12  and  C_16 
REMARK       I    between atoms: C_16  and  N_18 
REMARK    3  A    between atoms: N_18  and  C_19 
REMARK    4  A    between atoms: C_19  and  C_20 
REMARK    5  A    between atoms: C_20  and  C_21 
REMARK    6  A    between atoms: C_21  and  N_22 
REMARK       I    between atoms: N_22  and  C_23 
ROOT
HETATM    1  C   UNL     1     -40.318 -48.057  12.296  1.00  0.00     0.103 A 
HETATM    2  C   UNL     1     -40.577 -48.573  13.568  1.00  0.00     0.049 A 
HETATM    3  C   UNL     1     -40.711 -49.944  13.763  1.00  0.00     0.022 A 
HETATM    4  C   UNL     1     -40.567 -50.795  12.677  1.00  0.00     0.047 A 
HETATM    5  C   UNL     1     -40.352 -50.220  11.436  1.00  0.00     0.106 A 
HETATM    6  N   UNL     1     -40.235 -48.879  11.226  1.00  0.00    -0.351 N 
ATOM      7  HN  UNL     1     -40.090 -48.506  10.288  1.00  0.00     0.166 HD
ENDROOT
BRANCH   4   8
HETATM    8  C   UNL     1     -40.679 -52.252  12.893  1.00  0.00     0.253 C 
HETATM    9  O   UNL     1     -39.685 -52.961  12.773  1.00  0.00    -0.268 OA
HETATM   10  N   UNL     1     -41.937 -52.744  13.165  1.00  0.00    -0.357 N 
HETATM   11  H   UNL     1     -42.743 -52.134  13.103  1.00  0.00     0.162 HD
BRANCH  10  12
HETATM   12  C   UNL     1     -42.177 -54.172  13.280  1.00  0.00     0.124 C 
BRANCH  12  13
HETATM   13  C   UNL     1     -43.048 -54.525  14.484  1.00  0.00     0.039 C 
BRANCH  13  14
HETATM   14  C   UNL     1     -44.515 -54.670  14.090  1.00  0.00     0.124 C 
BRANCH  14  15
HETATM   15  N   UNL     1     -45.266 -53.456  14.330  1.00  0.00    -0.361 N 
HETATM   16  C   UNL     1     -45.822 -52.731  13.301  1.00  0.00     0.213 C 
HETATM   17  O   UNL     1     -45.720 -53.041  12.119  1.00  0.00    -0.274 OA
HETATM   18  C   UNL     1     -46.561 -51.498  13.746  1.00  0.00     0.117 C 
HETATM   19  H   UNL     1     -45.475 -53.206  15.288  1.00  0.00     0.162 HD
ENDBRANCH  14  15
ENDBRANCH  13  14
ENDBRANCH  12  13
ENDBRANCH  10  12
ENDBRANCH   4   8
BRANCH   1  20
HETATM   20  N   UNL     1     -40.209 -46.700  12.129  1.00  0.00    -0.362 N 
HETATM   21  C   UNL     1     -40.064 -46.095  10.807  1.00  0.00     0.156 C 
HETATM   22  C   UNL     1     -40.917 -44.797  10.784  1.00  0.00     0.136 C 
HETATM   23  C   UNL     1     -42.416 -45.100  10.733  1.00  0.00     0.041 C 
HETATM   24  O   UNL     1     -40.605 -43.916  11.891  1.00  0.00    -0.378 OA
HETATM   25  C   UNL     1     -40.691 -44.566  13.177  1.00  0.00     0.136 C 
HETATM   26  C   UNL     1     -39.798 -45.819  13.222  1.00  0.00     0.156 C 
HETATM   27  C   UNL     1     -40.276 -43.565  14.247  1.00  0.00     0.041 C 
ENDBRANCH   1  20
TORSDOF 6
ENDMDL
