MODEL 1
REMARK VINA RESULT:      -5.2      0.000      0.000
REMARK  2 active torsions:
REMARK  status: ('A' for Active; 'I' for Inactive)
REMARK    1  A    between atoms: N_2  and  C_3 
REMARK    2  A    between atoms: C_6  and  N_10 
ROOT
HETATM    1  C   UNL     1     -45.047 -47.839   8.533  1.00  0.00     0.023 A 
HETATM    2  C   UNL     1     -45.059 -47.654   9.911  1.00  0.00     0.028 A 
HETATM    3  C   UNL     1     -43.864 -47.489  10.613  1.00  0.00     0.050 A 
HETATM    4  C   UNL     1     -42.641 -47.558   9.951  1.00  0.00     0.103 A 
HETATM    5  N   UNL     1     -42.605 -47.832   8.631  1.00  0.00    -0.351 N 
ATOM      6  HN  UNL     1     -41.714 -47.935   8.144  1.00  0.00     0.166 HD
HETATM    7  C   UNL     1     -43.782 -47.968   7.966  1.00  0.00     0.113 A 
ENDROOT
BRANCH   4   8
HETATM    8  N   UNL     1     -41.454 -47.343  10.606  1.00  0.00    -0.363 N 
HETATM    9  C   UNL     1     -40.740 -48.379  11.345  1.00  0.00     0.150 C 
HETATM   10  C   UNL     1     -40.321 -47.837  12.723  1.00  0.00     0.187 C 
HETATM   11  O   UNL     1     -39.569 -46.619  12.607  1.00  0.00    -0.388 OA
HETATM   12  C   UNL     1     -40.374 -45.604  11.977  1.00  0.00     0.187 C 
HETATM   13  C   UNL     1     -40.817 -46.024  10.568  1.00  0.00     0.150 C 
ENDBRANCH   4   8
BRANCH   1  14
HETATM   14  N   UNL     1     -46.258 -48.006   7.849  1.00  0.00    -0.296 NA
HETATM   15  C   UNL     1     -46.488 -49.295   7.218  1.00  0.00     0.113 C 
HETATM   16  H   UNL     1     -46.430 -47.234   7.208  1.00  0.00     0.127 HD
ENDBRANCH   1  14
TORSDOF 2
ENDMDL
MODEL 2
REMARK VINA RESULT:      -5.0      6.684      7.343
REMARK  2 active torsions:
REMARK  status: ('A' for Active; 'I' for Inactive)
REMARK    1  A    between atoms: N_2  and  C_3 
REMARK    2  A    between atoms: C_6  and  N_10 
ROOT
HETATM    1  C   UNL     1     -44.920 -54.520  13.813  1.00  0.00     0.023 A 
HETATM    2  C   UNL     1     -43.908 -54.936  14.670  1.00  0.00     0.028 A 
HETATM    3  C   UNL     1     -42.580 -54.579  14.424  1.00  0.00     0.050 A 
HETATM    4  C   UNL     1     -42.246 -53.845  13.289  1.00  0.00     0.103 A 
HETATM    5  N   UNL     1     -43.201 -53.515  12.396  1.00  0.00    -0.351 N 
ATOM      6  HN  UNL     1     -42.962 -53.021  11.535  1.00  0.00     0.166 HD
HETATM    7  C   UNL     1     -44.488 -53.855  12.669  1.00  0.00     0.113 A 
ENDROOT
BRANCH   4   8
HETATM    8  N   UNL     1     -40.960 -53.431  13.052  1.00  0.00    -0.363 N 
HETATM    9  C   UNL     1     -39.788 -54.041  13.674  1.00  0.00     0.150 C 
HETATM   10  C   UNL     1     -38.862 -52.941  14.223  1.00  0.00     0.187 C 
HETATM   11  O   UNL     1     -38.518 -51.983  13.210  1.00  0.00    -0.388 OA
HETATM   12  C   UNL     1     -39.709 -51.334  12.726  1.00  0.00     0.187 C 
HETATM   13  C   UNL     1     -40.694 -52.340  12.113  1.00  0.00     0.150 C 
ENDBRANCH   4   8
BRANCH   1  14
HETATM   14  N   UNL     1     -46.245 -54.893  14.078  1.00  0.00    -0.296 NA
HETATM   15  C   UNL     1     -47.071 -53.933  14.792  1.00  0.00     0.113 C 
HETATM   16  H   UNL     1     -46.291 -55.819  14.497  1.00  0.00     0.127 HD
ENDBRANCH   1  14
TORSDOF 2
ENDMDL
MODEL 3
REMARK VINA RESULT:      -4.8      2.778      4.022
REMARK  2 active torsions:
REMARK  status: ('A' for Active; 'I' for Inactive)
REMARK    1  A    between atoms: N_2  and  C_3 
REMARK    2  A    between atoms: C_6  and  N_10 
ROOT
HETATM    1  C   UNL     1     -42.052 -46.549  10.228  1.00  0.00     0.023 A 
HETATM    2  C   UNL     1     -40.848 -46.395  10.906  1.00  0.00     0.028 A 
HETATM    3  C   UNL     1     -40.145 -47.512  11.363  1.00  0.00     0.050 A 
HETATM    4  C   UNL     1     -40.665 -48.792  11.190  1.00  0.00     0.103 A 
HETATM    5  N   UNL     1     -41.876 -48.955  10.620  1.00  0.00    -0.351 N 
ATOM      6  HN  UNL     1     -42.292 -49.883  10.533  1.00  0.00     0.166 HD
HETATM    7  C   UNL     1     -42.531 -47.854  10.165  1.00  0.00     0.113 A 
ENDROOT
BRANCH   4   8
HETATM    8  N   UNL     1     -39.970 -49.910  11.576  1.00  0.00    -0.363 N 
HETATM    9  C   UNL     1     -40.608 -51.171  11.942  1.00  0.00     0.150 C 
HETATM   10  C   UNL     1     -40.003 -51.697  13.255  1.00  0.00     0.187 C 
HETATM   11  O   UNL     1     -38.572 -51.800  13.175  1.00  0.00    -0.388 OA
HETATM   12  C   UNL     1     -38.000 -50.501  12.933  1.00  0.00     0.187 C 
HETATM   13  C   UNL     1     -38.506 -49.895  11.616  1.00  0.00     0.150 C 
ENDBRANCH   4   8
BRANCH   1  14
HETATM   14  N   UNL     1     -42.742 -45.413   9.782  1.00  0.00    -0.296 NA
HETATM   15  C   UNL     1     -43.945 -45.638   8.997  1.00  0.00     0.113 C 
HETATM   16  H   UNL     1     -42.113 -44.753   9.331  1.00  0.00     0.127 HD
ENDBRANCH   1  14
TORSDOF 2
ENDMDL
MODEL 4
REMARK VINA RESULT:      -4.8      2.376      2.786
REMARK  2 active torsions:
REMARK  status: ('A' for Active; 'I' for Inactive)
REMARK    1  A    between atoms: N_2  and  C_3 
REMARK    2  A    between atoms: C_6  and  N_10 
ROOT
HETATM    1  C   UNL     1     -44.350 -47.276   8.776  1.00  0.00     0.023 A 
HETATM    2  C   UNL     1     -43.149 -47.652   9.367  1.00  0.00     0.028 A 
HETATM    3  C   UNL     1     -42.410 -46.733  10.115  1.00  0.00     0.050 A 
HETATM    4  C   UNL     1     -42.840 -45.414  10.236  1.00  0.00     0.103 A 
HETATM    5  N   UNL     1     -43.951 -45.007   9.591  1.00  0.00    -0.351 N 
ATOM      6  HN  UNL     1     -44.250 -44.032   9.630  1.00  0.00     0.166 HD
HETATM    7  C   UNL     1     -44.664 -45.925   8.887  1.00  0.00     0.113 A 
ENDROOT
BRANCH   4   8
HETATM    8  N   UNL     1     -42.165 -44.506  11.012  1.00  0.00    -0.363 N 
HETATM    9  C   UNL     1     -40.829 -44.740  11.553  1.00  0.00     0.150 C 
HETATM   10  C   UNL     1     -40.802 -44.366  13.045  1.00  0.00     0.187 C 
HETATM   11  O   UNL     1     -41.263 -43.024  13.264  1.00  0.00    -0.388 OA
HETATM   12  C   UNL     1     -42.626 -42.895  12.818  1.00  0.00     0.187 C 
HETATM   13  C   UNL     1     -42.765 -43.206  11.321  1.00  0.00     0.150 C 
ENDBRANCH   4   8
BRANCH   1  14
HETATM   14  N   UNL     1     -45.073 -48.214   8.027  1.00  0.00    -0.296 NA
HETATM   15  C   UNL     1     -46.434 -48.494   8.456  1.00  0.00     0.113 C 
HETATM   16  H   UNL     1     -44.537 -49.067   7.886  1.00  0.00     0.127 HD
ENDBRANCH   1  14
TORSDOF 2
ENDMDL
MODEL 5
REMARK VINA RESULT:      -4.7      5.894      7.706
REMARK  2 active torsions:
REMARK  status: ('A' for Active; 'I' for Inactive)
REMARK    1  A    between atoms: N_2  and  C_3 
REMARK    2  A    between atoms: C_6  and  N_10 
ROOT
HETATM    1  C   UNL     1     -40.886 -51.766  12.175  1.00  0.00     0.023 A 
HETATM    2  C   UNL     1     -41.245 -53.059  12.538  1.00  0.00     0.028 A 
HETATM    3  C   UNL     1     -42.562 -53.353  12.900  1.00  0.00     0.050 A 
HETATM    4  C   UNL     1     -43.521 -52.346  12.952  1.00  0.00     0.103 A 
HETATM    5  N   UNL     1     -43.170 -51.069  12.696  1.00  0.00    -0.351 N 
ATOM      6  HN  UNL     1     -43.851 -50.314  12.779  1.00  0.00     0.166 HD
HETATM    7  C   UNL     1     -41.888 -50.812  12.325  1.00  0.00     0.113 A 
ENDROOT
BRANCH   4   8
HETATM    8  N   UNL     1     -44.833 -52.615  13.248  1.00  0.00    -0.363 N 
HETATM    9  C   UNL     1     -45.887 -51.603  13.241  1.00  0.00     0.150 C 
HETATM   10  C   UNL     1     -46.728 -51.723  14.524  1.00  0.00     0.187 C 
HETATM   11  O   UNL     1     -47.236 -53.054  14.702  1.00  0.00    -0.388 OA
HETATM   12  C   UNL     1     -46.143 -53.984  14.822  1.00  0.00     0.187 C 
HETATM   13  C   UNL     1     -45.255 -53.980  13.570  1.00  0.00     0.150 C 
ENDBRANCH   4   8
BRANCH   1  14
HETATM   14  N   UNL     1     -39.559 -51.494  11.818  1.00  0.00    -0.296 NA
HETATM   15  C   UNL     1     -39.148 -50.099  11.820  1.00  0.00     0.113 C 
HETATM   16  H   UNL     1     -39.306 -51.962  10.951  1.00  0.00     0.127 HD
ENDBRANCH   1  14
TORSDOF 2
ENDMDL
MODEL 6
REMARK VINA RESULT:      -4.6      1.780      2.429
REMARK  2 active torsions:
REMARK  status: ('A' for Active; 'I' for Inactive)
REMARK    1  A    between atoms: N_2  and  C_3 
REMARK    2  A    between atoms: C_6  and  N_10 
ROOT
HETATM    1  C   UNL     1     -45.416 -47.027   9.088  1.00  0.00     0.023 A 
HETATM    2  C   UNL     1     -44.975 -45.743   8.789  1.00  0.00     0.028 A 
HETATM    3  C   UNL     1     -43.832 -45.226   9.403  1.00  0.00     0.050 A 
HETATM    4  C   UNL     1     -43.147 -45.971  10.360  1.00  0.00     0.103 A 
HETATM    5  N   UNL     1     -43.615 -47.179  10.733  1.00  0.00    -0.351 N 
ATOM      6  HN  UNL     1     -43.152 -47.714  11.469  1.00  0.00     0.166 HD
HETATM    7  C   UNL     1     -44.716 -47.669  10.106  1.00  0.00     0.113 A 
ENDROOT
BRANCH   4   8
HETATM    8  N   UNL     1     -41.990 -45.512  10.937  1.00  0.00    -0.363 N 
HETATM    9  C   UNL     1     -41.934 -44.356  11.826  1.00  0.00     0.150 C 
HETATM   10  C   UNL     1     -40.779 -43.432  11.402  1.00  0.00     0.187 C 
HETATM   11  O   UNL     1     -39.532 -44.140  11.331  1.00  0.00    -0.388 OA
HETATM   12  C   UNL     1     -39.619 -45.189  10.350  1.00  0.00     0.187 C 
HETATM   13  C   UNL     1     -40.720 -46.201  10.697  1.00  0.00     0.150 C 
ENDBRANCH   4   8
BRANCH   1  14
HETATM   14  N   UNL     1     -46.567 -47.524   8.462  1.00  0.00    -0.296 NA
HETATM   15  C   UNL     1     -46.530 -48.907   8.014  1.00  0.00     0.113 C 
HETATM   16  H   UNL     1     -46.889 -46.896   7.730  1.00  0.00     0.127 HD
ENDBRANCH   1  14
TORSDOF 2
ENDMDL
MODEL 7
REMARK VINA RESULT:      -4.5      3.382      4.898
REMARK  2 active torsions:
REMARK  status: ('A' for Active; 'I' for Inactive)
REMARK    1  A    between atoms: N_2  and  C_3 
REMARK    2  A    between atoms: C_6  and  N_10 
ROOT
HETATM    1  C   UNL     1     -40.165 -50.406  11.805  1.00  0.00     0.023 A 
HETATM    2  C   UNL     1     -41.468 -49.926  11.729  1.00  0.00     0.028 A 
HETATM    3  C   UNL     1     -41.714 -48.600  11.369  1.00  0.00     0.050 A 
HETATM    4  C   UNL     1     -40.657 -47.725  11.130  1.00  0.00     0.103 A 
HETATM    5  N   UNL     1     -39.386 -48.146  11.293  1.00  0.00    -0.351 N 
ATOM      6  HN  UNL     1     -38.604 -47.503  11.170  1.00  0.00     0.166 HD
HETATM    7  C   UNL     1     -39.173 -49.447  11.623  1.00  0.00     0.113 A 
ENDROOT
BRANCH   4   8
HETATM    8  N   UNL     1     -40.869 -46.434  10.718  1.00  0.00    -0.363 N 
HETATM    9  C   UNL     1     -39.793 -45.476  10.480  1.00  0.00     0.150 C 
HETATM   10  C   UNL     1     -40.130 -44.139  11.164  1.00  0.00     0.187 C 
HETATM   11  O   UNL     1     -41.416 -43.645  10.758  1.00  0.00    -0.388 OA
HETATM   12  C   UNL     1     -42.442 -44.583  11.131  1.00  0.00     0.187 C 
HETATM   13  C   UNL     1     -42.229 -45.951  10.466  1.00  0.00     0.150 C 
ENDBRANCH   4   8
BRANCH   1  14
HETATM   14  N   UNL     1     -39.942 -51.739  12.172  1.00  0.00    -0.296 NA
HETATM   15  C   UNL     1     -40.460 -52.164  13.463  1.00  0.00     0.113 C 
HETATM   16  H   UNL     1     -38.965 -51.996  12.053  1.00  0.00     0.127 HD
ENDBRANCH   1  14
TORSDOF 2
ENDMDL
MODEL 8
REMARK VINA RESULT:      -4.5      4.242      5.435
REMARK  2 active torsions:
REMARK  status: ('A' for Active; 'I' for Inactive)
REMARK    1  A    between atoms: N_2  and  C_3 
REMARK    2  A    between atoms: C_6  and  N_10 
ROOT
HETATM    1  C   UNL     1     -40.244 -44.499  11.122  1.00  0.00     0.023 A 
HETATM    2  C   UNL     1     -40.024 -44.771  12.468  1.00  0.00     0.028 A 
HETATM    3  C   UNL     1     -39.800 -46.081  12.897  1.00  0.00     0.050 A 
HETATM    4  C   UNL     1     -39.845 -47.138  11.991  1.00  0.00     0.103 A 
HETATM    5  N   UNL     1     -40.153 -46.904  10.699  1.00  0.00    -0.351 N 
ATOM      6  HN  UNL     1     -40.238 -47.674  10.035  1.00  0.00     0.166 HD
HETATM    7  C   UNL     1     -40.345 -45.619  10.302  1.00  0.00     0.113 A 
ENDROOT
BRANCH   4   8
HETATM    8  N   UNL     1     -39.572 -48.427  12.374  1.00  0.00    -0.363 N 
HETATM    9  C   UNL     1     -38.223 -48.924  12.631  1.00  0.00     0.150 C 
HETATM   10  C   UNL     1     -38.023 -50.271  11.914  1.00  0.00     0.187 C 
HETATM   11  O   UNL     1     -39.042 -51.218  12.269  1.00  0.00    -0.388 OA
HETATM   12  C   UNL     1     -40.334 -50.717  11.879  1.00  0.00     0.187 C 
HETATM   13  C   UNL     1     -40.660 -49.387  12.573  1.00  0.00     0.150 C 
ENDBRANCH   4   8
BRANCH   1  14
HETATM   14  N   UNL     1     -40.470 -43.177  10.715  1.00  0.00    -0.296 NA
HETATM   15  C   UNL     1     -40.558 -42.170  11.760  1.00  0.00     0.113 C 
HETATM   16  H   UNL     1     -41.251 -43.119  10.066  1.00  0.00     0.127 HD
ENDBRANCH   1  14
TORSDOF 2
ENDMDL
MODEL 9
REMARK VINA RESULT:      -4.5      2.699      5.628
REMARK  2 active torsions:
REMARK  status: ('A' for Active; 'I' for Inactive)
REMARK    1  A    between atoms: N_2  and  C_3 
REMARK    2  A    between atoms: C_6  and  N_10 
ROOT
HETATM    1  C   UNL     1     -39.076 -49.609  11.892  1.00  0.00     0.023 A 
HETATM    2  C   UNL     1     -39.080 -48.241  12.145  1.00  0.00     0.028 A 
HETATM    3  C   UNL     1     -40.127 -47.440  11.684  1.00  0.00     0.050 A 
HETATM    4  C   UNL     1     -41.154 -47.990  10.922  1.00  0.00     0.103 A 
HETATM    5  N   UNL     1     -41.118 -49.295  10.586  1.00  0.00    -0.351 N 
ATOM      6  HN  UNL     1     -41.837 -49.700   9.986  1.00  0.00     0.166 HD
HETATM    7  C   UNL     1     -40.100 -50.059  11.064  1.00  0.00     0.113 A 
ENDROOT
BRANCH   4   8
HETATM    8  N   UNL     1     -42.224 -47.239  10.506  1.00  0.00    -0.363 N 
HETATM    9  C   UNL     1     -43.073 -47.600   9.374  1.00  0.00     0.150 C 
HETATM   10  C   UNL     1     -43.276 -46.374   8.467  1.00  0.00     0.187 C 
HETATM   11  O   UNL     1     -43.779 -45.248   9.202  1.00  0.00    -0.388 OA
HETATM   12  C   UNL     1     -42.837 -44.870  10.224  1.00  0.00     0.187 C 
HETATM   13  C   UNL     1     -42.590 -46.012  11.218  1.00  0.00     0.150 C 
ENDBRANCH   4   8
BRANCH   1  14
HETATM   14  N   UNL     1     -38.013 -50.393  12.361  1.00  0.00    -0.296 NA
HETATM   15  C   UNL     1     -37.798 -50.422  13.799  1.00  0.00     0.113 C 
HETATM   16  H   UNL     1     -37.155 -50.194  11.853  1.00  0.00     0.127 HD
ENDBRANCH   1  14
TORSDOF 2
ENDMDL
