MODEL 1
REMARK VINA RESULT:      -5.7      0.000      0.000
REMARK  4 active torsions:
REMARK  status: ('A' for Active; 'I' for Inactive)
REMARK    1  A    between atoms: S_2  and  N_5 
REMARK    2  A    between atoms: N_5  and  C_6 
REMARK    3  A    between atoms: C_6  and  C_7 
REMARK    4  A    between atoms: C_10  and  N_14 
ROOT
HETATM    1  C   UNL     1     -41.964 -49.537  11.856  1.00  0.00    -0.029 A 
HETATM    2  C   UNL     1     -41.135 -50.651  11.755  1.00  0.00     0.013 A 
HETATM    3  C   UNL     1     -41.548 -51.877  12.281  1.00  0.00     0.049 A 
HETATM    4  C   UNL     1     -42.785 -51.992  12.909  1.00  0.00     0.103 A 
HETATM    5  N   UNL     1     -43.570 -50.898  13.040  1.00  0.00    -0.352 N 
ATOM      6  HN  UNL     1     -44.467 -50.965  13.520  1.00  0.00     0.166 HD
HETATM    7  C   UNL     1     -43.158 -49.715  12.529  1.00  0.00     0.098 A 
ENDROOT
BRANCH   1   8
HETATM    8  C   UNL     1     -41.598 -48.215  11.242  1.00  0.00     0.144 C 
BRANCH   8   9
HETATM    9  N   UNL     1     -41.866 -48.227   9.785  1.00  0.00    -0.216 NA
HETATM   10  H   UNL     1     -41.024 -47.988   9.265  1.00  0.00     0.139 HD
BRANCH   9  11
HETATM   11  S   UNL     1     -43.149 -47.236   9.326  1.00  0.00     0.205 S 
HETATM   12  C   UNL     1     -43.479 -47.845   7.686  1.00  0.00     0.179 C 
HETATM   13  O   UNL     1     -42.609 -45.901   9.221  1.00  0.00    -0.212 OA
HETATM   14  O   UNL     1     -44.272 -47.540  10.181  1.00  0.00    -0.212 OA
ENDBRANCH   9  11
ENDBRANCH   8   9
ENDBRANCH   1   8
BRANCH   4  15
HETATM   15  N   UNL     1     -43.239 -53.169  13.467  1.00  0.00    -0.363 N 
HETATM   16  C   UNL     1     -44.411 -53.793  12.823  1.00  0.00     0.150 C 
HETATM   17  C   UNL     1     -45.171 -54.628  13.863  1.00  0.00     0.187 C 
HETATM   18  O   UNL     1     -44.316 -55.611  14.473  1.00  0.00    -0.388 OA
HETATM   19  C   UNL     1     -43.212 -54.968  15.127  1.00  0.00     0.187 C 
HETATM   20  C   UNL     1     -42.369 -54.134  14.146  1.00  0.00     0.150 C 
ENDBRANCH   4  15
TORSDOF 4
ENDMDL
MODEL 2
REMARK VINA RESULT:      -5.6      3.354      3.897
REMARK  4 active torsions:
REMARK  status: ('A' for Active; 'I' for Inactive)
REMARK    1  A    between atoms: S_2  and  N_5 
REMARK    2  A    between atoms: N_5  and  C_6 
REMARK    3  A    between atoms: C_6  and  C_7 
REMARK    4  A    between atoms: C_10  and  N_14 
ROOT
HETATM    1  C   UNL     1     -41.756 -50.212  12.175  1.00  0.00    -0.029 A 
HETATM    2  C   UNL     1     -42.888 -49.691  12.795  1.00  0.00     0.013 A 
HETATM    3  C   UNL     1     -43.837 -50.552  13.350  1.00  0.00     0.049 A 
HETATM    4  C   UNL     1     -43.658 -51.931  13.288  1.00  0.00     0.103 A 
HETATM    5  N   UNL     1     -42.576 -52.434  12.651  1.00  0.00    -0.352 N 
ATOM      6  HN  UNL     1     -42.447 -53.443  12.577  1.00  0.00     0.166 HD
HETATM    7  C   UNL     1     -41.666 -51.590  12.113  1.00  0.00     0.098 A 
ENDROOT
BRANCH   1   8
HETATM    8  C   UNL     1     -40.670 -49.329  11.627  1.00  0.00     0.144 C 
BRANCH   8   9
HETATM    9  N   UNL     1     -39.626 -50.141  10.961  1.00  0.00    -0.216 NA
HETATM   10  H   UNL     1     -39.966 -51.085  10.785  1.00  0.00     0.139 HD
BRANCH   9  11
HETATM   11  S   UNL     1     -38.165 -50.182  11.798  1.00  0.00     0.205 S 
HETATM   12  C   UNL     1     -38.376 -48.815  12.919  1.00  0.00     0.179 C 
HETATM   13  O   UNL     1     -37.142 -49.837  10.839  1.00  0.00    -0.212 OA
HETATM   14  O   UNL     1     -38.120 -51.412  12.552  1.00  0.00    -0.212 OA
ENDBRANCH   9  11
ENDBRANCH   8   9
ENDBRANCH   1   8
BRANCH   4  15
HETATM   15  N   UNL     1     -44.570 -52.832  13.799  1.00  0.00    -0.363 N 
HETATM   16  C   UNL     1     -44.150 -54.246  13.829  1.00  0.00     0.150 C 
HETATM   17  C   UNL     1     -45.394 -55.141  13.763  1.00  0.00     0.187 C 
HETATM   18  O   UNL     1     -46.315 -54.840  14.828  1.00  0.00    -0.388 OA
HETATM   19  C   UNL     1     -46.737 -53.469  14.742  1.00  0.00     0.187 C 
HETATM   20  C   UNL     1     -45.548 -52.495  14.837  1.00  0.00     0.150 C 
ENDBRANCH   4  15
TORSDOF 4
ENDMDL
MODEL 3
REMARK VINA RESULT:      -5.5      2.586      3.023
REMARK  4 active torsions:
REMARK  status: ('A' for Active; 'I' for Inactive)
REMARK    1  A    between atoms: S_2  and  N_5 
REMARK    2  A    between atoms: N_5  and  C_6 
REMARK    3  A    between atoms: C_6  and  C_7 
REMARK    4  A    between atoms: C_10  and  N_14 
ROOT
HETATM    1  C   UNL     1     -42.166 -48.244  11.347  1.00  0.00    -0.029 A 
HETATM    2  C   UNL     1     -42.652 -48.776  12.538  1.00  0.00     0.013 A 
HETATM    3  C   UNL     1     -42.109 -49.958  13.047  1.00  0.00     0.049 A 
HETATM    4  C   UNL     1     -41.084 -50.611  12.367  1.00  0.00     0.103 A 
HETATM    5  N   UNL     1     -40.642 -50.112  11.190  1.00  0.00    -0.352 N 
ATOM      6  HN  UNL     1     -39.910 -50.595  10.671  1.00  0.00     0.166 HD
HETATM    7  C   UNL     1     -41.178 -48.968  10.706  1.00  0.00     0.098 A 
ENDROOT
BRANCH   1   8
HETATM    8  C   UNL     1     -42.664 -46.938  10.797  1.00  0.00     0.144 C 
BRANCH   8   9
HETATM    9  N   UNL     1     -44.115 -47.015  10.509  1.00  0.00    -0.216 NA
HETATM   10  H   UNL     1     -44.462 -47.959  10.671  1.00  0.00     0.139 HD
BRANCH   9  11
HETATM   11  S   UNL     1     -44.526 -46.489   8.962  1.00  0.00     0.205 S 
HETATM   12  C   UNL     1     -43.726 -47.722   7.958  1.00  0.00     0.179 C 
HETATM   13  O   UNL     1     -43.846 -45.228   8.772  1.00  0.00    -0.212 OA
HETATM   14  O   UNL     1     -45.957 -46.612   8.817  1.00  0.00    -0.212 OA
ENDBRANCH   9  11
ENDBRANCH   8   9
ENDBRANCH   1   8
BRANCH   4  15
HETATM   15  N   UNL     1     -40.523 -51.792  12.807  1.00  0.00    -0.363 N 
HETATM   16  C   UNL     1     -40.941 -53.019  12.103  1.00  0.00     0.150 C 
HETATM   17  C   UNL     1     -40.804 -54.215  13.055  1.00  0.00     0.187 C 
HETATM   18  O   UNL     1     -39.464 -54.329  13.566  1.00  0.00    -0.388 OA
HETATM   19  C   UNL     1     -39.106 -53.136  14.282  1.00  0.00     0.187 C 
HETATM   20  C   UNL     1     -39.180 -51.886  13.387  1.00  0.00     0.150 C 
ENDBRANCH   4  15
TORSDOF 4
ENDMDL
MODEL 4
REMARK VINA RESULT:      -5.5      2.585      7.302
REMARK  4 active torsions:
REMARK  status: ('A' for Active; 'I' for Inactive)
REMARK    1  A    between atoms: S_2  and  N_5 
REMARK    2  A    between atoms: N_5  and  C_6 
REMARK    3  A    between atoms: C_6  and  C_7 
REMARK    4  A    between atoms: C_10  and  N_14 
ROOT
HETATM    1  C   UNL     1     -42.456 -51.634  13.022  1.00  0.00    -0.029 A 
HETATM    2  C   UNL     1     -43.299 -50.596  13.409  1.00  0.00     0.013 A 
HETATM    3  C   UNL     1     -43.223 -49.359  12.764  1.00  0.00     0.049 A 
HETATM    4  C   UNL     1     -42.307 -49.158  11.735  1.00  0.00     0.103 A 
HETATM    5  N   UNL     1     -41.463 -50.157  11.389  1.00  0.00    -0.352 N 
ATOM      6  HN  UNL     1     -40.771 -50.013  10.654  1.00  0.00     0.166 HD
HETATM    7  C   UNL     1     -41.543 -51.349  12.024  1.00  0.00     0.098 A 
ENDROOT
BRANCH   1   8
HETATM    8  C   UNL     1     -42.548 -53.004  13.634  1.00  0.00     0.144 C 
BRANCH   8   9
HETATM    9  N   UNL     1     -43.780 -53.127  14.447  1.00  0.00    -0.216 NA
HETATM   10  H   UNL     1     -43.548 -53.287  15.426  1.00  0.00     0.139 HD
BRANCH   9  11
HETATM   11  S   UNL     1     -44.843 -54.309  13.888  1.00  0.00     0.205 S 
HETATM   12  C   UNL     1     -46.394 -53.691  14.507  1.00  0.00     0.179 C 
HETATM   13  O   UNL     1     -44.512 -55.519  14.604  1.00  0.00    -0.212 OA
HETATM   14  O   UNL     1     -44.850 -54.253  12.446  1.00  0.00    -0.212 OA
ENDBRANCH   9  11
ENDBRANCH   8   9
ENDBRANCH   1   8
BRANCH   4  15
HETATM   15  N   UNL     1     -42.169 -47.953  11.075  1.00  0.00    -0.363 N 
HETATM   16  C   UNL     1     -40.837 -47.322  11.132  1.00  0.00     0.150 C 
HETATM   17  C   UNL     1     -40.995 -45.803  10.979  1.00  0.00     0.187 C 
HETATM   18  O   UNL     1     -41.689 -45.467   9.764  1.00  0.00    -0.388 OA
HETATM   19  C   UNL     1     -42.996 -46.061   9.761  1.00  0.00     0.187 C 
HETATM   20  C   UNL     1     -42.930 -47.595   9.875  1.00  0.00     0.150 C 
ENDBRANCH   4  15
TORSDOF 4
ENDMDL
MODEL 5
REMARK VINA RESULT:      -5.3      2.972      7.455
REMARK  4 active torsions:
REMARK  status: ('A' for Active; 'I' for Inactive)
REMARK    1  A    between atoms: S_2  and  N_5 
REMARK    2  A    between atoms: N_5  and  C_6 
REMARK    3  A    between atoms: C_6  and  C_7 
REMARK    4  A    between atoms: C_10  and  N_14 
ROOT
HETATM    1  C   UNL     1     -41.625 -50.507  12.059  1.00  0.00    -0.029 A 
HETATM    2  C   UNL     1     -42.598 -49.649  12.563  1.00  0.00     0.013 A 
HETATM    3  C   UNL     1     -42.534 -48.281  12.285  1.00  0.00     0.049 A 
HETATM    4  C   UNL     1     -41.500 -47.770  11.505  1.00  0.00     0.103 A 
HETATM    5  N   UNL     1     -40.535 -48.602  11.051  1.00  0.00    -0.352 N 
ATOM      6  HN  UNL     1     -39.759 -48.235  10.500  1.00  0.00     0.166 HD
HETATM    7  C   UNL     1     -40.605 -49.923  11.330  1.00  0.00     0.098 A 
ENDROOT
BRANCH   1   8
HETATM    8  C   UNL     1     -41.689 -51.993  12.269  1.00  0.00     0.144 C 
BRANCH   8   9
HETATM    9  N   UNL     1     -42.961 -52.538  11.742  1.00  0.00    -0.216 NA
HETATM   10  H   UNL     1     -43.469 -51.822  11.224  1.00  0.00     0.139 HD
BRANCH   9  11
HETATM   11  S   UNL     1     -43.944 -53.225  12.925  1.00  0.00     0.205 S 
HETATM   12  C   UNL     1     -45.214 -51.986  13.075  1.00  0.00     0.179 C 
HETATM   13  O   UNL     1     -43.164 -53.234  14.141  1.00  0.00    -0.212 OA
HETATM   14  O   UNL     1     -44.518 -54.431  12.379  1.00  0.00    -0.212 OA
ENDBRANCH   9  11
ENDBRANCH   8   9
ENDBRANCH   1   8
BRANCH   4  15
HETATM   15  N   UNL     1     -41.370 -46.428  11.214  1.00  0.00    -0.363 N 
HETATM   16  C   UNL     1     -40.057 -45.990  10.703  1.00  0.00     0.150 C 
HETATM   17  C   UNL     1     -39.847 -44.512  11.058  1.00  0.00     0.187 C 
HETATM   18  O   UNL     1     -40.914 -43.693  10.546  1.00  0.00    -0.388 OA
HETATM   19  C   UNL     1     -42.170 -44.117  11.098  1.00  0.00     0.187 C 
HETATM   20  C   UNL     1     -42.480 -45.586  10.757  1.00  0.00     0.150 C 
ENDBRANCH   4  15
TORSDOF 4
ENDMDL
MODEL 6
REMARK VINA RESULT:      -5.2      1.246      2.102
REMARK  4 active torsions:
REMARK  status: ('A' for Active; 'I' for Inactive)
REMARK    1  A    between atoms: S_2  and  N_5 
REMARK    2  A    between atoms: N_5  and  C_6 
REMARK    3  A    between atoms: C_6  and  C_7 
REMARK    4  A    between atoms: C_10  and  N_14 
ROOT
HETATM    1  C   UNL     1     -41.906 -49.516  11.854  1.00  0.00    -0.029 A 
HETATM    2  C   UNL     1     -43.064 -49.415  12.622  1.00  0.00     0.013 A 
HETATM    3  C   UNL     1     -43.579 -50.547  13.258  1.00  0.00     0.049 A 
HETATM    4  C   UNL     1     -42.942 -51.778  13.128  1.00  0.00     0.103 A 
HETATM    5  N   UNL     1     -41.841 -51.880  12.350  1.00  0.00    -0.352 N 
ATOM      6  HN  UNL     1     -41.381 -52.781  12.227  1.00  0.00     0.166 HD
HETATM    7  C   UNL     1     -41.353 -50.778  11.736  1.00  0.00     0.098 A 
ENDROOT
BRANCH   1   8
HETATM    8  C   UNL     1     -41.271 -48.316  11.210  1.00  0.00     0.144 C 
BRANCH   8   9
HETATM    9  N   UNL     1     -41.854 -48.077   9.870  1.00  0.00    -0.216 NA
HETATM   10  H   UNL     1     -41.119 -47.907   9.185  1.00  0.00     0.139 HD
BRANCH   9  11
HETATM   11  S   UNL     1     -42.992 -46.835   9.840  1.00  0.00     0.205 S 
HETATM   12  C   UNL     1     -42.507 -45.895  11.273  1.00  0.00     0.179 C 
HETATM   13  O   UNL     1     -44.270 -47.453  10.106  1.00  0.00    -0.212 OA
HETATM   14  O   UNL     1     -42.758 -46.047   8.654  1.00  0.00    -0.212 OA
ENDBRANCH   9  11
ENDBRANCH   8   9
ENDBRANCH   1   8
BRANCH   4  15
HETATM   15  N   UNL     1     -43.415 -52.935  13.714  1.00  0.00    -0.363 N 
HETATM   16  C   UNL     1     -42.630 -53.465  14.845  1.00  0.00     0.150 C 
HETATM   17  C   UNL     1     -42.843 -54.983  14.936  1.00  0.00     0.187 C 
HETATM   18  O   UNL     1     -44.238 -55.311  15.059  1.00  0.00    -0.388 OA
HETATM   19  C   UNL     1     -44.963 -54.819  13.921  1.00  0.00     0.187 C 
HETATM   20  C   UNL     1     -44.835 -53.292  13.775  1.00  0.00     0.150 C 
ENDBRANCH   4  15
TORSDOF 4
ENDMDL
MODEL 7
REMARK VINA RESULT:      -5.1      2.465      3.212
REMARK  4 active torsions:
REMARK  status: ('A' for Active; 'I' for Inactive)
REMARK    1  A    between atoms: S_2  and  N_5 
REMARK    2  A    between atoms: N_5  and  C_6 
REMARK    3  A    between atoms: C_6  and  C_7 
REMARK    4  A    between atoms: C_10  and  N_14 
ROOT
HETATM    1  C   UNL     1     -41.855 -48.246  11.119  1.00  0.00    -0.029 A 
HETATM    2  C   UNL     1     -42.866 -48.505  12.041  1.00  0.00     0.013 A 
HETATM    3  C   UNL     1     -42.934 -49.752  12.667  1.00  0.00     0.049 A 
HETATM    4  C   UNL     1     -41.997 -50.739  12.374  1.00  0.00     0.103 A 
HETATM    5  N   UNL     1     -41.041 -50.496  11.449  1.00  0.00    -0.352 N 
ATOM      6  HN  UNL     1     -40.364 -51.220  11.208  1.00  0.00     0.166 HD
HETATM    7  C   UNL     1     -40.987 -49.286  10.847  1.00  0.00     0.098 A 
ENDROOT
BRANCH   1   8
HETATM    8  C   UNL     1     -41.694 -46.899  10.473  1.00  0.00     0.144 C 
BRANCH   8   9
HETATM    9  N   UNL     1     -40.274 -46.477  10.498  1.00  0.00    -0.216 NA
HETATM   10  H   UNL     1     -39.753 -47.016  11.187  1.00  0.00     0.139 HD
BRANCH   9  11
HETATM   11  S   UNL     1     -40.064 -44.825  10.751  1.00  0.00     0.205 S 
HETATM   12  C   UNL     1     -41.735 -44.318  11.097  1.00  0.00     0.179 C 
HETATM   13  O   UNL     1     -39.669 -44.270   9.478  1.00  0.00    -0.212 OA
HETATM   14  O   UNL     1     -39.261 -44.658  11.939  1.00  0.00    -0.212 OA
ENDBRANCH   9  11
ENDBRANCH   8   9
ENDBRANCH   1   8
BRANCH   4  15
HETATM   15  N   UNL     1     -42.025 -51.996  12.944  1.00  0.00    -0.363 N 
HETATM   16  C   UNL     1     -40.736 -52.707  13.028  1.00  0.00     0.150 C 
HETATM   17  C   UNL     1     -40.996 -54.220  13.028  1.00  0.00     0.187 C 
HETATM   18  O   UNL     1     -41.881 -54.600  14.097  1.00  0.00    -0.388 OA
HETATM   19  C   UNL     1     -43.140 -53.923  13.959  1.00  0.00     0.187 C 
HETATM   20  C   UNL     1     -42.976 -52.393  13.986  1.00  0.00     0.150 C 
ENDBRANCH   4  15
TORSDOF 4
ENDMDL
MODEL 8
REMARK VINA RESULT:      -5.0      3.453      7.071
REMARK  4 active torsions:
REMARK  status: ('A' for Active; 'I' for Inactive)
REMARK    1  A    between atoms: S_2  and  N_5 
REMARK    2  A    between atoms: N_5  and  C_6 
REMARK    3  A    between atoms: C_6  and  C_7 
REMARK    4  A    between atoms: C_10  and  N_14 
ROOT
HETATM    1  C   UNL     1     -40.552 -50.149  12.489  1.00  0.00    -0.029 A 
HETATM    2  C   UNL     1     -41.662 -49.575  13.104  1.00  0.00     0.013 A 
HETATM    3  C   UNL     1     -42.508 -48.737  12.374  1.00  0.00     0.049 A 
HETATM    4  C   UNL     1     -42.248 -48.472  11.032  1.00  0.00     0.103 A 
HETATM    5  N   UNL     1     -41.148 -49.001  10.449  1.00  0.00    -0.352 N 
ATOM      6  HN  UNL     1     -40.934 -48.793   9.474  1.00  0.00     0.166 HD
HETATM    7  C   UNL     1     -40.334 -49.807  11.168  1.00  0.00     0.098 A 
ENDROOT
BRANCH   1   8
HETATM    8  C   UNL     1     -39.654 -51.114  13.210  1.00  0.00     0.144 C 
BRANCH   8   9
HETATM    9  N   UNL     1     -40.441 -51.974  14.123  1.00  0.00    -0.216 NA
HETATM   10  H   UNL     1     -40.023 -51.987  15.051  1.00  0.00     0.139 HD
BRANCH   9  11
HETATM   11  S   UNL     1     -40.663 -53.542  13.549  1.00  0.00     0.205 S 
HETATM   12  C   UNL     1     -39.188 -54.337  14.152  1.00  0.00     0.179 C 
HETATM   13  O   UNL     1     -40.586 -53.459  12.109  1.00  0.00    -0.212 OA
HETATM   14  O   UNL     1     -41.812 -54.102  14.220  1.00  0.00    -0.212 OA
ENDBRANCH   9  11
ENDBRANCH   8   9
ENDBRANCH   1   8
BRANCH   4  15
HETATM   15  N   UNL     1     -43.034 -47.637  10.264  1.00  0.00    -0.363 N 
HETATM   16  C   UNL     1     -44.493 -47.758  10.446  1.00  0.00     0.150 C 
HETATM   17  C   UNL     1     -45.197 -47.324   9.153  1.00  0.00     0.187 C 
HETATM   18  O   UNL     1     -44.821 -45.989   8.772  1.00  0.00    -0.388 OA
HETATM   19  C   UNL     1     -43.402 -45.918   8.562  1.00  0.00     0.187 C 
HETATM   20  C   UNL     1     -42.613 -46.303   9.826  1.00  0.00     0.150 C 
ENDBRANCH   4  15
TORSDOF 4
ENDMDL
MODEL 9
REMARK VINA RESULT:      -4.9      4.188      5.242
REMARK  4 active torsions:
REMARK  status: ('A' for Active; 'I' for Inactive)
REMARK    1  A    between atoms: S_2  and  N_5 
REMARK    2  A    between atoms: N_5  and  C_6 
REMARK    3  A    between atoms: C_6  and  C_7 
REMARK    4  A    between atoms: C_10  and  N_14 
ROOT
HETATM    1  C   UNL     1     -41.460 -46.772  10.732  1.00  0.00    -0.029 A 
HETATM    2  C   UNL     1     -42.015 -48.047  10.679  1.00  0.00     0.013 A 
HETATM    3  C   UNL     1     -41.289 -49.144  11.151  1.00  0.00     0.049 A 
HETATM    4  C   UNL     1     -40.010 -48.968  11.673  1.00  0.00     0.103 A 
HETATM    5  N   UNL     1     -39.460 -47.732  11.686  1.00  0.00    -0.352 N 
ATOM      6  HN  UNL     1     -38.514 -47.596  12.043  1.00  0.00     0.166 HD
HETATM    7  C   UNL     1     -40.171 -46.679  11.224  1.00  0.00     0.098 A 
ENDROOT
BRANCH   1   8
HETATM    8  C   UNL     1     -42.228 -45.552  10.306  1.00  0.00     0.144 C 
BRANCH   8   9
HETATM    9  N   UNL     1     -41.393 -44.337  10.449  1.00  0.00    -0.216 NA
HETATM   10  H   UNL     1     -40.490 -44.570  10.858  1.00  0.00     0.139 HD
BRANCH   9  11
HETATM   11  S   UNL     1     -42.139 -43.103  11.319  1.00  0.00     0.205 S 
HETATM   12  C   UNL     1     -40.728 -42.142  11.826  1.00  0.00     0.179 C 
HETATM   13  O   UNL     1     -42.715 -43.726  12.488  1.00  0.00    -0.212 OA
HETATM   14  O   UNL     1     -42.935 -42.329  10.397  1.00  0.00    -0.212 OA
ENDBRANCH   9  11
ENDBRANCH   8   9
ENDBRANCH   1   8
BRANCH   4  15
HETATM   15  N   UNL     1     -39.235 -50.013  12.134  1.00  0.00    -0.363 N 
HETATM   16  C   UNL     1     -39.960 -51.201  12.624  1.00  0.00     0.150 C 
HETATM   17  C   UNL     1     -39.092 -51.927  13.660  1.00  0.00     0.187 C 
HETATM   18  O   UNL     1     -37.806 -52.277  13.116  1.00  0.00    -0.388 OA
HETATM   19  C   UNL     1     -37.112 -51.095  12.691  1.00  0.00     0.187 C 
HETATM   20  C   UNL     1     -37.899 -50.321  11.617  1.00  0.00     0.150 C 
ENDBRANCH   4  15
TORSDOF 4
ENDMDL
