MODEL 1
REMARK VINA RESULT:      -6.2      0.000      0.000
REMARK  5 active torsions:
REMARK  status: ('A' for Active; 'I' for Inactive)
REMARK    1  A    between atoms: C_2  and  C_3 
REMARK    2  A    between atoms: C_3  and  C_4 
REMARK    3  A    between atoms: C_3  and  C_6 
REMARK    4  A    between atoms: C_8  and  N_12 
REMARK       I    between atoms: N_12  and  C_13 
REMARK       I    between atoms: C_13  and  N_15 
REMARK    5  A    between atoms: N_15  and  C_16 
ROOT
HETATM    1  N   UNL     1     -42.390 -50.035  11.985  1.00  0.00    -0.338 N 
HETATM    2  C   UNL     1     -41.122 -49.889  11.515  1.00  0.00     0.322 C 
HETATM    3  O   UNL     1     -40.192 -50.622  11.831  1.00  0.00    -0.247 OA
HETATM    4  N   UNL     1     -40.936 -48.925  10.567  1.00  0.00    -0.295 N 
HETATM    5  H   UNL     1     -43.001 -49.236  11.822  1.00  0.00     0.164 HD
HETATM    6  H   UNL     1     -40.026 -48.967  10.136  1.00  0.00     0.172 HD
ENDROOT
BRANCH   1   7
HETATM    7  C   UNL     1     -42.806 -51.077  12.897  1.00  0.00     0.090 C 
HETATM    8  C   UNL     1     -42.946 -52.404  12.155  1.00  0.00     0.057 C 
HETATM    9  C   UNL     1     -43.355 -53.518  13.121  1.00  0.00     0.127 C 
HETATM   10  O   UNL     1     -44.594 -53.143  13.750  1.00  0.00    -0.385 OA
HETATM   11  C   UNL     1     -44.586 -51.894  14.445  1.00  0.00     0.170 C 
HETATM   12  C   UNL     1     -44.129 -50.735  13.570  1.00  0.00     0.051 C 
BRANCH   9  13
HETATM   13  C   UNL     1     -42.264 -53.948  14.151  1.00  0.00     0.014 C 
BRANCH  13  14
HETATM   14  C   UNL     1     -42.796 -55.104  15.033  1.00  0.00     0.002 C 
HETATM   15  C   UNL     1     -41.853 -55.512  16.159  1.00  0.00     0.005 C 
ENDBRANCH  13  14
BRANCH  13  16
HETATM   16  C   UNL     1     -40.889 -54.262  13.509  1.00  0.00     0.002 C 
HETATM   17  C   UNL     1     -39.730 -53.378  13.952  1.00  0.00     0.005 C 
ENDBRANCH  13  16
ENDBRANCH   9  13
ENDBRANCH   1   7
BRANCH   4  18
HETATM   18  C   UNL     1     -41.872 -48.007  10.083  1.00  0.00     0.108 A 
HETATM   19  C   UNL     1     -41.985 -46.784  10.734  1.00  0.00     0.049 A 
HETATM   20  C   UNL     1     -42.877 -45.840  10.231  1.00  0.00     0.005 A 
HETATM   21  C   UNL     1     -43.652 -46.152   9.120  1.00  0.00     0.017 A 
HETATM   22  C   UNL     1     -43.500 -47.402   8.553  1.00  0.00     0.089 A 
HETATM   23  N   UNL     1     -42.622 -48.324   9.002  1.00  0.00    -0.352 N 
ATOM     24  HN  UNL     1     -42.527 -49.229   8.541  1.00  0.00     0.166 HD
ENDBRANCH   4  18
TORSDOF 5
ENDMDL
MODEL 2
REMARK VINA RESULT:      -6.0      2.038      3.773
REMARK  5 active torsions:
REMARK  status: ('A' for Active; 'I' for Inactive)
REMARK    1  A    between atoms: C_2  and  C_3 
REMARK    2  A    between atoms: C_3  and  C_4 
REMARK    3  A    between atoms: C_3  and  C_6 
REMARK    4  A    between atoms: C_8  and  N_12 
REMARK       I    between atoms: N_12  and  C_13 
REMARK       I    between atoms: C_13  and  N_15 
REMARK    5  A    between atoms: N_15  and  C_16 
ROOT
HETATM    1  N   UNL     1     -42.235 -50.761  12.871  1.00  0.00    -0.338 N 
HETATM    2  C   UNL     1     -41.412 -51.387  11.986  1.00  0.00     0.322 C 
HETATM    3  O   UNL     1     -41.331 -52.605  11.878  1.00  0.00    -0.247 OA
HETATM    4  N   UNL     1     -40.730 -50.581  11.123  1.00  0.00    -0.295 N 
HETATM    5  H   UNL     1     -42.039 -49.772  13.011  1.00  0.00     0.164 HD
HETATM    6  H   UNL     1     -40.267 -51.093  10.388  1.00  0.00     0.172 HD
ENDROOT
BRANCH   1   7
HETATM    7  C   UNL     1     -43.127 -51.447  13.779  1.00  0.00     0.090 C 
HETATM    8  C   UNL     1     -44.026 -50.442  14.495  1.00  0.00     0.057 C 
HETATM    9  C   UNL     1     -44.995 -51.164  15.434  1.00  0.00     0.127 C 
HETATM   10  O   UNL     1     -44.228 -51.937  16.375  1.00  0.00    -0.385 OA
HETATM   11  C   UNL     1     -43.323 -52.886  15.809  1.00  0.00     0.170 C 
HETATM   12  C   UNL     1     -42.358 -52.260  14.812  1.00  0.00     0.051 C 
BRANCH   9  13
HETATM   13  C   UNL     1     -46.109 -52.004  14.734  1.00  0.00     0.014 C 
BRANCH  13  14
HETATM   14  C   UNL     1     -47.228 -52.349  15.747  1.00  0.00     0.002 C 
HETATM   15  C   UNL     1     -47.627 -51.189  16.651  1.00  0.00     0.005 C 
ENDBRANCH  13  14
BRANCH  13  16
HETATM   16  C   UNL     1     -46.649 -51.362  13.432  1.00  0.00     0.002 C 
HETATM   17  C   UNL     1     -46.503 -52.196  12.166  1.00  0.00     0.005 C 
ENDBRANCH  13  16
ENDBRANCH   9  13
ENDBRANCH   1   7
BRANCH   4  18
HETATM   18  C   UNL     1     -40.702 -49.183  11.093  1.00  0.00     0.108 A 
HETATM   19  C   UNL     1     -39.725 -48.533  11.836  1.00  0.00     0.049 A 
HETATM   20  C   UNL     1     -39.654 -47.143  11.775  1.00  0.00     0.005 A 
HETATM   21  C   UNL     1     -40.577 -46.443  11.007  1.00  0.00     0.017 A 
HETATM   22  C   UNL     1     -41.535 -47.166  10.324  1.00  0.00     0.089 A 
HETATM   23  N   UNL     1     -41.607 -48.514  10.342  1.00  0.00    -0.352 N 
ATOM     24  HN  UNL     1     -42.320 -49.010   9.807  1.00  0.00     0.166 HD
ENDBRANCH   4  18
TORSDOF 5
ENDMDL
MODEL 3
REMARK VINA RESULT:      -5.8      2.752      7.099
REMARK  5 active torsions:
REMARK  status: ('A' for Active; 'I' for Inactive)
REMARK    1  A    between atoms: C_2  and  C_3 
REMARK    2  A    between atoms: C_3  and  C_4 
REMARK    3  A    between atoms: C_3  and  C_6 
REMARK    4  A    between atoms: C_8  and  N_12 
REMARK       I    between atoms: N_12  and  C_13 
REMARK       I    between atoms: C_13  and  N_15 
REMARK    5  A    between atoms: N_15  and  C_16 
ROOT
HETATM    1  N   UNL     1     -43.012 -49.232  12.084  1.00  0.00    -0.338 N 
HETATM    2  C   UNL     1     -42.268 -50.346  12.318  1.00  0.00     0.322 C 
HETATM    3  O   UNL     1     -41.081 -50.445  12.025  1.00  0.00    -0.247 OA
HETATM    4  N   UNL     1     -42.883 -51.350  13.006  1.00  0.00    -0.295 N 
HETATM    5  H   UNL     1     -44.018 -49.365  12.167  1.00  0.00     0.164 HD
HETATM    6  H   UNL     1     -42.248 -52.077  13.296  1.00  0.00     0.172 HD
ENDROOT
BRANCH   1   7
HETATM    7  C   UNL     1     -42.500 -48.022  11.481  1.00  0.00     0.090 C 
HETATM    8  C   UNL     1     -42.583 -46.862  12.470  1.00  0.00     0.057 C 
HETATM    9  C   UNL     1     -42.013 -45.585  11.849  1.00  0.00     0.127 C 
HETATM   10  O   UNL     1     -42.750 -45.295  10.647  1.00  0.00    -0.385 OA
HETATM   11  C   UNL     1     -42.769 -46.331   9.663  1.00  0.00     0.170 C 
HETATM   12  C   UNL     1     -43.267 -47.660  10.216  1.00  0.00     0.051 C 
BRANCH   9  13
HETATM   13  C   UNL     1     -40.469 -45.579  11.623  1.00  0.00     0.014 C 
BRANCH  13  14
HETATM   14  C   UNL     1     -40.060 -44.337  10.795  1.00  0.00     0.002 C 
HETATM   15  C   UNL     1     -39.152 -44.649   9.611  1.00  0.00     0.005 C 
ENDBRANCH  13  14
BRANCH  13  16
HETATM   16  C   UNL     1     -39.647 -45.732  12.928  1.00  0.00     0.002 C 
HETATM   17  C   UNL     1     -39.130 -47.132  13.229  1.00  0.00     0.005 C 
ENDBRANCH  13  16
ENDBRANCH   9  13
ENDBRANCH   1   7
BRANCH   4  18
HETATM   18  C   UNL     1     -44.216 -51.412  13.424  1.00  0.00     0.108 A 
HETATM   19  C   UNL     1     -44.503 -51.076  14.741  1.00  0.00     0.049 A 
HETATM   20  C   UNL     1     -45.833 -51.084  15.157  1.00  0.00     0.005 A 
HETATM   21  C   UNL     1     -46.829 -51.459  14.263  1.00  0.00     0.017 A 
HETATM   22  C   UNL     1     -46.453 -51.808  12.982  1.00  0.00     0.089 A 
HETATM   23  N   UNL     1     -45.176 -51.780  12.544  1.00  0.00    -0.352 N 
ATOM     24  HN  UNL     1     -44.943 -52.027  11.582  1.00  0.00     0.166 HD
ENDBRANCH   4  18
TORSDOF 5
ENDMDL
MODEL 4
REMARK VINA RESULT:      -5.4      2.957      4.760
REMARK  5 active torsions:
REMARK  status: ('A' for Active; 'I' for Inactive)
REMARK    1  A    between atoms: C_2  and  C_3 
REMARK    2  A    between atoms: C_3  and  C_4 
REMARK    3  A    between atoms: C_3  and  C_6 
REMARK    4  A    between atoms: C_8  and  N_12 
REMARK       I    between atoms: N_12  and  C_13 
REMARK       I    between atoms: C_13  and  N_15 
REMARK    5  A    between atoms: N_15  and  C_16 
ROOT
HETATM    1  N   UNL     1     -42.191 -51.568  13.574  1.00  0.00    -0.338 N 
HETATM    2  C   UNL     1     -42.177 -52.106  12.325  1.00  0.00     0.322 C 
HETATM    3  O   UNL     1     -43.000 -52.923  11.928  1.00  0.00    -0.247 OA
HETATM    4  N   UNL     1     -41.241 -51.610  11.465  1.00  0.00    -0.295 N 
HETATM    5  H   UNL     1     -41.336 -51.086  13.842  1.00  0.00     0.164 HD
HETATM    6  H   UNL     1     -41.377 -51.917  10.515  1.00  0.00     0.172 HD
ENDROOT
BRANCH   1   7
HETATM    7  C   UNL     1     -43.182 -51.876  14.583  1.00  0.00     0.090 C 
HETATM    8  C   UNL     1     -43.964 -50.619  14.955  1.00  0.00     0.057 C 
HETATM    9  C   UNL     1     -45.035 -50.943  15.999  1.00  0.00     0.127 C 
HETATM   10  O   UNL     1     -44.391 -51.514  17.152  1.00  0.00    -0.385 OA
HETATM   11  C   UNL     1     -43.598 -52.678  16.910  1.00  0.00     0.170 C 
HETATM   12  C   UNL     1     -42.542 -52.460  15.835  1.00  0.00     0.051 C 
BRANCH   9  13
HETATM   13  C   UNL     1     -46.230 -51.810  15.488  1.00  0.00     0.014 C 
BRANCH  13  14
HETATM   14  C   UNL     1     -47.307 -51.930  16.594  1.00  0.00     0.002 C 
HETATM   15  C   UNL     1     -47.678 -50.604  17.247  1.00  0.00     0.005 C 
ENDBRANCH  13  14
BRANCH  13  16
HETATM   16  C   UNL     1     -46.808 -51.337  14.131  1.00  0.00     0.002 C 
HETATM   17  C   UNL     1     -46.458 -52.196  12.922  1.00  0.00     0.005 C 
ENDBRANCH  13  16
ENDBRANCH   9  13
ENDBRANCH   1   7
BRANCH   4  18
HETATM   18  C   UNL     1     -40.234 -50.679  11.737  1.00  0.00     0.108 A 
HETATM   19  C   UNL     1     -40.518 -49.334  11.538  1.00  0.00     0.049 A 
HETATM   20  C   UNL     1     -39.542 -48.391  11.854  1.00  0.00     0.005 A 
HETATM   21  C   UNL     1     -38.304 -48.817  12.321  1.00  0.00     0.017 A 
HETATM   22  C   UNL     1     -38.095 -50.175  12.460  1.00  0.00     0.089 A 
HETATM   23  N   UNL     1     -39.034 -51.107  12.191  1.00  0.00    -0.352 N 
ATOM     24  HN  UNL     1     -38.844 -52.100  12.325  1.00  0.00     0.166 HD
ENDBRANCH   4  18
TORSDOF 5
ENDMDL
MODEL 5
REMARK VINA RESULT:      -5.4      2.966      5.978
REMARK  5 active torsions:
REMARK  status: ('A' for Active; 'I' for Inactive)
REMARK    1  A    between atoms: C_2  and  C_3 
REMARK    2  A    between atoms: C_3  and  C_4 
REMARK    3  A    between atoms: C_3  and  C_6 
REMARK    4  A    between atoms: C_8  and  N_12 
REMARK       I    between atoms: N_12  and  C_13 
REMARK       I    between atoms: C_13  and  N_15 
REMARK    5  A    between atoms: N_15  and  C_16 
ROOT
HETATM    1  N   UNL     1     -41.949 -50.790  12.500  1.00  0.00    -0.338 N 
HETATM    2  C   UNL     1     -41.766 -52.113  12.243  1.00  0.00     0.322 C 
HETATM    3  O   UNL     1     -40.693 -52.598  11.905  1.00  0.00    -0.247 OA
HETATM    4  N   UNL     1     -42.834 -52.928  12.482  1.00  0.00    -0.295 N 
HETATM    5  H   UNL     1     -42.922 -50.494  12.548  1.00  0.00     0.164 HD
HETATM    6  H   UNL     1     -42.602 -53.907  12.437  1.00  0.00     0.172 HD
ENDROOT
BRANCH   1   7
HETATM    7  C   UNL     1     -40.903 -49.794  12.424  1.00  0.00     0.090 C 
HETATM    8  C   UNL     1     -40.723 -49.114  13.779  1.00  0.00     0.057 C 
HETATM    9  C   UNL     1     -39.596 -48.081  13.715  1.00  0.00     0.127 C 
HETATM   10  O   UNL     1     -39.916 -47.121  12.691  1.00  0.00    -0.385 OA
HETATM   11  C   UNL     1     -40.142 -47.655  11.386  1.00  0.00     0.170 C 
HETATM   12  C   UNL     1     -41.211 -48.739  11.369  1.00  0.00     0.051 C 
BRANCH   9  13
HETATM   13  C   UNL     1     -38.156 -48.665  13.561  1.00  0.00     0.014 C 
BRANCH  13  14
HETATM   14  C   UNL     1     -37.155 -47.832  14.398  1.00  0.00     0.002 C 
HETATM   15  C   UNL     1     -36.633 -48.548  15.638  1.00  0.00     0.005 C 
ENDBRANCH  13  14
BRANCH  13  16
HETATM   16  C   UNL     1     -38.066 -50.185  13.849  1.00  0.00     0.002 C 
HETATM   17  C   UNL     1     -37.399 -51.029  12.770  1.00  0.00     0.005 C 
ENDBRANCH  13  16
ENDBRANCH   9  13
ENDBRANCH   1   7
BRANCH   4  18
HETATM   18  C   UNL     1     -44.124 -52.558  12.875  1.00  0.00     0.108 A 
HETATM   19  C   UNL     1     -44.316 -52.155  14.190  1.00  0.00     0.049 A 
HETATM   20  C   UNL     1     -45.586 -51.735  14.581  1.00  0.00     0.005 A 
HETATM   21  C   UNL     1     -46.630 -51.762  13.664  1.00  0.00     0.017 A 
HETATM   22  C   UNL     1     -46.359 -52.207  12.385  1.00  0.00     0.089 A 
HETATM   23  N   UNL     1     -45.132 -52.590  11.972  1.00  0.00    -0.352 N 
ATOM     24  HN  UNL     1     -44.971 -52.894  11.012  1.00  0.00     0.166 HD
ENDBRANCH   4  18
TORSDOF 5
ENDMDL
MODEL 6
REMARK VINA RESULT:      -5.3      3.245      4.933
REMARK  5 active torsions:
REMARK  status: ('A' for Active; 'I' for Inactive)
REMARK    1  A    between atoms: C_2  and  C_3 
REMARK    2  A    between atoms: C_3  and  C_4 
REMARK    3  A    between atoms: C_3  and  C_6 
REMARK    4  A    between atoms: C_8  and  N_12 
REMARK       I    between atoms: N_12  and  C_13 
REMARK       I    between atoms: C_13  and  N_15 
REMARK    5  A    between atoms: N_15  and  C_16 
ROOT
HETATM    1  N   UNL     1     -41.322 -51.821  13.550  1.00  0.00    -0.338 N 
HETATM    2  C   UNL     1     -40.878 -51.989  12.275  1.00  0.00     0.322 C 
HETATM    3  O   UNL     1     -41.434 -52.706  11.451  1.00  0.00    -0.247 OA
HETATM    4  N   UNL     1     -39.810 -51.227  11.902  1.00  0.00    -0.295 N 
HETATM    5  H   UNL     1     -40.652 -51.388  14.182  1.00  0.00     0.164 HD
HETATM    6  H   UNL     1     -39.625 -51.265  10.912  1.00  0.00     0.172 HD
ENDROOT
BRANCH   1   7
HETATM    7  C   UNL     1     -42.509 -52.447  14.088  1.00  0.00     0.090 C 
HETATM    8  C   UNL     1     -43.278 -51.457  14.960  1.00  0.00     0.057 C 
HETATM    9  C   UNL     1     -44.553 -52.103  15.508  1.00  0.00     0.127 C 
HETATM   10  O   UNL     1     -44.185 -53.276  16.256  1.00  0.00    -0.385 OA
HETATM   11  C   UNL     1     -43.427 -54.256  15.543  1.00  0.00     0.170 C 
HETATM   12  C   UNL     1     -42.167 -53.682  14.911  1.00  0.00     0.051 C 
BRANCH   9  13
HETATM   13  C   UNL     1     -45.668 -52.389  14.453  1.00  0.00     0.014 C 
BRANCH  13  14
HETATM   14  C   UNL     1     -47.034 -52.564  15.160  1.00  0.00     0.002 C 
HETATM   15  C   UNL     1     -47.395 -51.425  16.108  1.00  0.00     0.005 C 
ENDBRANCH  13  14
BRANCH  13  16
HETATM   16  C   UNL     1     -45.714 -51.356  13.299  1.00  0.00     0.002 C 
HETATM   17  C   UNL     1     -46.703 -51.652  12.179  1.00  0.00     0.005 C 
ENDBRANCH  13  16
ENDBRANCH   9  13
ENDBRANCH   1   7
BRANCH   4  18
HETATM   18  C   UNL     1     -39.058 -50.357  12.697  1.00  0.00     0.108 A 
HETATM   19  C   UNL     1     -39.313 -48.995  12.596  1.00  0.00     0.049 A 
HETATM   20  C   UNL     1     -38.607 -48.120  13.419  1.00  0.00     0.005 A 
HETATM   21  C   UNL     1     -37.646 -48.622  14.289  1.00  0.00     0.017 A 
HETATM   22  C   UNL     1     -37.434 -49.987  14.304  1.00  0.00     0.089 A 
HETATM   23  N   UNL     1     -38.125 -50.859  13.539  1.00  0.00    -0.352 N 
ATOM     24  HN  UNL     1     -37.950 -51.862  13.595  1.00  0.00     0.166 HD
ENDBRANCH   4  18
TORSDOF 5
ENDMDL
MODEL 7
REMARK VINA RESULT:      -5.3      3.202      6.239
REMARK  5 active torsions:
REMARK  status: ('A' for Active; 'I' for Inactive)
REMARK    1  A    between atoms: C_2  and  C_3 
REMARK    2  A    between atoms: C_3  and  C_4 
REMARK    3  A    between atoms: C_3  and  C_6 
REMARK    4  A    between atoms: C_8  and  N_12 
REMARK       I    between atoms: N_12  and  C_13 
REMARK       I    between atoms: C_13  and  N_15 
REMARK    5  A    between atoms: N_15  and  C_16 
ROOT
HETATM    1  N   UNL     1     -42.006 -51.184  12.972  1.00  0.00    -0.338 N 
HETATM    2  C   UNL     1     -41.591 -52.241  12.223  1.00  0.00     0.322 C 
HETATM    3  O   UNL     1     -40.497 -52.297  11.673  1.00  0.00    -0.247 OA
HETATM    4  N   UNL     1     -42.425 -53.320  12.188  1.00  0.00    -0.295 N 
HETATM    5  H   UNL     1     -43.003 -51.171  13.177  1.00  0.00     0.164 HD
HETATM    6  H   UNL     1     -42.003 -54.131  11.762  1.00  0.00     0.172 HD
ENDROOT
BRANCH   1   7
HETATM    7  C   UNL     1     -41.209 -50.005  13.228  1.00  0.00     0.090 C 
HETATM    8  C   UNL     1     -40.339 -50.214  14.465  1.00  0.00     0.057 C 
HETATM    9  C   UNL     1     -39.469 -48.981  14.723  1.00  0.00     0.127 C 
HETATM   10  O   UNL     1     -40.332 -47.840  14.884  1.00  0.00    -0.385 OA
HETATM   11  C   UNL     1     -41.219 -47.573  13.796  1.00  0.00     0.170 C 
HETATM   12  C   UNL     1     -42.082 -48.773  13.430  1.00  0.00     0.051 C 
BRANCH   9  13
HETATM   13  C   UNL     1     -38.331 -48.732  13.684  1.00  0.00     0.014 C 
BRANCH  13  14
HETATM   14  C   UNL     1     -37.265 -47.783  14.285  1.00  0.00     0.002 C 
HETATM   15  C   UNL     1     -36.872 -48.117  15.720  1.00  0.00     0.005 C 
ENDBRANCH  13  14
BRANCH  13  16
HETATM   16  C   UNL     1     -37.723 -50.032  13.102  1.00  0.00     0.002 C 
HETATM   17  C   UNL     1     -37.528 -50.059  11.591  1.00  0.00     0.005 C 
ENDBRANCH  13  16
ENDBRANCH   9  13
ENDBRANCH   1   7
BRANCH   4  18
HETATM   18  C   UNL     1     -43.697 -53.441  12.755  1.00  0.00     0.108 A 
HETATM   19  C   UNL     1     -43.858 -54.322  13.817  1.00  0.00     0.049 A 
HETATM   20  C   UNL     1     -45.108 -54.414  14.425  1.00  0.00     0.005 A 
HETATM   21  C   UNL     1     -46.165 -53.655  13.936  1.00  0.00     0.017 A 
HETATM   22  C   UNL     1     -45.926 -52.827  12.857  1.00  0.00     0.089 A 
HETATM   23  N   UNL     1     -44.718 -52.697  12.270  1.00  0.00    -0.352 N 
ATOM     24  HN  UNL     1     -44.579 -52.059  11.486  1.00  0.00     0.166 HD
ENDBRANCH   4  18
TORSDOF 5
ENDMDL
MODEL 8
REMARK VINA RESULT:      -5.3      2.621      4.108
REMARK  5 active torsions:
REMARK  status: ('A' for Active; 'I' for Inactive)
REMARK    1  A    between atoms: C_2  and  C_3 
REMARK    2  A    between atoms: C_3  and  C_4 
REMARK    3  A    between atoms: C_3  and  C_6 
REMARK    4  A    between atoms: C_8  and  N_12 
REMARK       I    between atoms: N_12  and  C_13 
REMARK       I    between atoms: C_13  and  N_15 
REMARK    5  A    between atoms: N_15  and  C_16 
ROOT
HETATM    1  N   UNL     1     -42.555 -47.855  11.794  1.00  0.00    -0.338 N 
HETATM    2  C   UNL     1     -43.431 -47.308  10.909  1.00  0.00     0.322 C 
HETATM    3  O   UNL     1     -44.337 -47.937  10.374  1.00  0.00    -0.247 OA
HETATM    4  N   UNL     1     -43.326 -45.963  10.708  1.00  0.00    -0.295 N 
HETATM    5  H   UNL     1     -41.730 -47.289  11.984  1.00  0.00     0.164 HD
HETATM    6  H   UNL     1     -44.095 -45.583  10.177  1.00  0.00     0.172 HD
ENDROOT
BRANCH   1   7
HETATM    7  C   UNL     1     -42.588 -49.234  12.228  1.00  0.00     0.090 C 
HETATM    8  C   UNL     1     -43.212 -49.335  13.618  1.00  0.00     0.057 C 
HETATM    9  C   UNL     1     -43.280 -50.796  14.071  1.00  0.00     0.127 C 
HETATM   10  O   UNL     1     -41.947 -51.339  14.059  1.00  0.00    -0.385 OA
HETATM   11  C   UNL     1     -41.254 -51.262  12.812  1.00  0.00     0.170 C 
HETATM   12  C   UNL     1     -41.194 -49.845  12.257  1.00  0.00     0.051 C 
BRANCH   9  13
HETATM   13  C   UNL     1     -44.300 -51.691  13.299  1.00  0.00     0.014 C 
BRANCH  13  14
HETATM   14  C   UNL     1     -44.261 -53.136  13.854  1.00  0.00     0.002 C 
HETATM   15  C   UNL     1     -44.228 -54.215  12.779  1.00  0.00     0.005 C 
ENDBRANCH  13  14
BRANCH  13  16
HETATM   16  C   UNL     1     -45.732 -51.103  13.247  1.00  0.00     0.002 C 
HETATM   17  C   UNL     1     -46.639 -51.451  14.420  1.00  0.00     0.005 C 
ENDBRANCH  13  16
ENDBRANCH   9  13
ENDBRANCH   1   7
BRANCH   4  18
HETATM   18  C   UNL     1     -42.370 -45.089  11.232  1.00  0.00     0.108 A 
HETATM   19  C   UNL     1     -41.118 -45.055  10.631  1.00  0.00     0.049 A 
HETATM   20  C   UNL     1     -40.171 -44.152  11.111  1.00  0.00     0.005 A 
HETATM   21  C   UNL     1     -40.486 -43.339  12.193  1.00  0.00     0.017 A 
HETATM   22  C   UNL     1     -41.744 -43.459  12.750  1.00  0.00     0.089 A 
HETATM   23  N   UNL     1     -42.689 -44.303  12.286  1.00  0.00    -0.352 N 
ATOM     24  HN  UNL     1     -43.613 -44.347  12.716  1.00  0.00     0.166 HD
ENDBRANCH   4  18
TORSDOF 5
ENDMDL
MODEL 9
REMARK VINA RESULT:      -5.3      2.494      7.152
REMARK  5 active torsions:
REMARK  status: ('A' for Active; 'I' for Inactive)
REMARK    1  A    between atoms: C_2  and  C_3 
REMARK    2  A    between atoms: C_3  and  C_4 
REMARK    3  A    between atoms: C_3  and  C_6 
REMARK    4  A    between atoms: C_8  and  N_12 
REMARK       I    between atoms: N_12  and  C_13 
REMARK       I    between atoms: C_13  and  N_15 
REMARK    5  A    between atoms: N_15  and  C_16 
ROOT
HETATM    1  N   UNL     1     -41.269 -51.126  12.992  1.00  0.00    -0.338 N 
HETATM    2  C   UNL     1     -40.354 -52.107  12.771  1.00  0.00     0.322 C 
HETATM    3  O   UNL     1     -39.170 -51.892  12.536  1.00  0.00    -0.247 OA
HETATM    4  N   UNL     1     -40.793 -53.389  12.927  1.00  0.00    -0.295 N 
HETATM    5  H   UNL     1     -42.240 -51.430  12.951  1.00  0.00     0.164 HD
HETATM    6  H   UNL     1     -40.046 -54.066  12.916  1.00  0.00     0.172 HD
ENDROOT
BRANCH   1   7
HETATM    7  C   UNL     1     -40.964 -49.712  12.995  1.00  0.00     0.090 C 
HETATM    8  C   UNL     1     -40.199 -49.335  11.729  1.00  0.00     0.057 C 
HETATM    9  C   UNL     1     -39.901 -47.833  11.710  1.00  0.00     0.127 C 
HETATM   10  O   UNL     1     -39.146 -47.504  12.890  1.00  0.00    -0.385 OA
HETATM   11  C   UNL     1     -39.755 -47.850  14.135  1.00  0.00     0.170 C 
HETATM   12  C   UNL     1     -40.141 -49.320  14.215  1.00  0.00     0.051 C 
BRANCH   9  13
HETATM   13  C   UNL     1     -41.141 -46.905  11.511  1.00  0.00     0.014 C 
BRANCH  13  14
HETATM   14  C   UNL     1     -40.682 -45.432  11.379  1.00  0.00     0.002 C 
HETATM   15  C   UNL     1     -39.674 -45.192  10.262  1.00  0.00     0.005 C 
ENDBRANCH  13  14
BRANCH  13  16
HETATM   16  C   UNL     1     -42.077 -47.352  10.361  1.00  0.00     0.002 C 
HETATM   17  C   UNL     1     -43.539 -47.560  10.734  1.00  0.00     0.005 C 
ENDBRANCH  13  16
ENDBRANCH   9  13
ENDBRANCH   1   7
BRANCH   4  18
HETATM   18  C   UNL     1     -42.094 -53.823  13.199  1.00  0.00     0.108 A 
HETATM   19  C   UNL     1     -42.325 -54.479  14.401  1.00  0.00     0.049 A 
HETATM   20  C   UNL     1     -43.626 -54.872  14.708  1.00  0.00     0.005 A 
HETATM   21  C   UNL     1     -44.648 -54.632  13.796  1.00  0.00     0.017 A 
HETATM   22  C   UNL     1     -44.325 -54.002  12.611  1.00  0.00     0.089 A 
HETATM   23  N   UNL     1     -43.079 -53.584  12.302  1.00  0.00    -0.352 N 
ATOM     24  HN  UNL     1     -42.887 -53.105  11.423  1.00  0.00     0.166 HD
ENDBRANCH   4  18
TORSDOF 5
ENDMDL
