MODEL 1
REMARK VINA RESULT:      -6.0      0.000      0.000
REMARK  7 active torsions:
REMARK  status: ('A' for Active; 'I' for Inactive)
REMARK    1  A    between atoms: C_2  and  C_3 
REMARK       I    between atoms: C_2  and  N_17 
REMARK    2  A    between atoms: C_3  and  N_4 
REMARK    3  A    between atoms: N_11  and  C_12 
REMARK    4  A    between atoms: N_17  and  C_18 
REMARK    5  A    between atoms: C_18  and  C_19 
REMARK    6  A    between atoms: C_19  and  C_20 
REMARK    7  A    between atoms: C_20  and  N_21 
ROOT
HETATM    1  N   UNL     1     -41.467 -48.026  12.138  1.00  0.00    -0.256 N 
HETATM    2  C   UNL     1     -42.267 -49.155  12.236  1.00  0.00     0.274 C 
HETATM    3  O   UNL     1     -43.493 -49.117  12.295  1.00  0.00    -0.266 OA
HETATM    4  C   UNL     1     -41.563 -50.457  12.333  1.00  0.00     0.128 C 
HETATM    5  C   UNL     1     -42.303 -51.663  12.461  1.00  0.00     0.106 C 
HETATM    6  N   UNL     1     -42.841 -52.684  12.581  1.00  0.00    -0.191 NA
HETATM    7  C   UNL     1     -40.228 -50.459  12.314  1.00  0.00     0.124 C 
HETATM    8  N   UNL     1     -39.487 -49.302  12.236  1.00  0.00    -0.303 N 
HETATM    9  C   UNL     1     -40.077 -48.037  12.241  1.00  0.00     0.332 C 
HETATM   10  O   UNL     1     -39.426 -46.992  12.320  1.00  0.00    -0.246 OA
ENDROOT
BRANCH   1  11
HETATM   11  C   UNL     1     -42.106 -46.717  12.092  1.00  0.00     0.239 C 
BRANCH  11  12
HETATM   12  C   UNL     1     -42.512 -46.334  10.663  1.00  0.00     0.236 C 
HETATM   13  O   UNL     1     -41.780 -45.697   9.910  1.00  0.00    -0.272 OA
HETATM   14  N   UNL     1     -43.787 -46.735  10.304  1.00  0.00    -0.359 N 
HETATM   15  H   UNL     1     -44.451 -46.801  11.079  1.00  0.00     0.162 HD
BRANCH  14  16
HETATM   16  C   UNL     1     -44.338 -46.468   8.978  1.00  0.00     0.135 C 
BRANCH  16  17
HETATM   17  C   UNL     1     -45.862 -46.575   8.937  1.00  0.00     0.123 C 
BRANCH  17  18
HETATM   18  C   UNL     1     -46.321 -48.022   8.868  1.00  0.00    -0.076 C 
BRANCH  18  19
HETATM   19  N   UNL     1     -46.704 -49.222   8.811  1.00  0.00    -0.370 N 
ATOM     20  HN2 UNL     1     -46.433 -48.239   8.826  1.00  0.00     0.165 HD
ATOM     21  HN1 UNL     1     -47.013 -50.193   8.765  1.00  0.00     0.165 HD
ENDBRANCH  18  19
ENDBRANCH  17  18
ENDBRANCH  16  17
ENDBRANCH  14  16
ENDBRANCH  11  12
ENDBRANCH   1  11
BRANCH   8  22
HETATM   22  C   UNL     1     -38.047 -49.417  12.207  1.00  0.00     0.094 A 
HETATM   23  C   UNL     1     -37.353 -49.901  10.954  1.00  0.00     0.028 A 
HETATM   24  C   UNL     1     -37.332 -50.748  12.187  1.00  0.00     0.028 A 
ENDBRANCH   8  22
TORSDOF 7
ENDMDL
MODEL 2
REMARK VINA RESULT:      -5.7      4.451      6.871
REMARK  7 active torsions:
REMARK  status: ('A' for Active; 'I' for Inactive)
REMARK    1  A    between atoms: C_2  and  C_3 
REMARK       I    between atoms: C_2  and  N_17 
REMARK    2  A    between atoms: C_3  and  N_4 
REMARK    3  A    between atoms: N_11  and  C_12 
REMARK    4  A    between atoms: N_17  and  C_18 
REMARK    5  A    between atoms: C_18  and  C_19 
REMARK    6  A    between atoms: C_19  and  C_20 
REMARK    7  A    between atoms: C_20  and  N_21 
ROOT
HETATM    1  N   UNL     1     -41.608 -53.718  13.272  1.00  0.00    -0.256 N 
HETATM    2  C   UNL     1     -42.977 -53.926  13.191  1.00  0.00     0.274 C 
HETATM    3  O   UNL     1     -43.665 -53.569  12.238  1.00  0.00    -0.266 OA
HETATM    4  C   UNL     1     -43.619 -54.562  14.367  1.00  0.00     0.128 C 
HETATM    5  C   UNL     1     -45.021 -54.791  14.382  1.00  0.00     0.106 C 
HETATM    6  N   UNL     1     -46.159 -54.995  14.468  1.00  0.00    -0.191 NA
HETATM    7  C   UNL     1     -42.849 -54.893  15.408  1.00  0.00     0.124 C 
HETATM    8  N   UNL     1     -41.497 -54.642  15.437  1.00  0.00    -0.303 N 
HETATM    9  C   UNL     1     -40.842 -53.960  14.410  1.00  0.00     0.332 C 
HETATM   10  O   UNL     1     -39.665 -53.598  14.488  1.00  0.00    -0.246 OA
ENDROOT
BRANCH   1  11
HETATM   11  C   UNL     1     -40.935 -53.049  12.165  1.00  0.00     0.239 C 
BRANCH  11  12
HETATM   12  C   UNL     1     -40.831 -51.535  12.396  1.00  0.00     0.236 C 
HETATM   13  O   UNL     1     -41.775 -50.769  12.231  1.00  0.00    -0.272 OA
HETATM   14  N   UNL     1     -39.572 -51.100  12.773  1.00  0.00    -0.359 N 
HETATM   15  H   UNL     1     -38.798 -51.671  12.425  1.00  0.00     0.162 HD
BRANCH  14  16
HETATM   16  C   UNL     1     -39.290 -49.694  13.047  1.00  0.00     0.135 C 
BRANCH  16  17
HETATM   17  C   UNL     1     -37.867 -49.289  12.661  1.00  0.00     0.123 C 
BRANCH  17  18
HETATM   18  C   UNL     1     -37.494 -49.799  11.279  1.00  0.00    -0.076 C 
BRANCH  18  19
HETATM   19  N   UNL     1     -37.183 -50.222  10.132  1.00  0.00    -0.370 N 
ATOM     20  HN2 UNL     1     -37.389 -49.856  11.061  1.00  0.00     0.165 HD
ATOM     21  HN1 UNL     1     -36.932 -50.564   9.205  1.00  0.00     0.165 HD
ENDBRANCH  18  19
ENDBRANCH  17  18
ENDBRANCH  16  17
ENDBRANCH  14  16
ENDBRANCH  11  12
ENDBRANCH   1  11
BRANCH   8  22
HETATM   22  C   UNL     1     -40.754 -55.056  16.605  1.00  0.00     0.094 A 
HETATM   23  C   UNL     1     -40.090 -56.414  16.637  1.00  0.00     0.028 A 
HETATM   24  C   UNL     1     -41.242 -56.131  17.549  1.00  0.00     0.028 A 
ENDBRANCH   8  22
TORSDOF 7
ENDMDL
MODEL 3
REMARK VINA RESULT:      -5.7      4.691      7.628
REMARK  7 active torsions:
REMARK  status: ('A' for Active; 'I' for Inactive)
REMARK    1  A    between atoms: C_2  and  C_3 
REMARK       I    between atoms: C_2  and  N_17 
REMARK    2  A    between atoms: C_3  and  N_4 
REMARK    3  A    between atoms: N_11  and  C_12 
REMARK    4  A    between atoms: N_17  and  C_18 
REMARK    5  A    between atoms: C_18  and  C_19 
REMARK    6  A    between atoms: C_19  and  C_20 
REMARK    7  A    between atoms: C_20  and  N_21 
ROOT
HETATM    1  N   UNL     1     -42.323 -53.715  13.641  1.00  0.00    -0.256 N 
HETATM    2  C   UNL     1     -42.020 -54.248  14.886  1.00  0.00     0.274 C 
HETATM    3  O   UNL     1     -40.908 -54.668  15.194  1.00  0.00    -0.266 OA
HETATM    4  C   UNL     1     -43.142 -54.353  15.849  1.00  0.00     0.128 C 
HETATM    5  C   UNL     1     -42.929 -54.909  17.140  1.00  0.00     0.106 C 
HETATM    6  N   UNL     1     -42.831 -55.364  18.202  1.00  0.00    -0.191 NA
HETATM    7  C   UNL     1     -44.350 -53.931  15.466  1.00  0.00     0.124 C 
HETATM    8  N   UNL     1     -44.593 -53.431  14.207  1.00  0.00    -0.303 N 
HETATM    9  C   UNL     1     -43.610 -53.392  13.217  1.00  0.00     0.332 C 
HETATM   10  O   UNL     1     -43.848 -53.085  12.045  1.00  0.00    -0.246 OA
ENDROOT
BRANCH   1  11
HETATM   11  C   UNL     1     -41.268 -53.636  12.638  1.00  0.00     0.239 C 
BRANCH  11  12
HETATM   12  C   UNL     1     -40.573 -52.268  12.652  1.00  0.00     0.236 C 
HETATM   13  O   UNL     1     -40.901 -51.346  11.910  1.00  0.00    -0.272 OA
HETATM   14  N   UNL     1     -39.522 -52.170  13.547  1.00  0.00    -0.359 N 
HETATM   15  H   UNL     1     -39.037 -53.050  13.737  1.00  0.00     0.162 HD
BRANCH  14  16
HETATM   16  C   UNL     1     -38.753 -50.938  13.705  1.00  0.00     0.135 C 
BRANCH  16  17
HETATM   17  C   UNL     1     -37.387 -51.001  13.022  1.00  0.00     0.123 C 
BRANCH  17  18
HETATM   18  C   UNL     1     -37.439 -50.441  11.611  1.00  0.00    -0.076 C 
BRANCH  18  19
HETATM   19  N   UNL     1     -37.481 -49.976  10.439  1.00  0.00    -0.370 N 
ATOM     20  HN2 UNL     1     -37.411 -50.317  11.398  1.00  0.00     0.165 HD
ATOM     21  HN1 UNL     1     -37.516 -49.601   9.491  1.00  0.00     0.165 HD
ENDBRANCH  18  19
ENDBRANCH  17  18
ENDBRANCH  16  17
ENDBRANCH  14  16
ENDBRANCH  11  12
ENDBRANCH   1  11
BRANCH   8  22
HETATM   22  C   UNL     1     -45.933 -52.986  13.899  1.00  0.00     0.094 A 
HETATM   23  C   UNL     1     -46.291 -51.523  14.023  1.00  0.00     0.028 A 
HETATM   24  C   UNL     1     -46.905 -52.517  14.958  1.00  0.00     0.028 A 
ENDBRANCH   8  22
TORSDOF 7
ENDMDL
MODEL 4
REMARK VINA RESULT:      -5.7      1.619      3.648
REMARK  7 active torsions:
REMARK  status: ('A' for Active; 'I' for Inactive)
REMARK    1  A    between atoms: C_2  and  C_3 
REMARK       I    between atoms: C_2  and  N_17 
REMARK    2  A    between atoms: C_3  and  N_4 
REMARK    3  A    between atoms: N_11  and  C_12 
REMARK    4  A    between atoms: N_17  and  C_18 
REMARK    5  A    between atoms: C_18  and  C_19 
REMARK    6  A    between atoms: C_19  and  C_20 
REMARK    7  A    between atoms: C_20  and  N_21 
ROOT
HETATM    1  N   UNL     1     -41.077 -48.804  12.758  1.00  0.00    -0.256 N 
HETATM    2  C   UNL     1     -39.732 -49.137  12.695  1.00  0.00     0.274 C 
HETATM    3  O   UNL     1     -38.826 -48.307  12.682  1.00  0.00    -0.266 OA
HETATM    4  C   UNL     1     -39.413 -50.580  12.578  1.00  0.00     0.128 C 
HETATM    5  C   UNL     1     -38.062 -51.010  12.484  1.00  0.00     0.106 C 
HETATM    6  N   UNL     1     -36.986 -51.430  12.389  1.00  0.00    -0.191 NA
HETATM    7  C   UNL     1     -40.424 -51.453  12.546  1.00  0.00     0.124 C 
HETATM    8  N   UNL     1     -41.742 -51.060  12.591  1.00  0.00    -0.303 N 
HETATM    9  C   UNL     1     -42.120 -49.716  12.603  1.00  0.00     0.332 C 
HETATM   10  O   UNL     1     -43.292 -49.346  12.494  1.00  0.00    -0.246 OA
ENDROOT
BRANCH   1  11
HETATM   11  C   UNL     1     -41.449 -47.396  12.822  1.00  0.00     0.239 C 
BRANCH  11  12
HETATM   12  C   UNL     1     -41.653 -46.799  11.422  1.00  0.00     0.236 C 
HETATM   13  O   UNL     1     -40.723 -46.545  10.663  1.00  0.00    -0.272 OA
HETATM   14  N   UNL     1     -42.974 -46.539  11.099  1.00  0.00    -0.359 N 
HETATM   15  H   UNL     1     -43.576 -46.323  11.897  1.00  0.00     0.162 HD
BRANCH  14  16
HETATM   16  C   UNL     1     -43.358 -45.981   9.805  1.00  0.00     0.135 C 
BRANCH  16  17
HETATM   17  C   UNL     1     -44.302 -46.895   9.024  1.00  0.00     0.123 C 
BRANCH  17  18
HETATM   18  C   UNL     1     -43.556 -47.722   7.990  1.00  0.00    -0.076 C 
BRANCH  18  19
HETATM   19  N   UNL     1     -42.938 -48.409   7.132  1.00  0.00    -0.370 N 
ATOM     20  HN2 UNL     1     -43.400 -47.863   7.859  1.00  0.00     0.165 HD
ATOM     21  HN1 UNL     1     -42.439 -48.964   6.438  1.00  0.00     0.165 HD
ENDBRANCH  18  19
ENDBRANCH  17  18
ENDBRANCH  16  17
ENDBRANCH  14  16
ENDBRANCH  11  12
ENDBRANCH   1  11
BRANCH   8  22
HETATM   22  C   UNL     1     -42.759 -52.086  12.567  1.00  0.00     0.094 A 
HETATM   23  C   UNL     1     -43.319 -52.625  13.863  1.00  0.00     0.028 A 
HETATM   24  C   UNL     1     -42.493 -53.513  12.987  1.00  0.00     0.028 A 
ENDBRANCH   8  22
TORSDOF 7
ENDMDL
MODEL 5
REMARK VINA RESULT:      -5.7      4.378      7.913
REMARK  7 active torsions:
REMARK  status: ('A' for Active; 'I' for Inactive)
REMARK    1  A    between atoms: C_2  and  C_3 
REMARK       I    between atoms: C_2  and  N_17 
REMARK    2  A    between atoms: C_3  and  N_4 
REMARK    3  A    between atoms: N_11  and  C_12 
REMARK    4  A    between atoms: N_17  and  C_18 
REMARK    5  A    between atoms: C_18  and  C_19 
REMARK    6  A    between atoms: C_19  and  C_20 
REMARK    7  A    between atoms: C_20  and  N_21 
ROOT
HETATM    1  N   UNL     1     -44.714 -53.572  14.485  1.00  0.00    -0.256 N 
HETATM    2  C   UNL     1     -45.272 -53.271  13.251  1.00  0.00     0.274 C 
HETATM    3  O   UNL     1     -44.918 -53.795  12.198  1.00  0.00    -0.266 OA
HETATM    4  C   UNL     1     -46.307 -52.209  13.236  1.00  0.00     0.128 C 
HETATM    5  C   UNL     1     -46.916 -51.819  12.013  1.00  0.00     0.106 C 
HETATM    6  N   UNL     1     -47.443 -51.441  11.052  1.00  0.00    -0.191 NA
HETATM    7  C   UNL     1     -46.634 -51.626  14.392  1.00  0.00     0.124 C 
HETATM    8  N   UNL     1     -46.029 -51.953  15.583  1.00  0.00    -0.303 N 
HETATM    9  C   UNL     1     -44.980 -52.871  15.660  1.00  0.00     0.332 C 
HETATM   10  O   UNL     1     -44.330 -53.066  16.691  1.00  0.00    -0.246 OA
ENDROOT
BRANCH   1  11
HETATM   11  C   UNL     1     -43.654 -54.571  14.549  1.00  0.00     0.239 C 
BRANCH  11  12
HETATM   12  C   UNL     1     -42.268 -53.941  14.355  1.00  0.00     0.236 C 
HETATM   13  O   UNL     1     -41.453 -53.829  15.267  1.00  0.00    -0.272 OA
HETATM   14  N   UNL     1     -42.025 -53.477  13.074  1.00  0.00    -0.359 N 
HETATM   15  H   UNL     1     -42.857 -53.176  12.561  1.00  0.00     0.162 HD
BRANCH  14  16
HETATM   16  C   UNL     1     -40.755 -52.859  12.703  1.00  0.00     0.135 C 
BRANCH  16  17
HETATM   17  C   UNL     1     -40.759 -51.342  12.888  1.00  0.00     0.123 C 
BRANCH  17  18
HETATM   18  C   UNL     1     -40.529 -50.615  11.574  1.00  0.00    -0.076 C 
BRANCH  18  19
HETATM   19  N   UNL     1     -40.338 -50.012  10.482  1.00  0.00    -0.370 N 
ATOM     20  HN2 UNL     1     -40.541 -50.482  11.364  1.00  0.00     0.165 HD
ATOM     21  HN1 UNL     1     -40.183 -49.526   9.600  1.00  0.00     0.165 HD
ENDBRANCH  18  19
ENDBRANCH  17  18
ENDBRANCH  16  17
ENDBRANCH  14  16
ENDBRANCH  11  12
ENDBRANCH   1  11
BRANCH   8  22
HETATM   22  C   UNL     1     -46.468 -51.272  16.780  1.00  0.00     0.094 A 
HETATM   23  C   UNL     1     -47.311 -52.004  17.799  1.00  0.00     0.028 A 
HETATM   24  C   UNL     1     -47.908 -50.877  17.016  1.00  0.00     0.028 A 
ENDBRANCH   8  22
TORSDOF 7
ENDMDL
MODEL 6
REMARK VINA RESULT:      -5.6      3.818      6.841
REMARK  7 active torsions:
REMARK  status: ('A' for Active; 'I' for Inactive)
REMARK    1  A    between atoms: C_2  and  C_3 
REMARK       I    between atoms: C_2  and  N_17 
REMARK    2  A    between atoms: C_3  and  N_4 
REMARK    3  A    between atoms: N_11  and  C_12 
REMARK    4  A    between atoms: N_17  and  C_18 
REMARK    5  A    between atoms: C_18  and  C_19 
REMARK    6  A    between atoms: C_19  and  C_20 
REMARK    7  A    between atoms: C_20  and  N_21 
ROOT
HETATM    1  N   UNL     1     -42.236 -53.762  13.566  1.00  0.00    -0.256 N 
HETATM    2  C   UNL     1     -41.994 -54.381  14.784  1.00  0.00     0.274 C 
HETATM    3  O   UNL     1     -40.895 -54.817  15.119  1.00  0.00    -0.266 OA
HETATM    4  C   UNL     1     -43.163 -54.560  15.678  1.00  0.00     0.128 C 
HETATM    5  C   UNL     1     -43.012 -55.206  16.934  1.00  0.00     0.106 C 
HETATM    6  N   UNL     1     -42.966 -55.735  17.965  1.00  0.00    -0.191 NA
HETATM    7  C   UNL     1     -44.353 -54.117  15.262  1.00  0.00     0.124 C 
HETATM    8  N   UNL     1     -44.535 -53.529  14.032  1.00  0.00    -0.303 N 
HETATM    9  C   UNL     1     -43.502 -53.415  13.099  1.00  0.00     0.332 C 
HETATM   10  O   UNL     1     -43.681 -53.026  11.942  1.00  0.00    -0.246 OA
ENDROOT
BRANCH   1  11
HETATM   11  C   UNL     1     -41.131 -53.607  12.628  1.00  0.00     0.239 C 
BRANCH  11  12
HETATM   12  C   UNL     1     -40.575 -52.176  12.639  1.00  0.00     0.236 C 
HETATM   13  O   UNL     1     -39.940 -51.715  13.582  1.00  0.00    -0.272 OA
HETATM   14  N   UNL     1     -40.880 -51.436  11.509  1.00  0.00    -0.359 N 
HETATM   15  H   UNL     1     -41.755 -51.697  11.048  1.00  0.00     0.162 HD
BRANCH  14  16
HETATM   16  C   UNL     1     -40.424 -50.058  11.341  1.00  0.00     0.135 C 
BRANCH  16  17
HETATM   17  C   UNL     1     -41.563 -49.043  11.431  1.00  0.00     0.123 C 
BRANCH  17  18
HETATM   18  C   UNL     1     -41.182 -47.715  10.798  1.00  0.00    -0.076 C 
BRANCH  18  19
HETATM   19  N   UNL     1     -40.866 -46.613  10.272  1.00  0.00    -0.370 N 
ATOM     20  HN2 UNL     1     -41.084 -47.497  10.732  1.00  0.00     0.165 HD
ATOM     21  HN1 UNL     1     -40.612 -45.722   9.846  1.00  0.00     0.165 HD
ENDBRANCH  18  19
ENDBRANCH  17  18
ENDBRANCH  16  17
ENDBRANCH  14  16
ENDBRANCH  11  12
ENDBRANCH   1  11
BRANCH   8  22
HETATM   22  C   UNL     1     -45.861 -53.070  13.687  1.00  0.00     0.094 A 
HETATM   23  C   UNL     1     -46.245 -51.626  13.919  1.00  0.00     0.028 A 
HETATM   24  C   UNL     1     -46.898 -52.705  14.724  1.00  0.00     0.028 A 
ENDBRANCH   8  22
TORSDOF 7
ENDMDL
MODEL 7
REMARK VINA RESULT:      -5.5      4.891      7.514
REMARK  7 active torsions:
REMARK  status: ('A' for Active; 'I' for Inactive)
REMARK    1  A    between atoms: C_2  and  C_3 
REMARK       I    between atoms: C_2  and  N_17 
REMARK    2  A    between atoms: C_3  and  N_4 
REMARK    3  A    between atoms: N_11  and  C_12 
REMARK    4  A    between atoms: N_17  and  C_18 
REMARK    5  A    between atoms: C_18  and  C_19 
REMARK    6  A    between atoms: C_19  and  C_20 
REMARK    7  A    between atoms: C_20  and  N_21 
ROOT
HETATM    1  N   UNL     1     -40.517 -54.000  14.376  1.00  0.00    -0.256 N 
HETATM    2  C   UNL     1     -40.729 -54.640  15.589  1.00  0.00     0.274 C 
HETATM    3  O   UNL     1     -39.837 -54.876  16.399  1.00  0.00    -0.266 OA
HETATM    4  C   UNL     1     -42.112 -55.101  15.859  1.00  0.00     0.128 C 
HETATM    5  C   UNL     1     -42.416 -55.787  17.065  1.00  0.00     0.106 C 
HETATM    6  N   UNL     1     -42.733 -56.364  18.020  1.00  0.00    -0.191 NA
HETATM    7  C   UNL     1     -43.050 -54.870  14.935  1.00  0.00     0.124 C 
HETATM    8  N   UNL     1     -42.773 -54.248  13.740  1.00  0.00    -0.303 N 
HETATM    9  C   UNL     1     -41.478 -53.875  13.375  1.00  0.00     0.332 C 
HETATM   10  O   UNL     1     -41.191 -53.453  12.252  1.00  0.00    -0.246 OA
ENDROOT
BRANCH   1  11
HETATM   11  C   UNL     1     -39.165 -53.572  14.037  1.00  0.00     0.239 C 
BRANCH  11  12
HETATM   12  C   UNL     1     -38.945 -52.087  14.354  1.00  0.00     0.236 C 
HETATM   13  O   UNL     1     -38.575 -51.687  15.455  1.00  0.00    -0.272 OA
HETATM   14  N   UNL     1     -39.232 -51.230  13.305  1.00  0.00    -0.359 N 
HETATM   15  H   UNL     1     -39.949 -51.568  12.659  1.00  0.00     0.162 HD
BRANCH  14  16
HETATM   16  C   UNL     1     -39.069 -49.783  13.422  1.00  0.00     0.135 C 
BRANCH  16  17
HETATM   17  C   UNL     1     -37.739 -49.290  12.852  1.00  0.00     0.123 C 
BRANCH  17  18
HETATM   18  C   UNL     1     -37.513 -49.793  11.437  1.00  0.00    -0.076 C 
BRANCH  18  19
HETATM   19  N   UNL     1     -37.325 -50.212  10.262  1.00  0.00    -0.370 N 
ATOM     20  HN2 UNL     1     -37.521 -49.853  11.196  1.00  0.00     0.165 HD
ATOM     21  HN1 UNL     1     -37.172 -50.550   9.313  1.00  0.00     0.165 HD
ENDBRANCH  18  19
ENDBRANCH  17  18
ENDBRANCH  16  17
ENDBRANCH  14  16
ENDBRANCH  11  12
ENDBRANCH   1  11
BRANCH   8  22
HETATM   22  C   UNL     1     -43.863 -54.033  12.817  1.00  0.00     0.094 A 
HETATM   23  C   UNL     1     -44.648 -52.741  12.862  1.00  0.00     0.028 A 
HETATM   24  C   UNL     1     -45.312 -54.026  13.247  1.00  0.00     0.028 A 
ENDBRANCH   8  22
TORSDOF 7
ENDMDL
MODEL 8
REMARK VINA RESULT:      -5.5      5.025      7.396
REMARK  7 active torsions:
REMARK  status: ('A' for Active; 'I' for Inactive)
REMARK    1  A    between atoms: C_2  and  C_3 
REMARK       I    between atoms: C_2  and  N_17 
REMARK    2  A    between atoms: C_3  and  N_4 
REMARK    3  A    between atoms: N_11  and  C_12 
REMARK    4  A    between atoms: N_17  and  C_18 
REMARK    5  A    between atoms: C_18  and  C_19 
REMARK    6  A    between atoms: C_19  and  C_20 
REMARK    7  A    between atoms: C_20  and  N_21 
ROOT
HETATM    1  N   UNL     1     -43.017 -54.902  14.623  1.00  0.00    -0.256 N 
HETATM    2  C   UNL     1     -42.489 -53.995  13.715  1.00  0.00     0.274 C 
HETATM    3  O   UNL     1     -43.088 -53.607  12.715  1.00  0.00    -0.266 OA
HETATM    4  C   UNL     1     -41.101 -53.539  13.969  1.00  0.00     0.128 C 
HETATM    5  C   UNL     1     -40.472 -52.630  13.077  1.00  0.00     0.106 C 
HETATM    6  N   UNL     1     -39.892 -51.901  12.385  1.00  0.00    -0.191 NA
HETATM    7  C   UNL     1     -40.461 -54.018  15.039  1.00  0.00     0.124 C 
HETATM    8  N   UNL     1     -41.032 -54.934  15.893  1.00  0.00    -0.303 N 
HETATM    9  C   UNL     1     -42.296 -55.482  15.664  1.00  0.00     0.332 C 
HETATM   10  O   UNL     1     -42.758 -56.408  16.335  1.00  0.00    -0.246 OA
ENDROOT
BRANCH   1  11
HETATM   11  C   UNL     1     -44.359 -55.423  14.393  1.00  0.00     0.239 C 
BRANCH  11  12
HETATM   12  C   UNL     1     -45.434 -54.501  14.985  1.00  0.00     0.236 C 
HETATM   13  O   UNL     1     -45.679 -54.448  16.186  1.00  0.00    -0.272 OA
HETATM   14  N   UNL     1     -46.130 -53.758  14.046  1.00  0.00    -0.359 N 
HETATM   15  H   UNL     1     -46.208 -54.195  13.125  1.00  0.00     0.162 HD
BRANCH  14  16
HETATM   16  C   UNL     1     -47.181 -52.818  14.428  1.00  0.00     0.135 C 
BRANCH  16  17
HETATM   17  C   UNL     1     -46.680 -51.378  14.526  1.00  0.00     0.123 C 
BRANCH  17  18
HETATM   18  C   UNL     1     -45.494 -51.132  13.608  1.00  0.00    -0.076 C 
BRANCH  18  19
HETATM   19  N   UNL     1     -44.510 -50.928  12.847  1.00  0.00    -0.370 N 
ATOM     20  HN2 UNL     1     -45.335 -51.099  13.421  1.00  0.00     0.165 HD
ATOM     21  HN1 UNL     1     -43.713 -50.763  12.232  1.00  0.00     0.165 HD
ENDBRANCH  18  19
ENDBRANCH  17  18
ENDBRANCH  16  17
ENDBRANCH  14  16
ENDBRANCH  11  12
ENDBRANCH   1  11
BRANCH   8  22
HETATM   22  C   UNL     1     -40.259 -55.376  17.031  1.00  0.00     0.094 A 
HETATM   23  C   UNL     1     -40.278 -54.577  18.314  1.00  0.00     0.028 A 
HETATM   24  C   UNL     1     -39.019 -54.656  17.509  1.00  0.00     0.028 A 
ENDBRANCH   8  22
TORSDOF 7
ENDMDL
MODEL 9
REMARK VINA RESULT:      -5.5      3.622      5.369
REMARK  7 active torsions:
REMARK  status: ('A' for Active; 'I' for Inactive)
REMARK    1  A    between atoms: C_2  and  C_3 
REMARK       I    between atoms: C_2  and  N_17 
REMARK    2  A    between atoms: C_3  and  N_4 
REMARK    3  A    between atoms: N_11  and  C_12 
REMARK    4  A    between atoms: N_17  and  C_18 
REMARK    5  A    between atoms: C_18  and  C_19 
REMARK    6  A    between atoms: C_19  and  C_20 
REMARK    7  A    between atoms: C_20  and  N_21 
ROOT
HETATM    1  N   UNL     1     -41.247 -53.108  12.884  1.00  0.00    -0.256 N 
HETATM    2  C   UNL     1     -42.573 -53.468  13.077  1.00  0.00     0.274 C 
HETATM    3  O   UNL     1     -43.481 -53.155  12.311  1.00  0.00    -0.266 OA
HETATM    4  C   UNL     1     -42.879 -54.219  14.318  1.00  0.00     0.128 C 
HETATM    5  C   UNL     1     -44.215 -54.607  14.609  1.00  0.00     0.106 C 
HETATM    6  N   UNL     1     -45.282 -54.942  14.917  1.00  0.00    -0.191 NA
HETATM    7  C   UNL     1     -41.876 -54.502  15.153  1.00  0.00     0.124 C 
HETATM    8  N   UNL     1     -40.582 -54.099  14.917  1.00  0.00    -0.303 N 
HETATM    9  C   UNL     1     -40.235 -53.306  13.821  1.00  0.00     0.332 C 
HETATM   10  O   UNL     1     -39.112 -52.816  13.675  1.00  0.00    -0.246 OA
ENDROOT
BRANCH   1  11
HETATM   11  C   UNL     1     -40.898 -52.324  11.706  1.00  0.00     0.239 C 
BRANCH  11  12
HETATM   12  C   UNL     1     -41.006 -50.817  11.976  1.00  0.00     0.236 C 
HETATM   13  O   UNL     1     -40.039 -50.122  12.274  1.00  0.00    -0.272 OA
HETATM   14  N   UNL     1     -42.292 -50.312  11.890  1.00  0.00    -0.359 N 
HETATM   15  H   UNL     1     -43.032 -50.980  12.120  1.00  0.00     0.162 HD
BRANCH  14  16
HETATM   16  C   UNL     1     -42.583 -48.896  12.105  1.00  0.00     0.135 C 
BRANCH  16  17
HETATM   17  C   UNL     1     -42.606 -48.094  10.804  1.00  0.00     0.123 C 
BRANCH  17  18
HETATM   18  C   UNL     1     -41.347 -47.260  10.637  1.00  0.00    -0.076 C 
BRANCH  18  19
HETATM   19  N   UNL     1     -40.302 -46.567  10.497  1.00  0.00    -0.370 N 
ATOM     20  HN2 UNL     1     -41.120 -47.169  10.596  1.00  0.00     0.165 HD
ATOM     21  HN1 UNL     1     -39.458 -46.006  10.385  1.00  0.00     0.165 HD
ENDBRANCH  18  19
ENDBRANCH  17  18
ENDBRANCH  16  17
ENDBRANCH  14  16
ENDBRANCH  11  12
ENDBRANCH   1  11
BRANCH   8  22
HETATM   22  C   UNL     1     -39.568 -54.471  15.877  1.00  0.00     0.094 A 
HETATM   23  C   UNL     1     -38.642 -55.630  15.587  1.00  0.00     0.028 A 
HETATM   24  C   UNL     1     -39.641 -55.740  16.696  1.00  0.00     0.028 A 
ENDBRANCH   8  22
TORSDOF 7
ENDMDL
