MODEL 1
REMARK VINA RESULT:      -6.4      0.000      0.000
REMARK  6 active torsions:
REMARK  status: ('A' for Active; 'I' for Inactive)
REMARK       I    between atoms: N_1  and  C_2 
REMARK    1  A    between atoms: C_2  and  C_4 
REMARK    2  A    between atoms: C_7  and  C_20 
REMARK    3  A    between atoms: N_8  and  C_9 
REMARK    4  A    between atoms: C_9  and  C_10 
REMARK    5  A    between atoms: C_10  and  O_11 
REMARK    6  A    between atoms: C_10  and  C_12 
ROOT
HETATM    1  C   UNL     1     -38.990 -51.846  13.484  1.00  0.00     0.100 C 
HETATM    2  C   UNL     1     -38.952 -53.024  14.123  1.00  0.00     0.025 C 
HETATM    3  C   UNL     1     -40.156 -53.732  14.462  1.00  0.00     0.036 C 
HETATM    4  C   UNL     1     -41.365 -53.311  14.043  1.00  0.00     0.121 C 
HETATM    5  N   UNL     1     -41.441 -52.115  13.300  1.00  0.00    -0.307 N 
HETATM    6  C   UNL     1     -40.321 -51.288  13.092  1.00  0.00     0.264 C 
HETATM    7  O   UNL     1     -40.396 -50.181  12.555  1.00  0.00    -0.267 OA
ENDROOT
BRANCH   5   8
HETATM    8  C   UNL     1     -42.678 -51.689  12.630  1.00  0.00     0.169 C 
BRANCH   8   9
HETATM    9  C   UNL     1     -43.407 -50.490  13.281  1.00  0.00     0.169 C 
BRANCH   9  10
HETATM   10  O   UNL     1     -43.786 -49.532  12.286  1.00  0.00    -0.389 OA
HETATM   11  H   UNL     1     -43.425 -49.844  11.435  1.00  0.00     0.210 HD
ENDBRANCH   9  10
BRANCH   9  12
HETATM   12  C   UNL     1     -44.657 -50.852  14.071  1.00  0.00    -0.028 A 
HETATM   13  C   UNL     1     -45.788 -51.460  13.498  1.00  0.00     0.010 A 
HETATM   14  C   UNL     1     -46.909 -51.763  14.274  1.00  0.00     0.001 A 
HETATM   15  C   UNL     1     -46.923 -51.467  15.633  1.00  0.00     0.000 A 
HETATM   16  C   UNL     1     -45.811 -50.874  16.222  1.00  0.00     0.001 A 
HETATM   17  C   UNL     1     -44.688 -50.573  15.447  1.00  0.00     0.010 A 
ENDBRANCH   9  12
ENDBRANCH   8   9
ENDBRANCH   5   8
BRANCH   4  18
HETATM   18  C   UNL     1     -42.575 -54.156  14.416  1.00  0.00     0.432 C 
HETATM   19  F   UNL     1     -43.386 -54.478  13.379  1.00  0.00    -0.165 F 
HETATM   20  F   UNL     1     -42.195 -55.329  14.986  1.00  0.00    -0.165 F 
HETATM   21  F   UNL     1     -43.360 -53.519  15.325  1.00  0.00    -0.165 F 
ENDBRANCH   4  18
BRANCH   1  22
HETATM   22  C   UNL     1     -37.698 -51.194  13.138  1.00  0.00     0.254 C 
HETATM   23  N   UNL     1     -37.484 -49.959  13.663  1.00  0.00    -0.366 N 
HETATM   24  H   UNL     1     -36.652 -49.453  13.396  1.00  0.00     0.159 HD
HETATM   25  H   UNL     1     -38.208 -49.474  14.189  1.00  0.00     0.159 HD
HETATM   26  O   UNL     1     -36.859 -51.724  12.416  1.00  0.00    -0.268 OA
ENDBRANCH   1  22
TORSDOF 6
ENDMDL
MODEL 2
REMARK VINA RESULT:      -6.4      2.864      3.646
REMARK  6 active torsions:
REMARK  status: ('A' for Active; 'I' for Inactive)
REMARK       I    between atoms: N_1  and  C_2 
REMARK    1  A    between atoms: C_2  and  C_4 
REMARK    2  A    between atoms: C_7  and  C_20 
REMARK    3  A    between atoms: N_8  and  C_9 
REMARK    4  A    between atoms: C_9  and  C_10 
REMARK    5  A    between atoms: C_10  and  O_11 
REMARK    6  A    between atoms: C_10  and  C_12 
ROOT
HETATM    1  C   UNL     1     -38.602 -50.084  12.187  1.00  0.00     0.100 C 
HETATM    2  C   UNL     1     -38.504 -48.800  12.562  1.00  0.00     0.025 C 
HETATM    3  C   UNL     1     -39.587 -48.128  13.225  1.00  0.00     0.036 C 
HETATM    4  C   UNL     1     -40.696 -48.787  13.614  1.00  0.00     0.121 C 
HETATM    5  N   UNL     1     -40.805 -50.159  13.309  1.00  0.00    -0.307 N 
HETATM    6  C   UNL     1     -39.861 -50.827  12.507  1.00  0.00     0.264 C 
HETATM    7  O   UNL     1     -40.007 -51.991  12.127  1.00  0.00    -0.267 OA
ENDROOT
BRANCH   5   8
HETATM    8  C   UNL     1     -41.873 -51.002  13.866  1.00  0.00     0.169 C 
BRANCH   8   9
HETATM    9  C   UNL     1     -43.152 -51.111  13.003  1.00  0.00     0.169 C 
BRANCH   9  10
HETATM   10  O   UNL     1     -43.092 -52.268  12.161  1.00  0.00    -0.389 OA
HETATM   11  H   UNL     1     -44.003 -52.604  12.070  1.00  0.00     0.210 HD
ENDBRANCH   9  10
BRANCH   9  12
HETATM   12  C   UNL     1     -44.452 -51.184  13.792  1.00  0.00    -0.028 A 
HETATM   13  C   UNL     1     -45.695 -51.494  13.214  1.00  0.00     0.010 A 
HETATM   14  C   UNL     1     -46.856 -51.538  13.990  1.00  0.00     0.001 A 
HETATM   15  C   UNL     1     -46.799 -51.276  15.354  1.00  0.00     0.000 A 
HETATM   16  C   UNL     1     -45.577 -50.977  15.949  1.00  0.00     0.001 A 
HETATM   17  C   UNL     1     -44.415 -50.934  15.174  1.00  0.00     0.010 A 
ENDBRANCH   9  12
ENDBRANCH   8   9
ENDBRANCH   5   8
BRANCH   4  18
HETATM   18  C   UNL     1     -41.767 -47.995  14.350  1.00  0.00     0.432 C 
HETATM   19  F   UNL     1     -42.058 -48.449  15.593  1.00  0.00    -0.165 F 
HETATM   20  F   UNL     1     -41.402 -46.694  14.491  1.00  0.00    -0.165 F 
HETATM   21  F   UNL     1     -42.941 -47.996  13.663  1.00  0.00    -0.165 F 
ENDBRANCH   4  18
BRANCH   1  22
HETATM   22  C   UNL     1     -37.423 -50.717  11.538  1.00  0.00     0.254 C 
HETATM   23  N   UNL     1     -37.121 -50.289  10.285  1.00  0.00    -0.366 N 
HETATM   24  H   UNL     1     -36.371 -50.742   9.781  1.00  0.00     0.159 HD
HETATM   25  H   UNL     1     -37.724 -49.636   9.787  1.00  0.00     0.159 HD
HETATM   26  O   UNL     1     -36.749 -51.584  12.085  1.00  0.00    -0.268 OA
ENDBRANCH   1  22
TORSDOF 6
ENDMDL
MODEL 3
REMARK VINA RESULT:      -6.3      2.927      4.682
REMARK  6 active torsions:
REMARK  status: ('A' for Active; 'I' for Inactive)
REMARK       I    between atoms: N_1  and  C_2 
REMARK    1  A    between atoms: C_2  and  C_4 
REMARK    2  A    between atoms: C_7  and  C_20 
REMARK    3  A    between atoms: N_8  and  C_9 
REMARK    4  A    between atoms: C_9  and  C_10 
REMARK    5  A    between atoms: C_10  and  O_11 
REMARK    6  A    between atoms: C_10  and  C_12 
ROOT
HETATM    1  C   UNL     1     -41.708 -47.569  11.591  1.00  0.00     0.100 C 
HETATM    2  C   UNL     1     -42.520 -47.117  12.557  1.00  0.00     0.025 C 
HETATM    3  C   UNL     1     -43.049 -47.995  13.565  1.00  0.00     0.036 C 
HETATM    4  C   UNL     1     -42.654 -49.279  13.660  1.00  0.00     0.121 C 
HETATM    5  N   UNL     1     -41.739 -49.775  12.709  1.00  0.00    -0.307 N 
HETATM    6  C   UNL     1     -41.326 -49.016  11.598  1.00  0.00     0.264 C 
HETATM    7  O   UNL     1     -40.627 -49.477  10.693  1.00  0.00    -0.267 OA
ENDROOT
BRANCH   5   8
HETATM    8  C   UNL     1     -41.098 -51.089  12.852  1.00  0.00     0.169 C 
BRANCH   8   9
HETATM    9  C   UNL     1     -41.723 -52.229  12.013  1.00  0.00     0.169 C 
BRANCH   9  10
HETATM   10  O   UNL     1     -40.700 -53.017  11.396  1.00  0.00    -0.389 OA
HETATM   11  H   UNL     1     -41.145 -53.730  10.900  1.00  0.00     0.210 HD
ENDBRANCH   9  10
BRANCH   9  12
HETATM   12  C   UNL     1     -42.627 -53.176  12.790  1.00  0.00    -0.028 A 
HETATM   13  C   UNL     1     -43.966 -53.429  12.446  1.00  0.00     0.010 A 
HETATM   14  C   UNL     1     -44.748 -54.304  13.204  1.00  0.00     0.001 A 
HETATM   15  C   UNL     1     -44.210 -54.942  14.316  1.00  0.00     0.000 A 
HETATM   16  C   UNL     1     -42.883 -54.714  14.668  1.00  0.00     0.001 A 
HETATM   17  C   UNL     1     -42.100 -53.840  13.910  1.00  0.00     0.010 A 
ENDBRANCH   9  12
ENDBRANCH   8   9
ENDBRANCH   5   8
BRANCH   4  18
HETATM   18  C   UNL     1     -43.239 -50.116  14.790  1.00  0.00     0.432 C 
HETATM   19  F   UNL     1     -42.353 -50.931  15.411  1.00  0.00    -0.165 F 
HETATM   20  F   UNL     1     -43.778 -49.325  15.755  1.00  0.00    -0.165 F 
HETATM   21  F   UNL     1     -44.240 -50.918  14.342  1.00  0.00    -0.165 F 
ENDBRANCH   4  18
BRANCH   1  22
HETATM   22  C   UNL     1     -41.174 -46.588  10.607  1.00  0.00     0.254 C 
HETATM   23  N   UNL     1     -39.822 -46.507  10.508  1.00  0.00    -0.366 N 
HETATM   24  H   UNL     1     -39.418 -45.805   9.903  1.00  0.00     0.159 HD
HETATM   25  H   UNL     1     -39.211 -47.025  11.137  1.00  0.00     0.159 HD
HETATM   26  O   UNL     1     -41.899 -45.879   9.917  1.00  0.00    -0.268 OA
ENDBRANCH   1  22
TORSDOF 6
ENDMDL
MODEL 4
REMARK VINA RESULT:      -6.3      3.423      4.830
REMARK  6 active torsions:
REMARK  status: ('A' for Active; 'I' for Inactive)
REMARK       I    between atoms: N_1  and  C_2 
REMARK    1  A    between atoms: C_2  and  C_4 
REMARK    2  A    between atoms: C_7  and  C_20 
REMARK    3  A    between atoms: N_8  and  C_9 
REMARK    4  A    between atoms: C_9  and  C_10 
REMARK    5  A    between atoms: C_10  and  O_11 
REMARK    6  A    between atoms: C_10  and  C_12 
ROOT
HETATM    1  C   UNL     1     -40.652 -48.436  11.398  1.00  0.00     0.100 C 
HETATM    2  C   UNL     1     -39.321 -48.314  11.290  1.00  0.00     0.025 C 
HETATM    3  C   UNL     1     -38.428 -49.181  12.008  1.00  0.00     0.036 C 
HETATM    4  C   UNL     1     -38.882 -50.232  12.719  1.00  0.00     0.121 C 
HETATM    5  N   UNL     1     -40.274 -50.442  12.794  1.00  0.00    -0.307 N 
HETATM    6  C   UNL     1     -41.202 -49.526  12.262  1.00  0.00     0.264 C 
HETATM    7  O   UNL     1     -42.418 -49.631  12.430  1.00  0.00    -0.267 OA
ENDROOT
BRANCH   5   8
HETATM    8  C   UNL     1     -40.850 -51.667  13.367  1.00  0.00     0.169 C 
BRANCH   8   9
HETATM    9  C   UNL     1     -41.566 -52.599  12.361  1.00  0.00     0.169 C 
BRANCH   9  10
HETATM   10  O   UNL     1     -40.629 -53.491  11.749  1.00  0.00    -0.389 OA
HETATM   11  H   UNL     1     -40.257 -54.048  12.458  1.00  0.00     0.210 HD
ENDBRANCH   9  10
BRANCH   9  12
HETATM   12  C   UNL     1     -42.685 -53.444  12.955  1.00  0.00    -0.028 A 
HETATM   13  C   UNL     1     -44.000 -53.450  12.460  1.00  0.00     0.010 A 
HETATM   14  C   UNL     1     -44.986 -54.242  13.053  1.00  0.00     0.001 A 
HETATM   15  C   UNL     1     -44.679 -55.044  14.146  1.00  0.00     0.000 A 
HETATM   16  C   UNL     1     -43.380 -55.061  14.646  1.00  0.00     0.001 A 
HETATM   17  C   UNL     1     -42.393 -54.270  14.053  1.00  0.00     0.010 A 
ENDBRANCH   9  12
ENDBRANCH   8   9
ENDBRANCH   5   8
BRANCH   4  18
HETATM   18  C   UNL     1     -37.853 -51.118  13.407  1.00  0.00     0.432 C 
HETATM   19  F   UNL     1     -38.295 -52.357  13.731  1.00  0.00    -0.165 F 
HETATM   20  F   UNL     1     -36.757 -51.293  12.622  1.00  0.00    -0.165 F 
HETATM   21  F   UNL     1     -37.415 -50.557  14.565  1.00  0.00    -0.165 F 
ENDBRANCH   4  18
BRANCH   1  22
HETATM   22  C   UNL     1     -41.507 -47.522  10.594  1.00  0.00     0.254 C 
HETATM   23  N   UNL     1     -42.246 -48.096   9.609  1.00  0.00    -0.366 N 
HETATM   24  H   UNL     1     -42.786 -47.503   8.995  1.00  0.00     0.159 HD
HETATM   25  H   UNL     1     -42.148 -49.084   9.380  1.00  0.00     0.159 HD
HETATM   26  O   UNL     1     -41.553 -46.312  10.790  1.00  0.00    -0.268 OA
ENDBRANCH   1  22
TORSDOF 6
ENDMDL
MODEL 5
REMARK VINA RESULT:      -6.2      1.450      1.976
REMARK  6 active torsions:
REMARK  status: ('A' for Active; 'I' for Inactive)
REMARK       I    between atoms: N_1  and  C_2 
REMARK    1  A    between atoms: C_2  and  C_4 
REMARK    2  A    between atoms: C_7  and  C_20 
REMARK    3  A    between atoms: N_8  and  C_9 
REMARK    4  A    between atoms: C_9  and  C_10 
REMARK    5  A    between atoms: C_10  and  O_11 
REMARK    6  A    between atoms: C_10  and  C_12 
ROOT
HETATM    1  C   UNL     1     -40.636 -52.179  13.331  1.00  0.00     0.100 C 
HETATM    2  C   UNL     1     -40.407 -53.235  14.126  1.00  0.00     0.025 C 
HETATM    3  C   UNL     1     -41.482 -54.055  14.612  1.00  0.00     0.036 C 
HETATM    4  C   UNL     1     -42.750 -53.880  14.191  1.00  0.00     0.121 C 
HETATM    5  N   UNL     1     -43.022 -52.828  13.292  1.00  0.00    -0.307 N 
HETATM    6  C   UNL     1     -42.045 -51.885  12.923  1.00  0.00     0.264 C 
HETATM    7  O   UNL     1     -42.297 -50.890  12.240  1.00  0.00    -0.267 OA
ENDROOT
BRANCH   5   8
HETATM    8  C   UNL     1     -44.323 -52.688  12.623  1.00  0.00     0.169 C 
BRANCH   8   9
HETATM    9  C   UNL     1     -45.106 -51.396  12.957  1.00  0.00     0.169 C 
BRANCH   9  10
HETATM   10  O   UNL     1     -46.282 -51.299  12.146  1.00  0.00    -0.389 OA
HETATM   11  H   UNL     1     -46.735 -52.162  12.191  1.00  0.00     0.210 HD
ENDBRANCH   9  10
BRANCH   9  12
HETATM   12  C   UNL     1     -45.538 -51.267  14.411  1.00  0.00    -0.028 A 
HETATM   13  C   UNL     1     -44.697 -50.791  15.431  1.00  0.00     0.010 A 
HETATM   14  C   UNL     1     -45.149 -50.702  16.750  1.00  0.00     0.001 A 
HETATM   15  C   UNL     1     -46.447 -51.083  17.074  1.00  0.00     0.000 A 
HETATM   16  C   UNL     1     -47.299 -51.547  16.078  1.00  0.00     0.001 A 
HETATM   17  C   UNL     1     -46.849 -51.635  14.758  1.00  0.00     0.010 A 
ENDBRANCH   9  12
ENDBRANCH   8   9
ENDBRANCH   5   8
BRANCH   4  18
HETATM   18  C   UNL     1     -43.811 -54.829  14.729  1.00  0.00     0.432 C 
HETATM   19  F   UNL     1     -44.680 -55.297  13.801  1.00  0.00    -0.165 F 
HETATM   20  F   UNL     1     -43.242 -55.919  15.309  1.00  0.00    -0.165 F 
HETATM   21  F   UNL     1     -44.568 -54.231  15.688  1.00  0.00    -0.165 F 
ENDBRANCH   4  18
BRANCH   1  22
HETATM   22  C   UNL     1     -39.464 -51.402  12.843  1.00  0.00     0.254 C 
HETATM   23  N   UNL     1     -39.565 -50.880  11.593  1.00  0.00    -0.366 N 
HETATM   24  H   UNL     1     -38.766 -50.406  11.196  1.00  0.00     0.159 HD
HETATM   25  H   UNL     1     -40.362 -51.087  10.994  1.00  0.00     0.159 HD
HETATM   26  O   UNL     1     -38.452 -51.235  13.514  1.00  0.00    -0.268 OA
ENDBRANCH   1  22
TORSDOF 6
ENDMDL
MODEL 6
REMARK VINA RESULT:      -6.1      4.639      6.884
REMARK  6 active torsions:
REMARK  status: ('A' for Active; 'I' for Inactive)
REMARK       I    between atoms: N_1  and  C_2 
REMARK    1  A    between atoms: C_2  and  C_4 
REMARK    2  A    between atoms: C_7  and  C_20 
REMARK    3  A    between atoms: N_8  and  C_9 
REMARK    4  A    between atoms: C_9  and  C_10 
REMARK    5  A    between atoms: C_10  and  O_11 
REMARK    6  A    between atoms: C_10  and  C_12 
ROOT
HETATM    1  C   UNL     1     -42.209 -46.318  10.198  1.00  0.00     0.100 C 
HETATM    2  C   UNL     1     -41.051 -45.668  10.387  1.00  0.00     0.025 C 
HETATM    3  C   UNL     1     -40.133 -46.057  11.422  1.00  0.00     0.036 C 
HETATM    4  C   UNL     1     -40.330 -47.165  12.162  1.00  0.00     0.121 C 
HETATM    5  N   UNL     1     -41.499 -47.924  11.940  1.00  0.00    -0.307 N 
HETATM    6  C   UNL     1     -42.518 -47.495  11.069  1.00  0.00     0.264 C 
HETATM    7  O   UNL     1     -43.597 -48.080  10.961  1.00  0.00    -0.267 OA
ENDROOT
BRANCH   5   8
HETATM    8  C   UNL     1     -41.699 -49.247  12.548  1.00  0.00     0.169 C 
BRANCH   8   9
HETATM    9  C   UNL     1     -41.233 -50.448  11.692  1.00  0.00     0.169 C 
BRANCH   9  10
HETATM   10  O   UNL     1     -40.255 -50.032  10.733  1.00  0.00    -0.389 OA
HETATM   11  H   UNL     1     -39.408 -50.443  10.987  1.00  0.00     0.210 HD
ENDBRANCH   9  10
BRANCH   9  12
HETATM   12  C   UNL     1     -40.637 -51.605  12.483  1.00  0.00    -0.028 A 
HETATM   13  C   UNL     1     -39.534 -51.471  13.344  1.00  0.00     0.010 A 
HETATM   14  C   UNL     1     -39.028 -52.572  14.038  1.00  0.00     0.001 A 
HETATM   15  C   UNL     1     -39.612 -53.825  13.888  1.00  0.00     0.000 A 
HETATM   16  C   UNL     1     -40.711 -53.978  13.048  1.00  0.00     0.001 A 
HETATM   17  C   UNL     1     -41.220 -52.877  12.355  1.00  0.00     0.010 A 
ENDBRANCH   9  12
ENDBRANCH   8   9
ENDBRANCH   5   8
BRANCH   4  18
HETATM   18  C   UNL     1     -39.276 -47.518  13.202  1.00  0.00     0.432 C 
HETATM   19  F   UNL     1     -39.766 -48.020  14.361  1.00  0.00    -0.165 F 
HETATM   20  F   UNL     1     -38.404 -48.441  12.720  1.00  0.00    -0.165 F 
HETATM   21  F   UNL     1     -38.538 -46.428  13.545  1.00  0.00    -0.165 F 
ENDBRANCH   4  18
BRANCH   1  22
HETATM   22  C   UNL     1     -43.087 -45.875   9.082  1.00  0.00     0.254 C 
HETATM   23  N   UNL     1     -43.212 -46.731   8.034  1.00  0.00    -0.366 N 
HETATM   24  H   UNL     1     -43.742 -46.439   7.226  1.00  0.00     0.159 HD
HETATM   25  H   UNL     1     -42.661 -47.586   7.980  1.00  0.00     0.159 HD
HETATM   26  O   UNL     1     -43.673 -44.798   9.087  1.00  0.00    -0.268 OA
ENDBRANCH   1  22
TORSDOF 6
ENDMDL
MODEL 7
REMARK VINA RESULT:      -6.1      3.173      6.543
REMARK  6 active torsions:
REMARK  status: ('A' for Active; 'I' for Inactive)
REMARK       I    between atoms: N_1  and  C_2 
REMARK    1  A    between atoms: C_2  and  C_4 
REMARK    2  A    between atoms: C_7  and  C_20 
REMARK    3  A    between atoms: N_8  and  C_9 
REMARK    4  A    between atoms: C_9  and  C_10 
REMARK    5  A    between atoms: C_10  and  O_11 
REMARK    6  A    between atoms: C_10  and  C_12 
ROOT
HETATM    1  C   UNL     1     -44.937 -53.039  14.778  1.00  0.00     0.100 C 
HETATM    2  C   UNL     1     -45.251 -51.865  15.344  1.00  0.00     0.025 C 
HETATM    3  C   UNL     1     -44.495 -50.674  15.070  1.00  0.00     0.036 C 
HETATM    4  C   UNL     1     -43.521 -50.654  14.139  1.00  0.00     0.121 C 
HETATM    5  N   UNL     1     -43.212 -51.852  13.462  1.00  0.00    -0.307 N 
HETATM    6  C   UNL     1     -43.793 -53.084  13.815  1.00  0.00     0.264 C 
HETATM    7  O   UNL     1     -43.441 -54.157  13.320  1.00  0.00    -0.267 OA
ENDROOT
BRANCH   5   8
HETATM    8  C   UNL     1     -42.318 -51.883  12.297  1.00  0.00     0.169 C 
BRANCH   8   9
HETATM    9  C   UNL     1     -40.897 -52.435  12.563  1.00  0.00     0.169 C 
BRANCH   9  10
HETATM   10  O   UNL     1     -40.537 -53.395  11.564  1.00  0.00    -0.389 OA
HETATM   11  H   UNL     1     -39.653 -53.735  11.797  1.00  0.00     0.210 HD
ENDBRANCH   9  10
BRANCH   9  12
HETATM   12  C   UNL     1     -39.798 -51.383  12.607  1.00  0.00    -0.028 A 
HETATM   13  C   UNL     1     -38.700 -51.443  13.482  1.00  0.00     0.010 A 
HETATM   14  C   UNL     1     -37.726 -50.442  13.480  1.00  0.00     0.001 A 
HETATM   15  C   UNL     1     -37.828 -49.365  12.607  1.00  0.00     0.000 A 
HETATM   16  C   UNL     1     -38.901 -49.291  11.724  1.00  0.00     0.001 A 
HETATM   17  C   UNL     1     -39.875 -50.293  11.724  1.00  0.00     0.010 A 
ENDBRANCH   9  12
ENDBRANCH   8   9
ENDBRANCH   5   8
BRANCH   4  18
HETATM   18  C   UNL     1     -42.809 -49.332  13.889  1.00  0.00     0.432 C 
HETATM   19  F   UNL     1     -42.774 -48.940  12.593  1.00  0.00    -0.165 F 
HETATM   20  F   UNL     1     -43.399 -48.321  14.581  1.00  0.00    -0.165 F 
HETATM   21  F   UNL     1     -41.516 -49.382  14.304  1.00  0.00    -0.165 F 
ENDBRANCH   4  18
BRANCH   1  22
HETATM   22  C   UNL     1     -45.792 -54.217  15.087  1.00  0.00     0.254 C 
HETATM   23  N   UNL     1     -46.339 -54.862  14.024  1.00  0.00    -0.366 N 
HETATM   24  H   UNL     1     -46.981 -55.623  14.192  1.00  0.00     0.159 HD
HETATM   25  H   UNL     1     -46.240 -54.502  13.076  1.00  0.00     0.159 HD
HETATM   26  O   UNL     1     -46.007 -54.599  16.232  1.00  0.00    -0.268 OA
ENDBRANCH   1  22
TORSDOF 6
ENDMDL
MODEL 8
REMARK VINA RESULT:      -6.0      7.665      9.222
REMARK  6 active torsions:
REMARK  status: ('A' for Active; 'I' for Inactive)
REMARK       I    between atoms: N_1  and  C_2 
REMARK    1  A    between atoms: C_2  and  C_4 
REMARK    2  A    between atoms: C_7  and  C_20 
REMARK    3  A    between atoms: N_8  and  C_9 
REMARK    4  A    between atoms: C_9  and  C_10 
REMARK    5  A    between atoms: C_10  and  O_11 
REMARK    6  A    between atoms: C_10  and  C_12 
ROOT
HETATM    1  C   UNL     1     -42.949 -46.949   9.425  1.00  0.00     0.100 C 
HETATM    2  C   UNL     1     -42.176 -47.871  10.017  1.00  0.00     0.025 C 
HETATM    3  C   UNL     1     -41.267 -47.522  11.074  1.00  0.00     0.036 C 
HETATM    4  C   UNL     1     -41.242 -46.284  11.604  1.00  0.00     0.121 C 
HETATM    5  N   UNL     1     -42.097 -45.302  11.062  1.00  0.00    -0.307 N 
HETATM    6  C   UNL     1     -42.876 -45.537   9.913  1.00  0.00     0.264 C 
HETATM    7  O   UNL     1     -43.530 -44.653   9.354  1.00  0.00    -0.267 OA
ENDROOT
BRANCH   5   8
HETATM    8  C   UNL     1     -42.289 -43.993  11.701  1.00  0.00     0.169 C 
BRANCH   8   9
HETATM    9  C   UNL     1     -41.283 -42.895  11.281  1.00  0.00     0.169 C 
BRANCH   9  10
HETATM   10  O   UNL     1     -41.819 -42.107  10.211  1.00  0.00    -0.389 OA
HETATM   11  H   UNL     1     -42.760 -41.951  10.413  1.00  0.00     0.210 HD
ENDBRANCH   9  10
BRANCH   9  12
HETATM   12  C   UNL     1     -40.874 -41.940  12.394  1.00  0.00    -0.028 A 
HETATM   13  C   UNL     1     -40.377 -40.646  12.164  1.00  0.00     0.010 A 
HETATM   14  C   UNL     1     -40.011 -39.819  13.228  1.00  0.00     0.001 A 
HETATM   15  C   UNL     1     -40.135 -40.265  14.539  1.00  0.00     0.000 A 
HETATM   16  C   UNL     1     -40.635 -41.540  14.790  1.00  0.00     0.001 A 
HETATM   17  C   UNL     1     -41.004 -42.367  13.726  1.00  0.00     0.010 A 
ENDBRANCH   9  12
ENDBRANCH   8   9
ENDBRANCH   5   8
BRANCH   4  18
HETATM   18  C   UNL     1     -40.276 -46.025  12.751  1.00  0.00     0.432 C 
HETATM   19  F   UNL     1     -39.356 -45.060  12.514  1.00  0.00    -0.165 F 
HETATM   20  F   UNL     1     -40.942 -45.654  13.876  1.00  0.00    -0.165 F 
HETATM   21  F   UNL     1     -39.576 -47.147  13.068  1.00  0.00    -0.165 F 
ENDBRANCH   4  18
BRANCH   1  22
HETATM   22  C   UNL     1     -43.888 -47.399   8.362  1.00  0.00     0.254 C 
HETATM   23  N   UNL     1     -45.196 -47.076   8.537  1.00  0.00    -0.366 N 
HETATM   24  H   UNL     1     -45.877 -47.422   7.875  1.00  0.00     0.159 HD
HETATM   25  H   UNL     1     -45.523 -46.630   9.392  1.00  0.00     0.159 HD
HETATM   26  O   UNL     1     -43.523 -48.031   7.377  1.00  0.00    -0.268 OA
ENDBRANCH   1  22
TORSDOF 6
ENDMDL
MODEL 9
REMARK VINA RESULT:      -6.0      2.477      5.004
REMARK  6 active torsions:
REMARK  status: ('A' for Active; 'I' for Inactive)
REMARK       I    between atoms: N_1  and  C_2 
REMARK    1  A    between atoms: C_2  and  C_4 
REMARK    2  A    between atoms: C_7  and  C_20 
REMARK    3  A    between atoms: N_8  and  C_9 
REMARK    4  A    between atoms: C_9  and  C_10 
REMARK    5  A    between atoms: C_10  and  O_11 
REMARK    6  A    between atoms: C_10  and  C_12 
ROOT
HETATM    1  C   UNL     1     -41.929 -50.427  12.235  1.00  0.00     0.100 C 
HETATM    2  C   UNL     1     -42.925 -49.690  12.746  1.00  0.00     0.025 C 
HETATM    3  C   UNL     1     -44.108 -50.300  13.289  1.00  0.00     0.036 C 
HETATM    4  C   UNL     1     -44.214 -51.636  13.425  1.00  0.00     0.121 C 
HETATM    5  N   UNL     1     -43.153 -52.446  12.971  1.00  0.00    -0.307 N 
HETATM    6  C   UNL     1     -42.052 -51.918  12.270  1.00  0.00     0.264 C 
HETATM    7  O   UNL     1     -41.182 -52.625  11.758  1.00  0.00    -0.267 OA
ENDROOT
BRANCH   5   8
HETATM    8  C   UNL     1     -43.088 -53.885  13.261  1.00  0.00     0.169 C 
BRANCH   8   9
HETATM    9  C   UNL     1     -42.904 -54.255  14.752  1.00  0.00     0.169 C 
BRANCH   9  10
HETATM   10  O   UNL     1     -43.807 -55.302  15.125  1.00  0.00    -0.389 OA
HETATM   11  H   UNL     1     -43.763 -55.388  16.095  1.00  0.00     0.210 HD
ENDBRANCH   9  10
BRANCH   9  12
HETATM   12  C   UNL     1     -41.500 -54.702  15.133  1.00  0.00    -0.028 A 
HETATM   13  C   UNL     1     -40.342 -54.294  14.448  1.00  0.00     0.010 A 
HETATM   14  C   UNL     1     -39.080 -54.744  14.841  1.00  0.00     0.001 A 
HETATM   15  C   UNL     1     -38.948 -55.607  15.923  1.00  0.00     0.000 A 
HETATM   16  C   UNL     1     -40.080 -56.016  16.622  1.00  0.00     0.001 A 
HETATM   17  C   UNL     1     -41.343 -55.564  16.231  1.00  0.00     0.010 A 
ENDBRANCH   9  12
ENDBRANCH   8   9
ENDBRANCH   5   8
BRANCH   4  18
HETATM   18  C   UNL     1     -45.488 -52.183  14.053  1.00  0.00     0.432 C 
HETATM   19  F   UNL     1     -45.969 -53.310  13.476  1.00  0.00    -0.165 F 
HETATM   20  F   UNL     1     -45.299 -52.474  15.367  1.00  0.00    -0.165 F 
HETATM   21  F   UNL     1     -46.496 -51.271  13.999  1.00  0.00    -0.165 F 
ENDBRANCH   4  18
BRANCH   1  22
HETATM   22  C   UNL     1     -40.723 -49.720  11.725  1.00  0.00     0.254 C 
HETATM   23  N   UNL     1     -40.376 -49.970  10.436  1.00  0.00    -0.366 N 
HETATM   24  H   UNL     1     -39.524 -49.565  10.072  1.00  0.00     0.159 HD
HETATM   25  H   UNL     1     -40.863 -50.671   9.881  1.00  0.00     0.159 HD
HETATM   26  O   UNL     1     -40.062 -48.953  12.417  1.00  0.00    -0.268 OA
ENDBRANCH   1  22
TORSDOF 6
ENDMDL
