MODEL 1
REMARK VINA RESULT:      -5.3      0.000      0.000
REMARK  7 active torsions:
REMARK  status: ('A' for Active; 'I' for Inactive)
REMARK    1  A    between atoms: O_2  and  C_3 
REMARK    2  A    between atoms: C_3  and  C_4 
REMARK    3  A    between atoms: C_4  and  N_5 
REMARK    4  A    between atoms: C_8  and  C_9 
REMARK    5  A    between atoms: C_9  and  N_10 
REMARK       I    between atoms: N_10  and  C_11 
REMARK    6  A    between atoms: C_11  and  C_13 
REMARK    7  A    between atoms: C_13  and  N_15 
ROOT
HETATM    1  N   UNL     1     -38.894 -51.465  13.272  1.00  0.00    -0.359 N 
HETATM    2  C   UNL     1     -39.222 -50.138  13.500  1.00  0.00     0.240 C 
HETATM    3  O   UNL     1     -39.904 -49.793  14.462  1.00  0.00    -0.271 OA
HETATM    4  H   UNL     1     -38.167 -51.699  12.606  1.00  0.00     0.162 HD
ENDROOT
BRANCH   1   5
HETATM    5  C   UNL     1     -39.374 -52.472  14.193  1.00  0.00     0.127 C 
BRANCH   5   6
HETATM    6  C   UNL     1     -40.209 -53.582  13.539  1.00  0.00     0.007 C 
HETATM    7  C   UNL     1     -41.067 -53.089  12.362  1.00  0.00     0.036 C 
HETATM    8  C   UNL     1     -42.290 -52.278  12.807  1.00  0.00     0.273 C 
HETATM    9  N   UNL     1     -43.117 -52.955  13.817  1.00  0.00     0.090 N 
HETATM   10  C   UNL     1     -42.301 -53.346  14.971  1.00  0.00     0.273 C 
HETATM   11  C   UNL     1     -41.110 -54.236  14.602  1.00  0.00     0.036 C 
BRANCH   9  12
HETATM   12  C   UNL     1     -43.929 -54.045  13.240  1.00  0.00     0.298 C 
BRANCH  12  13
HETATM   13  C   UNL     1     -45.438 -53.746  13.246  1.00  0.00     0.197 C 
BRANCH  13  14
HETATM   14  O   UNL     1     -45.817 -52.963  12.112  1.00  0.00    -0.394 OA
HETATM   15  C   UNL     1     -46.549 -51.815  12.537  1.00  0.00     0.201 C 
ENDBRANCH  13  14
ENDBRANCH  12  13
ENDBRANCH   9  12
ENDBRANCH   5   6
ENDBRANCH   1   5
BRANCH   2  16
HETATM   16  C   UNL     1     -38.674 -49.145  12.482  1.00  0.00     0.177 C 
HETATM   17  C   UNL     1     -37.619 -49.821  11.611  1.00  0.00     0.043 C 
BRANCH  16  18
HETATM   18  N   UNL     1     -39.724 -48.551  11.661  1.00  0.00    -0.338 N 
HETATM   19  C   UNL     1     -40.805 -49.229  11.157  1.00  0.00     0.109 A 
HETATM   20  C   UNL     1     -41.538 -48.280  10.484  1.00  0.00     0.106 A 
HETATM   21  N   UNL     1     -40.932 -47.055  10.562  1.00  0.00    -0.361 N 
HETATM   22  C   UNL     1     -39.855 -47.242  11.291  1.00  0.00     0.183 A 
ATOM     23  HN  UNL     1     -41.251 -46.180  10.144  1.00  0.00     0.166 HD
ENDBRANCH  16  18
ENDBRANCH   2  16
TORSDOF 7
ENDMDL
MODEL 2
REMARK VINA RESULT:      -5.3      2.567      3.860
REMARK  7 active torsions:
REMARK  status: ('A' for Active; 'I' for Inactive)
REMARK    1  A    between atoms: O_2  and  C_3 
REMARK    2  A    between atoms: C_3  and  C_4 
REMARK    3  A    between atoms: C_4  and  N_5 
REMARK    4  A    between atoms: C_8  and  C_9 
REMARK    5  A    between atoms: C_9  and  N_10 
REMARK       I    between atoms: N_10  and  C_11 
REMARK    6  A    between atoms: C_11  and  C_13 
REMARK    7  A    between atoms: C_13  and  N_15 
ROOT
HETATM    1  N   UNL     1     -42.222 -49.395  11.461  1.00  0.00    -0.359 N 
HETATM    2  C   UNL     1     -41.860 -48.086  11.186  1.00  0.00     0.240 C 
HETATM    3  O   UNL     1     -40.686 -47.727  11.162  1.00  0.00    -0.271 OA
HETATM    4  H   UNL     1     -43.165 -49.711  11.269  1.00  0.00     0.162 HD
ENDROOT
BRANCH   1   5
HETATM    5  C   UNL     1     -41.182 -50.364  11.734  1.00  0.00     0.127 C 
BRANCH   5   6
HETATM    6  C   UNL     1     -41.174 -50.896  13.174  1.00  0.00     0.007 C 
HETATM    7  C   UNL     1     -40.309 -52.154  13.358  1.00  0.00     0.036 C 
HETATM    8  C   UNL     1     -40.956 -53.417  12.776  1.00  0.00     0.273 C 
HETATM    9  N   UNL     1     -42.332 -53.649  13.240  1.00  0.00     0.090 N 
HETATM   10  C   UNL     1     -43.166 -52.470  12.984  1.00  0.00     0.273 C 
HETATM   11  C   UNL     1     -42.619 -51.187  13.618  1.00  0.00     0.036 C 
BRANCH   9  12
HETATM   12  C   UNL     1     -42.380 -54.146  14.630  1.00  0.00     0.298 C 
BRANCH  12  13
HETATM   13  C   UNL     1     -43.812 -54.405  15.132  1.00  0.00     0.197 C 
BRANCH  13  14
HETATM   14  O   UNL     1     -44.390 -55.543  14.490  1.00  0.00    -0.394 OA
HETATM   15  C   UNL     1     -45.646 -55.189  13.914  1.00  0.00     0.201 C 
ENDBRANCH  13  14
ENDBRANCH  12  13
ENDBRANCH   9  12
ENDBRANCH   5   6
ENDBRANCH   1   5
BRANCH   2  16
HETATM   16  C   UNL     1     -43.017 -47.134  10.910  1.00  0.00     0.177 C 
HETATM   17  C   UNL     1     -42.504 -45.699  10.834  1.00  0.00     0.043 C 
BRANCH  16  18
HETATM   18  N   UNL     1     -43.755 -47.487   9.702  1.00  0.00    -0.338 N 
HETATM   19  C   UNL     1     -43.194 -47.669   8.463  1.00  0.00     0.109 A 
HETATM   20  C   UNL     1     -44.241 -48.019   7.645  1.00  0.00     0.106 A 
HETATM   21  N   UNL     1     -45.416 -48.050   8.348  1.00  0.00    -0.361 N 
HETATM   22  C   UNL     1     -45.092 -47.745   9.585  1.00  0.00     0.183 A 
ATOM     23  HN  UNL     1     -46.346 -48.265   7.988  1.00  0.00     0.166 HD
ENDBRANCH  16  18
ENDBRANCH   2  16
TORSDOF 7
ENDMDL
MODEL 3
REMARK VINA RESULT:      -5.1      3.669      6.452
REMARK  7 active torsions:
REMARK  status: ('A' for Active; 'I' for Inactive)
REMARK    1  A    between atoms: O_2  and  C_3 
REMARK    2  A    between atoms: C_3  and  C_4 
REMARK    3  A    between atoms: C_4  and  N_5 
REMARK    4  A    between atoms: C_8  and  C_9 
REMARK    5  A    between atoms: C_9  and  N_10 
REMARK       I    between atoms: N_10  and  C_11 
REMARK    6  A    between atoms: C_11  and  C_13 
REMARK    7  A    between atoms: C_13  and  N_15 
ROOT
HETATM    1  N   UNL     1     -40.509 -48.599  10.960  1.00  0.00    -0.359 N 
HETATM    2  C   UNL     1     -41.861 -48.548  11.256  1.00  0.00     0.240 C 
HETATM    3  O   UNL     1     -42.435 -49.467  11.836  1.00  0.00    -0.271 OA
HETATM    4  H   UNL     1     -40.021 -47.757  10.677  1.00  0.00     0.162 HD
ENDROOT
BRANCH   1   5
HETATM    5  C   UNL     1     -39.753 -49.772  11.341  1.00  0.00     0.127 C 
BRANCH   5   6
HETATM    6  C   UNL     1     -38.335 -49.475  11.849  1.00  0.00     0.007 C 
HETATM    7  C   UNL     1     -37.555 -50.735  12.260  1.00  0.00     0.036 C 
HETATM    8  C   UNL     1     -38.029 -51.326  13.594  1.00  0.00     0.273 C 
HETATM    9  N   UNL     1     -38.076 -50.351  14.693  1.00  0.00     0.090 N 
HETATM   10  C   UNL     1     -38.892 -49.191  14.317  1.00  0.00     0.273 C 
HETATM   11  C   UNL     1     -38.413 -48.499  13.037  1.00  0.00     0.036 C 
BRANCH   9  12
HETATM   12  C   UNL     1     -36.732 -50.018  15.207  1.00  0.00     0.298 C 
BRANCH  12  13
HETATM   13  C   UNL     1     -36.730 -48.810  16.161  1.00  0.00     0.197 C 
BRANCH  13  14
HETATM   14  O   UNL     1     -35.440 -48.199  16.223  1.00  0.00    -0.394 OA
HETATM   15  C   UNL     1     -35.298 -47.490  17.453  1.00  0.00     0.201 C 
ENDBRANCH  13  14
ENDBRANCH  12  13
ENDBRANCH   9  12
ENDBRANCH   5   6
ENDBRANCH   1   5
BRANCH   2  16
HETATM   16  C   UNL     1     -42.579 -47.277  10.819  1.00  0.00     0.177 C 
HETATM   17  C   UNL     1     -41.560 -46.224  10.393  1.00  0.00     0.043 C 
BRANCH  16  18
HETATM   18  N   UNL     1     -43.551 -47.520   9.759  1.00  0.00    -0.338 N 
HETATM   19  C   UNL     1     -44.911 -47.560   9.935  1.00  0.00     0.109 A 
HETATM   20  C   UNL     1     -45.427 -47.780   8.680  1.00  0.00     0.106 A 
HETATM   21  N   UNL     1     -44.422 -47.878   7.755  1.00  0.00    -0.361 N 
HETATM   22  C   UNL     1     -43.307 -47.699   8.427  1.00  0.00     0.183 A 
ATOM     23  HN  UNL     1     -44.520 -48.053   6.754  1.00  0.00     0.166 HD
ENDBRANCH  16  18
ENDBRANCH   2  16
TORSDOF 7
ENDMDL
MODEL 4
REMARK VINA RESULT:      -5.0      2.713      3.752
REMARK  7 active torsions:
REMARK  status: ('A' for Active; 'I' for Inactive)
REMARK    1  A    between atoms: O_2  and  C_3 
REMARK    2  A    between atoms: C_3  and  C_4 
REMARK    3  A    between atoms: C_4  and  N_5 
REMARK    4  A    between atoms: C_8  and  C_9 
REMARK    5  A    between atoms: C_9  and  N_10 
REMARK       I    between atoms: N_10  and  C_11 
REMARK    6  A    between atoms: C_11  and  C_13 
REMARK    7  A    between atoms: C_13  and  N_15 
ROOT
HETATM    1  N   UNL     1     -42.898 -49.646  12.217  1.00  0.00    -0.359 N 
HETATM    2  C   UNL     1     -42.279 -48.493  11.762  1.00  0.00     0.240 C 
HETATM    3  O   UNL     1     -41.058 -48.407  11.660  1.00  0.00    -0.271 OA
HETATM    4  H   UNL     1     -43.896 -49.768  12.093  1.00  0.00     0.162 HD
ENDROOT
BRANCH   1   5
HETATM    5  C   UNL     1     -42.077 -50.779  12.589  1.00  0.00     0.127 C 
BRANCH   5   6
HETATM    6  C   UNL     1     -42.827 -52.118  12.627  1.00  0.00     0.007 C 
HETATM    7  C   UNL     1     -44.258 -52.003  13.177  1.00  0.00     0.036 C 
HETATM    8  C   UNL     1     -44.303 -51.808  14.698  1.00  0.00     0.273 C 
HETATM    9  N   UNL     1     -43.526 -52.804  15.449  1.00  0.00     0.090 N 
HETATM   10  C   UNL     1     -42.141 -52.845  14.968  1.00  0.00     0.273 C 
HETATM   11  C   UNL     1     -42.025 -53.128  13.467  1.00  0.00     0.036 C 
BRANCH   9  12
HETATM   12  C   UNL     1     -44.198 -54.119  15.500  1.00  0.00     0.298 C 
BRANCH  12  13
HETATM   13  C   UNL     1     -45.704 -54.018  15.803  1.00  0.00     0.197 C 
BRANCH  13  14
HETATM   14  O   UNL     1     -46.467 -54.847  14.924  1.00  0.00    -0.394 OA
HETATM   15  C   UNL     1     -45.648 -55.292  13.844  1.00  0.00     0.201 C 
ENDBRANCH  13  14
ENDBRANCH  12  13
ENDBRANCH   9  12
ENDBRANCH   5   6
ENDBRANCH   1   5
BRANCH   2  16
HETATM   16  C   UNL     1     -43.218 -47.351  11.392  1.00  0.00     0.177 C 
HETATM   17  C   UNL     1     -42.502 -46.014  11.557  1.00  0.00     0.043 C 
BRANCH  16  18
HETATM   18  N   UNL     1     -43.760 -47.488  10.045  1.00  0.00    -0.338 N 
HETATM   19  C   UNL     1     -43.011 -47.690   8.913  1.00  0.00     0.109 A 
HETATM   20  C   UNL     1     -43.927 -47.792   7.893  1.00  0.00     0.106 A 
HETATM   21  N   UNL     1     -45.202 -47.654   8.371  1.00  0.00    -0.361 N 
HETATM   22  C   UNL     1     -45.074 -47.492   9.669  1.00  0.00     0.183 A 
ATOM     23  HN  UNL     1     -46.069 -47.673   7.833  1.00  0.00     0.166 HD
ENDBRANCH  16  18
ENDBRANCH   2  16
TORSDOF 7
ENDMDL
MODEL 5
REMARK VINA RESULT:      -4.9      2.120      3.078
REMARK  7 active torsions:
REMARK  status: ('A' for Active; 'I' for Inactive)
REMARK    1  A    between atoms: O_2  and  C_3 
REMARK    2  A    between atoms: C_3  and  C_4 
REMARK    3  A    between atoms: C_4  and  N_5 
REMARK    4  A    between atoms: C_8  and  C_9 
REMARK    5  A    between atoms: C_9  and  N_10 
REMARK       I    between atoms: N_10  and  C_11 
REMARK    6  A    between atoms: C_11  and  C_13 
REMARK    7  A    between atoms: C_13  and  N_15 
ROOT
HETATM    1  N   UNL     1     -41.728 -50.034  11.481  1.00  0.00    -0.359 N 
HETATM    2  C   UNL     1     -40.890 -48.935  11.375  1.00  0.00     0.240 C 
HETATM    3  O   UNL     1     -39.745 -48.946  11.820  1.00  0.00    -0.271 OA
HETATM    4  H   UNL     1     -42.578 -50.077  10.930  1.00  0.00     0.162 HD
ENDROOT
BRANCH   1   5
HETATM    5  C   UNL     1     -41.238 -51.226  12.139  1.00  0.00     0.127 C 
BRANCH   5   6
HETATM    6  C   UNL     1     -41.988 -51.591  13.428  1.00  0.00     0.007 C 
HETATM    7  C   UNL     1     -41.477 -52.882  14.089  1.00  0.00     0.036 C 
HETATM    8  C   UNL     1     -41.912 -54.150  13.344  1.00  0.00     0.273 C 
HETATM    9  N   UNL     1     -43.358 -54.223  13.088  1.00  0.00     0.090 N 
HETATM   10  C   UNL     1     -43.817 -53.021  12.384  1.00  0.00     0.273 C 
HETATM   11  C   UNL     1     -43.491 -51.720  13.125  1.00  0.00     0.036 C 
BRANCH   9  12
HETATM   12  C   UNL     1     -44.128 -54.556  14.304  1.00  0.00     0.298 C 
BRANCH  12  13
HETATM   13  C   UNL     1     -45.563 -55.023  14.004  1.00  0.00     0.197 C 
BRANCH  13  14
HETATM   14  O   UNL     1     -46.486 -54.525  14.976  1.00  0.00    -0.394 OA
HETATM   15  C   UNL     1     -46.876 -53.195  14.639  1.00  0.00     0.201 C 
ENDBRANCH  13  14
ENDBRANCH  12  13
ENDBRANCH   9  12
ENDBRANCH   5   6
ENDBRANCH   1   5
BRANCH   2  16
HETATM   16  C   UNL     1     -41.486 -47.725  10.667  1.00  0.00     0.177 C 
HETATM   17  C   UNL     1     -43.010 -47.780  10.735  1.00  0.00     0.043 C 
BRANCH  16  18
HETATM   18  N   UNL     1     -40.987 -46.463  11.202  1.00  0.00    -0.338 N 
HETATM   19  C   UNL     1     -40.081 -45.646  10.573  1.00  0.00     0.109 A 
HETATM   20  C   UNL     1     -39.929 -44.569  11.412  1.00  0.00     0.106 A 
HETATM   21  N   UNL     1     -40.709 -44.711  12.528  1.00  0.00    -0.361 N 
HETATM   22  C   UNL     1     -41.349 -45.848  12.367  1.00  0.00     0.183 A 
ATOM     23  HN  UNL     1     -40.780 -44.069  13.318  1.00  0.00     0.166 HD
ENDBRANCH  16  18
ENDBRANCH   2  16
TORSDOF 7
ENDMDL
MODEL 6
REMARK VINA RESULT:      -4.7      2.587      5.658
REMARK  7 active torsions:
REMARK  status: ('A' for Active; 'I' for Inactive)
REMARK    1  A    between atoms: O_2  and  C_3 
REMARK    2  A    between atoms: C_3  and  C_4 
REMARK    3  A    between atoms: C_4  and  N_5 
REMARK    4  A    between atoms: C_8  and  C_9 
REMARK    5  A    between atoms: C_9  and  N_10 
REMARK       I    between atoms: N_10  and  C_11 
REMARK    6  A    between atoms: C_11  and  C_13 
REMARK    7  A    between atoms: C_13  and  N_15 
ROOT
HETATM    1  N   UNL     1     -39.313 -48.956  12.818  1.00  0.00    -0.359 N 
HETATM    2  C   UNL     1     -39.883 -49.780  13.774  1.00  0.00     0.240 C 
HETATM    3  O   UNL     1     -40.852 -49.428  14.443  1.00  0.00    -0.271 OA
HETATM    4  H   UNL     1     -38.662 -49.339  12.142  1.00  0.00     0.162 HD
ENDROOT
BRANCH   1   5
HETATM    5  C   UNL     1     -39.875 -47.639  12.607  1.00  0.00     0.127 C 
BRANCH   5   6
HETATM    6  C   UNL     1     -40.297 -47.356  11.158  1.00  0.00     0.007 C 
HETATM    7  C   UNL     1     -40.924 -45.965  10.964  1.00  0.00     0.036 C 
HETATM    8  C   UNL     1     -42.351 -45.866  11.517  1.00  0.00     0.273 C 
HETATM    9  N   UNL     1     -43.251 -46.924  11.033  1.00  0.00     0.090 N 
HETATM   10  C   UNL     1     -42.678 -48.247  11.299  1.00  0.00     0.273 C 
HETATM   11  C   UNL     1     -41.284 -48.442  10.693  1.00  0.00     0.036 C 
BRANCH   9  12
HETATM   12  C   UNL     1     -43.673 -46.706   9.635  1.00  0.00     0.298 C 
BRANCH  12  13
HETATM   13  C   UNL     1     -45.132 -47.120   9.371  1.00  0.00     0.197 C 
BRANCH  13  14
HETATM   14  O   UNL     1     -45.215 -48.091   8.326  1.00  0.00    -0.394 OA
HETATM   15  C   UNL     1     -46.486 -48.738   8.365  1.00  0.00     0.201 C 
ENDBRANCH  13  14
ENDBRANCH  12  13
ENDBRANCH   9  12
ENDBRANCH   5   6
ENDBRANCH   1   5
BRANCH   2  16
HETATM   16  C   UNL     1     -39.230 -51.149  13.930  1.00  0.00     0.177 C 
HETATM   17  C   UNL     1     -38.988 -51.445  15.407  1.00  0.00     0.043 C 
BRANCH  16  18
HETATM   18  N   UNL     1     -40.009 -52.213  13.306  1.00  0.00    -0.338 N 
HETATM   19  C   UNL     1     -40.125 -53.490  13.794  1.00  0.00     0.109 A 
HETATM   20  C   UNL     1     -40.968 -54.131  12.917  1.00  0.00     0.106 A 
HETATM   21  N   UNL     1     -41.360 -53.283  11.915  1.00  0.00    -0.361 N 
HETATM   22  C   UNL     1     -40.784 -52.133  12.184  1.00  0.00     0.183 A 
ATOM     23  HN  UNL     1     -41.970 -53.500  11.127  1.00  0.00     0.166 HD
ENDBRANCH  16  18
ENDBRANCH   2  16
TORSDOF 7
ENDMDL
MODEL 7
REMARK VINA RESULT:      -4.6      2.725      6.930
REMARK  7 active torsions:
REMARK  status: ('A' for Active; 'I' for Inactive)
REMARK    1  A    between atoms: O_2  and  C_3 
REMARK    2  A    between atoms: C_3  and  C_4 
REMARK    3  A    between atoms: C_4  and  N_5 
REMARK    4  A    between atoms: C_8  and  C_9 
REMARK    5  A    between atoms: C_9  and  N_10 
REMARK       I    between atoms: N_10  and  C_11 
REMARK    6  A    between atoms: C_11  and  C_13 
REMARK    7  A    between atoms: C_13  and  N_15 
ROOT
HETATM    1  N   UNL     1     -41.079 -51.123  11.499  1.00  0.00    -0.359 N 
HETATM    2  C   UNL     1     -40.530 -51.928  12.483  1.00  0.00     0.240 C 
HETATM    3  O   UNL     1     -39.624 -51.536  13.214  1.00  0.00    -0.271 OA
HETATM    4  H   UNL     1     -41.953 -51.386  11.058  1.00  0.00     0.162 HD
ENDROOT
BRANCH   1   5
HETATM    5  C   UNL     1     -40.563 -49.782  11.325  1.00  0.00     0.127 C 
BRANCH   5   6
HETATM    6  C   UNL     1     -41.361 -48.696  12.060  1.00  0.00     0.007 C 
HETATM    7  C   UNL     1     -42.647 -48.279  11.326  1.00  0.00     0.036 C 
HETATM    8  C   UNL     1     -42.379 -47.405  10.095  1.00  0.00     0.273 C 
HETATM    9  N   UNL     1     -41.524 -46.241  10.365  1.00  0.00     0.090 N 
HETATM   10  C   UNL     1     -40.265 -46.662  10.991  1.00  0.00     0.273 C 
HETATM   11  C   UNL     1     -40.464 -47.464  12.280  1.00  0.00     0.036 C 
BRANCH   9  12
HETATM   12  C   UNL     1     -42.242 -45.172  11.088  1.00  0.00     0.298 C 
BRANCH  12  13
HETATM   13  C   UNL     1     -41.398 -43.900  11.284  1.00  0.00     0.197 C 
BRANCH  13  14
HETATM   14  O   UNL     1     -41.866 -42.834  10.455  1.00  0.00    -0.394 OA
HETATM   15  C   UNL     1     -42.795 -42.028  11.178  1.00  0.00     0.201 C 
ENDBRANCH  13  14
ENDBRANCH  12  13
ENDBRANCH   9  12
ENDBRANCH   5   6
ENDBRANCH   1   5
BRANCH   2  16
HETATM   16  C   UNL     1     -41.134 -53.323  12.598  1.00  0.00     0.177 C 
HETATM   17  C   UNL     1     -40.207 -54.227  13.404  1.00  0.00     0.043 C 
BRANCH  16  18
HETATM   18  N   UNL     1     -42.474 -53.305  13.173  1.00  0.00    -0.338 N 
HETATM   19  C   UNL     1     -43.625 -53.621  12.495  1.00  0.00     0.109 A 
HETATM   20  C   UNL     1     -44.630 -53.504  13.425  1.00  0.00     0.106 A 
HETATM   21  N   UNL     1     -44.125 -53.124  14.639  1.00  0.00    -0.361 N 
HETATM   22  C   UNL     1     -42.825 -53.031  14.465  1.00  0.00     0.183 A 
ATOM     23  HN  UNL     1     -44.647 -52.950  15.498  1.00  0.00     0.166 HD
ENDBRANCH  16  18
ENDBRANCH   2  16
TORSDOF 7
ENDMDL
MODEL 8
REMARK VINA RESULT:      -4.6      2.404      7.052
REMARK  7 active torsions:
REMARK  status: ('A' for Active; 'I' for Inactive)
REMARK    1  A    between atoms: O_2  and  C_3 
REMARK    2  A    between atoms: C_3  and  C_4 
REMARK    3  A    between atoms: C_4  and  N_5 
REMARK    4  A    between atoms: C_8  and  C_9 
REMARK    5  A    between atoms: C_9  and  N_10 
REMARK       I    between atoms: N_10  and  C_11 
REMARK    6  A    between atoms: C_11  and  C_13 
REMARK    7  A    between atoms: C_13  and  N_15 
ROOT
HETATM    1  N   UNL     1     -41.411 -52.379  13.490  1.00  0.00    -0.359 N 
HETATM    2  C   UNL     1     -42.543 -53.088  13.124  1.00  0.00     0.240 C 
HETATM    3  O   UNL     1     -43.172 -52.826  12.102  1.00  0.00    -0.271 OA
HETATM    4  H   UNL     1     -40.797 -52.743  14.211  1.00  0.00     0.162 HD
ENDROOT
BRANCH   1   5
HETATM    5  C   UNL     1     -40.961 -51.295  12.644  1.00  0.00     0.127 C 
BRANCH   5   6
HETATM    6  C   UNL     1     -41.398 -49.901  13.115  1.00  0.00     0.007 C 
HETATM    7  C   UNL     1     -42.285 -49.161  12.099  1.00  0.00     0.036 C 
HETATM    8  C   UNL     1     -41.501 -48.630  10.893  1.00  0.00     0.273 C 
HETATM    9  N   UNL     1     -40.326 -47.824  11.254  1.00  0.00     0.090 N 
HETATM   10  C   UNL     1     -39.447 -48.573  12.159  1.00  0.00     0.273 C 
HETATM   11  C   UNL     1     -40.151 -49.055  13.431  1.00  0.00     0.036 C 
BRANCH   9  12
HETATM   12  C   UNL     1     -40.695 -46.476  11.731  1.00  0.00     0.298 C 
BRANCH  12  13
HETATM   13  C   UNL     1     -40.142 -45.346  10.844  1.00  0.00     0.197 C 
BRANCH  13  14
HETATM   14  O   UNL     1     -41.154 -44.386  10.535  1.00  0.00    -0.394 OA
HETATM   15  C   UNL     1     -42.440 -44.919  10.843  1.00  0.00     0.201 C 
ENDBRANCH  13  14
ENDBRANCH  12  13
ENDBRANCH   9  12
ENDBRANCH   5   6
ENDBRANCH   1   5
BRANCH   2  16
HETATM   16  C   UNL     1     -42.945 -54.212  14.071  1.00  0.00     0.177 C 
HETATM   17  C   UNL     1     -42.143 -54.114  15.366  1.00  0.00     0.043 C 
BRANCH  16  18
HETATM   18  N   UNL     1     -44.378 -54.226  14.346  1.00  0.00    -0.338 N 
HETATM   19  C   UNL     1     -45.035 -53.317  15.136  1.00  0.00     0.109 A 
HETATM   20  C   UNL     1     -46.357 -53.690  15.085  1.00  0.00     0.106 A 
HETATM   21  N   UNL     1     -46.518 -54.795  14.293  1.00  0.00    -0.361 N 
HETATM   22  C   UNL     1     -45.316 -55.084  13.847  1.00  0.00     0.183 A 
ATOM     23  HN  UNL     1     -47.387 -55.290  14.093  1.00  0.00     0.166 HD
ENDBRANCH  16  18
ENDBRANCH   2  16
TORSDOF 7
ENDMDL
MODEL 9
REMARK VINA RESULT:      -4.6      1.990      5.992
REMARK  7 active torsions:
REMARK  status: ('A' for Active; 'I' for Inactive)
REMARK    1  A    between atoms: O_2  and  C_3 
REMARK    2  A    between atoms: C_3  and  C_4 
REMARK    3  A    between atoms: C_4  and  N_5 
REMARK    4  A    between atoms: C_8  and  C_9 
REMARK    5  A    between atoms: C_9  and  N_10 
REMARK       I    between atoms: N_10  and  C_11 
REMARK    6  A    between atoms: C_11  and  C_13 
REMARK    7  A    between atoms: C_13  and  N_15 
ROOT
HETATM    1  N   UNL     1     -40.228 -52.668  14.166  1.00  0.00    -0.359 N 
HETATM    2  C   UNL     1     -40.876 -53.278  13.104  1.00  0.00     0.240 C 
HETATM    3  O   UNL     1     -40.469 -53.178  11.949  1.00  0.00    -0.271 OA
HETATM    4  H   UNL     1     -40.453 -52.934  15.117  1.00  0.00     0.162 HD
ENDROOT
BRANCH   1   5
HETATM    5  C   UNL     1     -39.040 -51.885  13.902  1.00  0.00     0.127 C 
BRANCH   5   6
HETATM    6  C   UNL     1     -39.194 -50.384  14.190  1.00  0.00     0.007 C 
HETATM    7  C   UNL     1     -40.547 -49.810  13.737  1.00  0.00     0.036 C 
HETATM    8  C   UNL     1     -40.649 -49.642  12.216  1.00  0.00     0.273 C 
HETATM    9  N   UNL     1     -39.532 -48.893  11.623  1.00  0.00     0.090 N 
HETATM   10  C   UNL     1     -38.250 -49.501  11.997  1.00  0.00     0.273 C 
HETATM   11  C   UNL     1     -38.047 -49.614  13.511  1.00  0.00     0.036 C 
BRANCH   9  12
HETATM   12  C   UNL     1     -39.624 -47.443  11.887  1.00  0.00     0.298 C 
BRANCH  12  13
HETATM   13  C   UNL     1     -40.628 -46.722  10.970  1.00  0.00     0.197 C 
BRANCH  13  14
HETATM   14  O   UNL     1     -40.917 -45.407  11.447  1.00  0.00    -0.394 OA
HETATM   15  C   UNL     1     -42.327 -45.194  11.459  1.00  0.00     0.201 C 
ENDBRANCH  13  14
ENDBRANCH  12  13
ENDBRANCH   9  12
ENDBRANCH   5   6
ENDBRANCH   1   5
BRANCH   2  16
HETATM   16  C   UNL     1     -42.117 -54.083  13.472  1.00  0.00     0.177 C 
HETATM   17  C   UNL     1     -42.073 -54.461  14.949  1.00  0.00     0.043 C 
BRANCH  16  18
HETATM   18  N   UNL     1     -43.354 -53.381  13.150  1.00  0.00    -0.338 N 
HETATM   19  C   UNL     1     -44.563 -53.986  12.919  1.00  0.00     0.109 A 
HETATM   20  C   UNL     1     -45.441 -52.952  12.692  1.00  0.00     0.106 A 
HETATM   21  N   UNL     1     -44.800 -51.745  12.775  1.00  0.00    -0.361 N 
HETATM   22  C   UNL     1     -43.551 -52.031  13.071  1.00  0.00     0.183 A 
ATOM     23  HN  UNL     1     -45.206 -50.820  12.637  1.00  0.00     0.166 HD
ENDBRANCH  16  18
ENDBRANCH   2  16
TORSDOF 7
ENDMDL
