MODEL 1
REMARK VINA RESULT:      -6.3      0.000      0.000
REMARK  7 active torsions:
REMARK  status: ('A' for Active; 'I' for Inactive)
REMARK    1  A    between atoms: N_11  and  C_12 
REMARK    2  A    between atoms: C_12  and  C_13 
REMARK    3  A    between atoms: C_13  and  O_14 
REMARK    4  A    between atoms: C_13  and  C_15 
REMARK    5  A    between atoms: C_15  and  O_16 
REMARK    6  A    between atoms: O_16  and  C_17 
REMARK    7  A    between atoms: C_17  and  C_18 
ROOT
HETATM    1  C   UNL     1     -44.903 -54.923  14.121  1.00  0.00     0.164 C 
HETATM    2  N   UNL     1     -43.542 -54.431  14.216  1.00  0.00    -0.269 N 
HETATM    3  C   UNL     1     -42.653 -55.095  15.087  1.00  0.00     0.332 A 
HETATM    4  O   UNL     1     -43.011 -56.071  15.752  1.00  0.00    -0.246 OA
HETATM    5  N   UNL     1     -41.351 -54.594  15.165  1.00  0.00    -0.287 N 
HETATM    6  C   UNL     1     -40.369 -55.224  16.030  1.00  0.00     0.163 C 
HETATM    7  C   UNL     1     -41.000 -53.503  14.407  1.00  0.00     0.145 A 
HETATM    8  N   UNL     1     -39.779 -52.901  14.385  1.00  0.00    -0.336 N 
ATOM      9  HN  UNL     1     -38.947 -53.154  14.919  1.00  0.00     0.168 HD
HETATM   10  C   UNL     1     -39.915 -51.915  13.519  1.00  0.00     0.185 A 
HETATM   11  N   UNL     1     -41.179 -51.875  12.990  1.00  0.00    -0.333 N 
HETATM   12  C   UNL     1     -41.884 -52.896  13.568  1.00  0.00     0.149 A 
HETATM   13  C   UNL     1     -43.223 -53.339  13.401  1.00  0.00     0.282 A 
HETATM   14  O   UNL     1     -44.008 -52.812  12.615  1.00  0.00    -0.265 OA
ENDROOT
BRANCH  11  15
HETATM   15  C   UNL     1     -41.666 -50.895  12.037  1.00  0.00     0.164 C 
BRANCH  15  16
HETATM   16  C   UNL     1     -40.576 -49.916  11.576  1.00  0.00     0.160 C 
BRANCH  16  17
HETATM   17  O   UNL     1     -40.397 -49.943  10.156  1.00  0.00    -0.392 OA
HETATM   18  H   UNL     1     -40.783 -49.128   9.774  1.00  0.00     0.210 HD
ENDBRANCH  16  17
BRANCH  16  19
HETATM   19  C   UNL     1     -40.908 -48.479  11.990  1.00  0.00     0.201 C 
BRANCH  19  20
HETATM   20  O   UNL     1     -41.262 -47.698  10.852  1.00  0.00    -0.382 OA
BRANCH  20  21
HETATM   21  C   UNL     1     -42.489 -46.996  11.077  1.00  0.00     0.232 C 
BRANCH  21  22
HETATM   22  C   UNL     1     -43.421 -47.352   9.980  1.00  0.00     0.076 A 
HETATM   23  C   UNL     1     -44.795 -47.412   9.869  1.00  0.00     0.037 A 
HETATM   24  C   UNL     1     -45.074 -47.794   8.535  1.00  0.00     0.027 A 
HETATM   25  C   UNL     1     -43.855 -47.939   7.915  1.00  0.00     0.142 A 
HETATM   26  O   UNL     1     -42.847 -47.670   8.783  1.00  0.00    -0.325 OA
ENDBRANCH  21  22
ENDBRANCH  20  21
ENDBRANCH  19  20
ENDBRANCH  16  19
ENDBRANCH  15  16
ENDBRANCH  11  15
TORSDOF 7
ENDMDL
MODEL 2
REMARK VINA RESULT:      -6.3      3.421      8.071
REMARK  7 active torsions:
REMARK  status: ('A' for Active; 'I' for Inactive)
REMARK    1  A    between atoms: N_11  and  C_12 
REMARK    2  A    between atoms: C_12  and  C_13 
REMARK    3  A    between atoms: C_13  and  O_14 
REMARK    4  A    between atoms: C_13  and  C_15 
REMARK    5  A    between atoms: C_15  and  O_16 
REMARK    6  A    between atoms: O_16  and  C_17 
REMARK    7  A    between atoms: C_17  and  C_18 
ROOT
HETATM    1  C   UNL     1     -41.080 -43.226  11.409  1.00  0.00     0.164 C 
HETATM    2  N   UNL     1     -41.433 -44.585  11.048  1.00  0.00    -0.269 N 
HETATM    3  C   UNL     1     -42.607 -44.791  10.293  1.00  0.00     0.332 A 
HETATM    4  O   UNL     1     -43.319 -43.848   9.941  1.00  0.00    -0.246 OA
HETATM    5  N   UNL     1     -42.926 -46.111   9.966  1.00  0.00    -0.287 N 
HETATM    6  C   UNL     1     -44.112 -46.411   9.183  1.00  0.00     0.163 C 
HETATM    7  C   UNL     1     -42.102 -47.129  10.383  1.00  0.00     0.145 A 
HETATM    8  N   UNL     1     -42.288 -48.458  10.151  1.00  0.00    -0.336 N 
ATOM      9  HN  UNL     1     -43.053 -48.903   9.644  1.00  0.00     0.168 HD
HETATM   10  C   UNL     1     -41.255 -49.039  10.729  1.00  0.00     0.185 A 
HETATM   11  N   UNL     1     -40.421 -48.125  11.318  1.00  0.00    -0.333 N 
HETATM   12  C   UNL     1     -40.970 -46.890  11.101  1.00  0.00     0.149 A 
HETATM   13  C   UNL     1     -40.547 -45.585  11.467  1.00  0.00     0.282 A 
HETATM   14  O   UNL     1     -39.505 -45.368  12.083  1.00  0.00    -0.265 OA
ENDROOT
BRANCH  11  15
HETATM   15  C   UNL     1     -39.217 -48.436  12.065  1.00  0.00     0.164 C 
BRANCH  15  16
HETATM   16  C   UNL     1     -38.633 -49.812  11.712  1.00  0.00     0.160 C 
BRANCH  16  17
HETATM   17  O   UNL     1     -37.797 -49.758  10.551  1.00  0.00    -0.392 OA
HETATM   18  H   UNL     1     -37.442 -48.850  10.460  1.00  0.00     0.210 HD
ENDBRANCH  16  17
BRANCH  16  19
HETATM   19  C   UNL     1     -37.807 -50.380  12.871  1.00  0.00     0.201 C 
BRANCH  19  20
HETATM   20  O   UNL     1     -38.023 -51.782  13.001  1.00  0.00    -0.382 OA
BRANCH  20  21
HETATM   21  C   UNL     1     -38.828 -52.069  14.149  1.00  0.00     0.232 C 
BRANCH  21  22
HETATM   22  C   UNL     1     -40.040 -52.786  13.683  1.00  0.00     0.076 A 
HETATM   23  C   UNL     1     -40.505 -54.077  13.822  1.00  0.00     0.037 A 
HETATM   24  C   UNL     1     -41.757 -54.126  13.164  1.00  0.00     0.027 A 
HETATM   25  C   UNL     1     -41.979 -52.863  12.668  1.00  0.00     0.142 A 
HETATM   26  O   UNL     1     -40.945 -52.042  12.980  1.00  0.00    -0.325 OA
ENDBRANCH  21  22
ENDBRANCH  20  21
ENDBRANCH  19  20
ENDBRANCH  16  19
ENDBRANCH  15  16
ENDBRANCH  11  15
TORSDOF 7
ENDMDL
MODEL 3
REMARK VINA RESULT:      -6.2      3.126      7.780
REMARK  7 active torsions:
REMARK  status: ('A' for Active; 'I' for Inactive)
REMARK    1  A    between atoms: N_11  and  C_12 
REMARK    2  A    between atoms: C_12  and  C_13 
REMARK    3  A    between atoms: C_13  and  O_14 
REMARK    4  A    between atoms: C_13  and  C_15 
REMARK    5  A    between atoms: C_15  and  O_16 
REMARK    6  A    between atoms: O_16  and  C_17 
REMARK    7  A    between atoms: C_17  and  C_18 
ROOT
HETATM    1  C   UNL     1     -43.597 -45.929   9.197  1.00  0.00     0.164 C 
HETATM    2  N   UNL     1     -42.546 -45.945  10.195  1.00  0.00    -0.269 N 
HETATM    3  C   UNL     1     -42.231 -44.737  10.852  1.00  0.00     0.332 A 
HETATM    4  O   UNL     1     -42.830 -43.689  10.595  1.00  0.00    -0.246 OA
HETATM    5  N   UNL     1     -41.210 -44.780  11.804  1.00  0.00    -0.287 N 
HETATM    6  C   UNL     1     -40.829 -43.583  12.533  1.00  0.00     0.163 C 
HETATM    7  C   UNL     1     -40.569 -45.970  12.054  1.00  0.00     0.145 A 
HETATM    8  N   UNL     1     -39.554 -46.164  12.941  1.00  0.00    -0.336 N 
ATOM      9  HN  UNL     1     -39.112 -45.472  13.546  1.00  0.00     0.168 HD
HETATM   10  C   UNL     1     -39.272 -47.448  12.840  1.00  0.00     0.185 A 
HETATM   11  N   UNL     1     -40.074 -48.075  11.922  1.00  0.00    -0.333 N 
HETATM   12  C   UNL     1     -40.909 -47.120  11.408  1.00  0.00     0.149 A 
HETATM   13  C   UNL     1     -41.945 -47.186  10.440  1.00  0.00     0.282 A 
HETATM   14  O   UNL     1     -42.276 -48.233   9.885  1.00  0.00    -0.265 OA
ENDROOT
BRANCH  11  15
HETATM   15  C   UNL     1     -39.999 -49.475  11.549  1.00  0.00     0.164 C 
BRANCH  15  16
HETATM   16  C   UNL     1     -40.886 -50.374  12.422  1.00  0.00     0.160 C 
BRANCH  16  17
HETATM   17  O   UNL     1     -42.047 -50.829  11.718  1.00  0.00    -0.392 OA
HETATM   18  H   UNL     1     -42.012 -50.491  10.799  1.00  0.00     0.210 HD
ENDBRANCH  16  17
BRANCH  16  19
HETATM   19  C   UNL     1     -40.115 -51.603  12.916  1.00  0.00     0.201 C 
BRANCH  19  20
HETATM   20  O   UNL     1     -40.507 -52.766  12.193  1.00  0.00    -0.382 OA
BRANCH  20  21
HETATM   21  C   UNL     1     -40.614 -53.897  13.065  1.00  0.00     0.232 C 
BRANCH  21  22
HETATM   22  C   UNL     1     -42.045 -54.064  13.415  1.00  0.00     0.076 A 
HETATM   23  C   UNL     1     -42.712 -54.640  14.477  1.00  0.00     0.037 A 
HETATM   24  C   UNL     1     -44.093 -54.444  14.237  1.00  0.00     0.027 A 
HETATM   25  C   UNL     1     -44.182 -53.760  13.048  1.00  0.00     0.142 A 
HETATM   26  O   UNL     1     -42.945 -53.523  12.543  1.00  0.00    -0.325 OA
ENDBRANCH  21  22
ENDBRANCH  20  21
ENDBRANCH  19  20
ENDBRANCH  16  19
ENDBRANCH  15  16
ENDBRANCH  11  15
TORSDOF 7
ENDMDL
MODEL 4
REMARK VINA RESULT:      -6.1      3.769      5.923
REMARK  7 active torsions:
REMARK  status: ('A' for Active; 'I' for Inactive)
REMARK    1  A    between atoms: N_11  and  C_12 
REMARK    2  A    between atoms: C_12  and  C_13 
REMARK    3  A    between atoms: C_13  and  O_14 
REMARK    4  A    between atoms: C_13  and  C_15 
REMARK    5  A    between atoms: C_15  and  O_16 
REMARK    6  A    between atoms: O_16  and  C_17 
REMARK    7  A    between atoms: C_17  and  C_18 
ROOT
HETATM    1  C   UNL     1     -40.312 -55.163  16.188  1.00  0.00     0.164 C 
HETATM    2  N   UNL     1     -41.039 -54.530  15.105  1.00  0.00    -0.269 N 
HETATM    3  C   UNL     1     -40.363 -53.573  14.318  1.00  0.00     0.332 A 
HETATM    4  O   UNL     1     -39.185 -53.279  14.534  1.00  0.00    -0.246 OA
HETATM    5  N   UNL     1     -41.091 -52.974  13.287  1.00  0.00    -0.287 N 
HETATM    6  C   UNL     1     -40.469 -51.986  12.424  1.00  0.00     0.163 C 
HETATM    7  C   UNL     1     -42.402 -53.333  13.088  1.00  0.00     0.145 A 
HETATM    8  N   UNL     1     -43.235 -52.830  12.136  1.00  0.00    -0.336 N 
ATOM      9  HN  UNL     1     -43.027 -52.119  11.434  1.00  0.00     0.168 HD
HETATM   10  C   UNL     1     -44.373 -53.470  12.325  1.00  0.00     0.185 A 
HETATM   11  N   UNL     1     -44.288 -54.362  13.363  1.00  0.00    -0.333 N 
HETATM   12  C   UNL     1     -43.017 -54.270  13.861  1.00  0.00     0.149 A 
HETATM   13  C   UNL     1     -42.361 -54.951  14.920  1.00  0.00     0.282 A 
HETATM   14  O   UNL     1     -42.907 -55.824  15.593  1.00  0.00    -0.265 OA
ENDROOT
BRANCH  11  15
HETATM   15  C   UNL     1     -45.370 -55.197  13.851  1.00  0.00     0.164 C 
BRANCH  15  16
HETATM   16  C   UNL     1     -46.450 -54.400  14.597  1.00  0.00     0.160 C 
BRANCH  16  17
HETATM   17  O   UNL     1     -47.673 -55.134  14.715  1.00  0.00    -0.392 OA
HETATM   18  H   UNL     1     -47.594 -55.965  14.202  1.00  0.00     0.210 HD
ENDBRANCH  16  17
BRANCH  16  19
HETATM   19  C   UNL     1     -45.984 -54.017  16.006  1.00  0.00     0.201 C 
BRANCH  19  20
HETATM   20  O   UNL     1     -45.806 -52.608  16.111  1.00  0.00    -0.382 OA
BRANCH  20  21
HETATM   21  C   UNL     1     -44.537 -52.296  16.694  1.00  0.00     0.232 C 
BRANCH  21  22
HETATM   22  C   UNL     1     -43.861 -51.316  15.810  1.00  0.00     0.076 A 
HETATM   23  C   UNL     1     -44.280 -50.517  14.766  1.00  0.00     0.037 A 
HETATM   24  C   UNL     1     -43.150 -49.773  14.351  1.00  0.00     0.027 A 
HETATM   25  C   UNL     1     -42.115 -50.161  15.169  1.00  0.00     0.142 A 
HETATM   26  O   UNL     1     -42.537 -51.094  16.059  1.00  0.00    -0.325 OA
ENDBRANCH  21  22
ENDBRANCH  20  21
ENDBRANCH  19  20
ENDBRANCH  16  19
ENDBRANCH  15  16
ENDBRANCH  11  15
TORSDOF 7
ENDMDL
MODEL 5
REMARK VINA RESULT:      -6.1      3.534      6.927
REMARK  7 active torsions:
REMARK  status: ('A' for Active; 'I' for Inactive)
REMARK    1  A    between atoms: N_11  and  C_12 
REMARK    2  A    between atoms: C_12  and  C_13 
REMARK    3  A    between atoms: C_13  and  O_14 
REMARK    4  A    between atoms: C_13  and  C_15 
REMARK    5  A    between atoms: C_15  and  O_16 
REMARK    6  A    between atoms: O_16  and  C_17 
REMARK    7  A    between atoms: C_17  and  C_18 
ROOT
HETATM    1  C   UNL     1     -38.587 -46.979  15.733  1.00  0.00     0.164 C 
HETATM    2  N   UNL     1     -39.085 -47.374  14.430  1.00  0.00    -0.269 N 
HETATM    3  C   UNL     1     -39.303 -46.367  13.467  1.00  0.00     0.332 A 
HETATM    4  O   UNL     1     -39.076 -45.180  13.714  1.00  0.00    -0.246 OA
HETATM    5  N   UNL     1     -39.790 -46.775  12.223  1.00  0.00    -0.287 N 
HETATM    6  C   UNL     1     -40.034 -45.803  11.171  1.00  0.00     0.163 C 
HETATM    7  C   UNL     1     -40.031 -48.109  11.996  1.00  0.00     0.145 A 
HETATM    8  N   UNL     1     -40.513 -48.652  10.844  1.00  0.00    -0.336 N 
ATOM      9  HN  UNL     1     -40.772 -48.168   9.984  1.00  0.00     0.168 HD
HETATM   10  C   UNL     1     -40.571 -49.947  11.091  1.00  0.00     0.185 A 
HETATM   11  N   UNL     1     -40.140 -50.241  12.359  1.00  0.00    -0.333 N 
HETATM   12  C   UNL     1     -39.797 -49.054  12.947  1.00  0.00     0.149 A 
HETATM   13  C   UNL     1     -39.284 -48.746  14.235  1.00  0.00     0.282 A 
HETATM   14  O   UNL     1     -39.038 -49.605  15.080  1.00  0.00    -0.265 OA
ENDROOT
BRANCH  11  15
HETATM   15  C   UNL     1     -40.110 -51.564  12.956  1.00  0.00     0.164 C 
BRANCH  15  16
HETATM   16  C   UNL     1     -41.131 -52.525  12.330  1.00  0.00     0.160 C 
BRANCH  16  17
HETATM   17  O   UNL     1     -40.527 -53.396  11.367  1.00  0.00    -0.392 OA
HETATM   18  H   UNL     1     -39.890 -53.981  11.826  1.00  0.00     0.210 HD
ENDBRANCH  16  17
BRANCH  16  19
HETATM   19  C   UNL     1     -41.807 -53.390  13.399  1.00  0.00     0.201 C 
BRANCH  19  20
HETATM   20  O   UNL     1     -43.009 -53.964  12.894  1.00  0.00    -0.382 OA
BRANCH  20  21
HETATM   21  C   UNL     1     -43.997 -54.069  13.924  1.00  0.00     0.232 C 
BRANCH  21  22
HETATM   22  C   UNL     1     -45.066 -53.085  13.628  1.00  0.00     0.076 A 
HETATM   23  C   UNL     1     -45.675 -52.082  14.353  1.00  0.00     0.037 A 
HETATM   24  C   UNL     1     -46.611 -51.470  13.485  1.00  0.00     0.027 A 
HETATM   25  C   UNL     1     -46.512 -52.134  12.285  1.00  0.00     0.142 A 
HETATM   26  O   UNL     1     -45.575 -53.114  12.361  1.00  0.00    -0.325 OA
ENDBRANCH  21  22
ENDBRANCH  20  21
ENDBRANCH  19  20
ENDBRANCH  16  19
ENDBRANCH  15  16
ENDBRANCH  11  15
TORSDOF 7
ENDMDL
MODEL 6
REMARK VINA RESULT:      -6.1      3.010      5.240
REMARK  7 active torsions:
REMARK  status: ('A' for Active; 'I' for Inactive)
REMARK    1  A    between atoms: N_11  and  C_12 
REMARK    2  A    between atoms: C_12  and  C_13 
REMARK    3  A    between atoms: C_13  and  O_14 
REMARK    4  A    between atoms: C_13  and  C_15 
REMARK    5  A    between atoms: C_15  and  O_16 
REMARK    6  A    between atoms: O_16  and  C_17 
REMARK    7  A    between atoms: C_17  and  C_18 
ROOT
HETATM    1  C   UNL     1     -45.357 -50.613  16.387  1.00  0.00     0.164 C 
HETATM    2  N   UNL     1     -44.761 -51.433  15.351  1.00  0.00    -0.269 N 
HETATM    3  C   UNL     1     -45.214 -52.761  15.209  1.00  0.00     0.332 A 
HETATM    4  O   UNL     1     -46.096 -53.222  15.939  1.00  0.00    -0.246 OA
HETATM    5  N   UNL     1     -44.617 -53.531  14.207  1.00  0.00    -0.287 N 
HETATM    6  C   UNL     1     -45.032 -54.905  13.987  1.00  0.00     0.163 C 
HETATM    7  C   UNL     1     -43.637 -52.974  13.421  1.00  0.00     0.145 A 
HETATM    8  N   UNL     1     -42.961 -53.600  12.419  1.00  0.00    -0.336 N 
ATOM      9  HN  UNL     1     -43.068 -54.563  12.099  1.00  0.00     0.168 HD
HETATM   10  C   UNL     1     -42.137 -52.681  11.955  1.00  0.00     0.185 A 
HETATM   11  N   UNL     1     -42.269 -51.494  12.628  1.00  0.00    -0.333 N 
HETATM   12  C   UNL     1     -43.234 -51.684  13.581  1.00  0.00     0.149 A 
HETATM   13  C   UNL     1     -43.791 -50.813  14.555  1.00  0.00     0.282 A 
HETATM   14  O   UNL     1     -43.451 -49.637  14.672  1.00  0.00    -0.265 OA
ENDROOT
BRANCH  11  15
HETATM   15  C   UNL     1     -41.488 -50.294  12.390  1.00  0.00     0.164 C 
BRANCH  15  16
HETATM   16  C   UNL     1     -40.319 -50.526  11.421  1.00  0.00     0.160 C 
BRANCH  16  17
HETATM   17  O   UNL     1     -40.506 -49.836  10.181  1.00  0.00    -0.392 OA
HETATM   18  H   UNL     1     -40.223 -50.421   9.448  1.00  0.00     0.210 HD
ENDBRANCH  16  17
BRANCH  16  19
HETATM   19  C   UNL     1     -38.992 -50.061  12.032  1.00  0.00     0.201 C 
BRANCH  19  20
HETATM   20  O   UNL     1     -38.229 -51.177  12.482  1.00  0.00    -0.382 OA
BRANCH  20  21
HETATM   21  C   UNL     1     -38.269 -51.280  13.909  1.00  0.00     0.232 C 
BRANCH  21  22
HETATM   22  C   UNL     1     -39.035 -52.502  14.254  1.00  0.00     0.076 A 
HETATM   23  C   UNL     1     -40.024 -52.788  15.172  1.00  0.00     0.037 A 
HETATM   24  C   UNL     1     -40.369 -54.147  14.981  1.00  0.00     0.027 A 
HETATM   25  C   UNL     1     -39.573 -54.604  13.957  1.00  0.00     0.142 A 
HETATM   26  O   UNL     1     -38.762 -53.612  13.508  1.00  0.00    -0.325 OA
ENDBRANCH  21  22
ENDBRANCH  20  21
ENDBRANCH  19  20
ENDBRANCH  16  19
ENDBRANCH  15  16
ENDBRANCH  11  15
TORSDOF 7
ENDMDL
MODEL 7
REMARK VINA RESULT:      -5.8      2.488      7.280
REMARK  7 active torsions:
REMARK  status: ('A' for Active; 'I' for Inactive)
REMARK    1  A    between atoms: N_11  and  C_12 
REMARK    2  A    between atoms: C_12  and  C_13 
REMARK    3  A    between atoms: C_13  and  O_14 
REMARK    4  A    between atoms: C_13  and  C_15 
REMARK    5  A    between atoms: C_15  and  O_16 
REMARK    6  A    between atoms: O_16  and  C_17 
REMARK    7  A    between atoms: C_17  and  C_18 
ROOT
HETATM    1  C   UNL     1     -38.617 -46.991  14.067  1.00  0.00     0.164 C 
HETATM    2  N   UNL     1     -39.353 -47.987  13.314  1.00  0.00    -0.269 N 
HETATM    3  C   UNL     1     -40.146 -47.553  12.231  1.00  0.00     0.332 A 
HETATM    4  O   UNL     1     -40.216 -46.360  11.922  1.00  0.00    -0.246 OA
HETATM    5  N   UNL     1     -40.850 -48.534  11.527  1.00  0.00    -0.287 N 
HETATM    6  C   UNL     1     -41.683 -48.173  10.394  1.00  0.00     0.163 C 
HETATM    7  C   UNL     1     -40.742 -49.849  11.911  1.00  0.00     0.145 A 
HETATM    8  N   UNL     1     -41.372 -50.907  11.331  1.00  0.00    -0.336 N 
ATOM      9  HN  UNL     1     -42.015 -50.896  10.539  1.00  0.00     0.168 HD
HETATM   10  C   UNL     1     -40.964 -51.952  12.026  1.00  0.00     0.185 A 
HETATM   11  N   UNL     1     -40.095 -51.592  13.023  1.00  0.00    -0.333 N 
HETATM   12  C   UNL     1     -39.956 -50.231  12.955  1.00  0.00     0.149 A 
HETATM   13  C   UNL     1     -39.186 -49.316  13.720  1.00  0.00     0.282 A 
HETATM   14  O   UNL     1     -38.448 -49.669  14.639  1.00  0.00    -0.265 OA
ENDROOT
BRANCH  11  15
HETATM   15  C   UNL     1     -39.492 -52.493  13.986  1.00  0.00     0.164 C 
BRANCH  15  16
HETATM   16  C   UNL     1     -40.013 -53.933  13.865  1.00  0.00     0.160 C 
BRANCH  16  17
HETATM   17  O   UNL     1     -39.046 -54.806  13.272  1.00  0.00    -0.392 OA
HETATM   18  H   UNL     1     -38.185 -54.341  13.230  1.00  0.00     0.210 HD
ENDBRANCH  16  17
BRANCH  16  19
HETATM   19  C   UNL     1     -40.395 -54.502  15.236  1.00  0.00     0.201 C 
BRANCH  19  20
HETATM   20  O   UNL     1     -41.756 -54.923  15.244  1.00  0.00    -0.382 OA
BRANCH  20  21
HETATM   21  C   UNL     1     -42.442 -54.451  14.079  1.00  0.00     0.232 C 
BRANCH  21  22
HETATM   22  C   UNL     1     -43.893 -54.430  14.386  1.00  0.00     0.076 A 
HETATM   23  C   UNL     1     -45.002 -55.023  13.820  1.00  0.00     0.037 A 
HETATM   24  C   UNL     1     -46.112 -54.630  14.606  1.00  0.00     0.027 A 
HETATM   25  C   UNL     1     -45.611 -53.826  15.603  1.00  0.00     0.142 A 
HETATM   26  O   UNL     1     -44.265 -53.701  15.479  1.00  0.00    -0.325 OA
ENDBRANCH  21  22
ENDBRANCH  20  21
ENDBRANCH  19  20
ENDBRANCH  16  19
ENDBRANCH  15  16
ENDBRANCH  11  15
TORSDOF 7
ENDMDL
MODEL 8
REMARK VINA RESULT:      -5.6      2.663      4.375
REMARK  7 active torsions:
REMARK  status: ('A' for Active; 'I' for Inactive)
REMARK    1  A    between atoms: N_11  and  C_12 
REMARK    2  A    between atoms: C_12  and  C_13 
REMARK    3  A    between atoms: C_13  and  O_14 
REMARK    4  A    between atoms: C_13  and  C_15 
REMARK    5  A    between atoms: C_15  and  O_16 
REMARK    6  A    between atoms: O_16  and  C_17 
REMARK    7  A    between atoms: C_17  and  C_18 
ROOT
HETATM    1  C   UNL     1     -46.238 -52.383  12.474  1.00  0.00     0.164 C 
HETATM    2  N   UNL     1     -45.442 -52.955  13.542  1.00  0.00    -0.269 N 
HETATM    3  C   UNL     1     -46.066 -53.199  14.783  1.00  0.00     0.332 A 
HETATM    4  O   UNL     1     -47.258 -52.939  14.966  1.00  0.00    -0.246 OA
HETATM    5  N   UNL     1     -45.273 -53.744  15.796  1.00  0.00    -0.287 N 
HETATM    6  C   UNL     1     -45.839 -54.034  17.101  1.00  0.00     0.163 C 
HETATM    7  C   UNL     1     -43.948 -54.013  15.545  1.00  0.00     0.145 A 
HETATM    8  N   UNL     1     -43.054 -54.532  16.431  1.00  0.00    -0.336 N 
ATOM      9  HN  UNL     1     -43.217 -54.795  17.403  1.00  0.00     0.168 HD
HETATM   10  C   UNL     1     -41.928 -54.617  15.748  1.00  0.00     0.185 A 
HETATM   11  N   UNL     1     -42.080 -54.173  14.461  1.00  0.00    -0.333 N 
HETATM   12  C   UNL     1     -43.384 -53.776  14.329  1.00  0.00     0.149 A 
HETATM   13  C   UNL     1     -44.108 -53.243  13.230  1.00  0.00     0.282 A 
HETATM   14  O   UNL     1     -43.605 -53.064  12.122  1.00  0.00    -0.265 OA
ENDROOT
BRANCH  11  15
HETATM   15  C   UNL     1     -41.030 -54.101  13.461  1.00  0.00     0.164 C 
BRANCH  15  16
HETATM   16  C   UNL     1     -39.624 -54.243  14.061  1.00  0.00     0.160 C 
BRANCH  16  17
HETATM   17  O   UNL     1     -38.776 -55.065  13.251  1.00  0.00    -0.392 OA
HETATM   18  H   UNL     1     -38.159 -54.490  12.754  1.00  0.00     0.210 HD
ENDBRANCH  16  17
BRANCH  16  19
HETATM   19  C   UNL     1     -38.949 -52.877  14.227  1.00  0.00     0.201 C 
BRANCH  19  20
HETATM   20  O   UNL     1     -39.688 -51.867  13.546  1.00  0.00    -0.382 OA
BRANCH  20  21
HETATM   21  C   UNL     1     -38.809 -50.920  12.930  1.00  0.00     0.232 C 
BRANCH  21  22
HETATM   22  C   UNL     1     -39.644 -49.938  12.198  1.00  0.00     0.076 A 
HETATM   23  C   UNL     1     -40.777 -50.035  11.417  1.00  0.00     0.037 A 
HETATM   24  C   UNL     1     -41.110 -48.716  11.027  1.00  0.00     0.027 A 
HETATM   25  C   UNL     1     -40.163 -47.897  11.597  1.00  0.00     0.142 A 
HETATM   26  O   UNL     1     -39.271 -48.629  12.311  1.00  0.00    -0.325 OA
ENDBRANCH  21  22
ENDBRANCH  20  21
ENDBRANCH  19  20
ENDBRANCH  16  19
ENDBRANCH  15  16
ENDBRANCH  11  15
TORSDOF 7
ENDMDL
MODEL 9
REMARK VINA RESULT:      -5.5      3.490      7.855
REMARK  7 active torsions:
REMARK  status: ('A' for Active; 'I' for Inactive)
REMARK    1  A    between atoms: N_11  and  C_12 
REMARK    2  A    between atoms: C_12  and  C_13 
REMARK    3  A    between atoms: C_13  and  O_14 
REMARK    4  A    between atoms: C_13  and  C_15 
REMARK    5  A    between atoms: C_15  and  O_16 
REMARK    6  A    between atoms: O_16  and  C_17 
REMARK    7  A    between atoms: C_17  and  C_18 
ROOT
HETATM    1  C   UNL     1     -39.023 -46.980  16.042  1.00  0.00     0.164 C 
HETATM    2  N   UNL     1     -39.402 -47.258  14.671  1.00  0.00    -0.269 N 
HETATM    3  C   UNL     1     -39.481 -46.177  13.768  1.00  0.00     0.332 A 
HETATM    4  O   UNL     1     -39.233 -45.022  14.124  1.00  0.00    -0.246 OA
HETATM    5  N   UNL     1     -39.856 -46.473  12.455  1.00  0.00    -0.287 N 
HETATM    6  C   UNL     1     -39.953 -45.420  11.460  1.00  0.00     0.163 C 
HETATM    7  C   UNL     1     -40.125 -47.775  12.107  1.00  0.00     0.145 A 
HETATM    8  N   UNL     1     -40.509 -48.213  10.876  1.00  0.00    -0.336 N 
ATOM      9  HN  UNL     1     -40.659 -47.658  10.034  1.00  0.00     0.168 HD
HETATM   10  C   UNL     1     -40.642 -49.518  11.020  1.00  0.00     0.185 A 
HETATM   11  N   UNL     1     -40.354 -49.921  12.298  1.00  0.00    -0.333 N 
HETATM   12  C   UNL     1     -40.026 -48.795  13.004  1.00  0.00     0.149 A 
HETATM   13  C   UNL     1     -39.634 -48.602  14.355  1.00  0.00     0.282 A 
HETATM   14  O   UNL     1     -39.509 -49.529  15.154  1.00  0.00    -0.265 OA
ENDROOT
BRANCH  11  15
HETATM   15  C   UNL     1     -40.437 -51.281  12.795  1.00  0.00     0.164 C 
BRANCH  15  16
HETATM   16  C   UNL     1     -41.281 -52.196  11.895  1.00  0.00     0.160 C 
BRANCH  16  17
HETATM   17  O   UNL     1     -40.547 -53.344  11.458  1.00  0.00    -0.392 OA
HETATM   18  H   UNL     1     -39.808 -53.049  10.887  1.00  0.00     0.210 HD
ENDBRANCH  16  17
BRANCH  16  19
HETATM   19  C   UNL     1     -42.541 -52.681  12.621  1.00  0.00     0.201 C 
BRANCH  19  20
HETATM   20  O   UNL     1     -42.373 -54.020  13.076  1.00  0.00    -0.382 OA
BRANCH  20  21
HETATM   21  C   UNL     1     -42.493 -54.094  14.501  1.00  0.00     0.232 C 
BRANCH  21  22
HETATM   22  C   UNL     1     -41.204 -54.593  15.037  1.00  0.00     0.076 A 
HETATM   23  C   UNL     1     -40.835 -55.245  16.196  1.00  0.00     0.037 A 
HETATM   24  C   UNL     1     -39.442 -55.479  16.098  1.00  0.00     0.027 A 
HETATM   25  C   UNL     1     -39.050 -54.959  14.887  1.00  0.00     0.142 A 
HETATM   26  O   UNL     1     -40.112 -54.422  14.235  1.00  0.00    -0.325 OA
ENDBRANCH  21  22
ENDBRANCH  20  21
ENDBRANCH  19  20
ENDBRANCH  16  19
ENDBRANCH  15  16
ENDBRANCH  11  15
TORSDOF 7
ENDMDL
