MODEL 1
REMARK VINA RESULT:      -6.7      0.000      0.000
REMARK  6 active torsions:
REMARK  status: ('A' for Active; 'I' for Inactive)
REMARK    1  A    between atoms: C_2  and  C_5 
REMARK    2  A    between atoms: N_10  and  C_11 
REMARK    3  A    between atoms: C_11  and  C_12 
REMARK       I    between atoms: C_12  and  N_14 
REMARK    4  A    between atoms: N_14  and  C_15 
REMARK    5  A    between atoms: C_15  and  C_20 
REMARK    6  A    between atoms: C_20  and  N_21 
ROOT
HETATM    1  C   UNL     1     -42.094 -48.934  12.413  1.00  0.00     0.237 C 
HETATM    2  O   UNL     1     -42.644 -49.954  12.824  1.00  0.00    -0.272 OA
HETATM    3  N   UNL     1     -40.741 -48.880  12.149  1.00  0.00    -0.339 N 
HETATM    4  H   UNL     1     -40.381 -48.043  11.711  1.00  0.00     0.164 HD
ENDROOT
BRANCH   1   5
HETATM    5  C   UNL     1     -42.855 -47.606  12.316  1.00  0.00     0.234 C 
BRANCH   5   6
HETATM    6  N   UNL     1     -43.360 -47.316  10.970  1.00  0.00    -0.315 N 
HETATM    7  C   UNL     1     -42.550 -46.593  10.097  1.00  0.00     0.247 A 
HETATM    8  C   UNL     1     -43.110 -46.361   8.742  1.00  0.00     0.075 A 
HETATM    9  O   UNL     1     -41.417 -46.206  10.359  1.00  0.00    -0.268 OA
HETATM   10  C   UNL     1     -44.309 -46.858   8.409  1.00  0.00     0.023 A 
HETATM   11  C   UNL     1     -45.097 -47.616   9.365  1.00  0.00     0.063 A 
HETATM   12  C   UNL     1     -44.603 -47.807  10.601  1.00  0.00     0.110 A 
BRANCH  11  13
HETATM   13  C   UNL     1     -46.422 -48.194   8.944  1.00  0.00     0.418 C 
HETATM   14  F   UNL     1     -46.777 -49.283   9.672  1.00  0.00    -0.166 F 
HETATM   15  F   UNL     1     -46.414 -48.573   7.642  1.00  0.00    -0.166 F 
HETATM   16  F   UNL     1     -47.422 -47.289   9.086  1.00  0.00    -0.166 F 
ENDBRANCH  11  13
ENDBRANCH   5   6
ENDBRANCH   1   5
BRANCH   3  17
HETATM   17  C   UNL     1     -39.859 -50.042  12.273  1.00  0.00     0.104 C 
HETATM   18  C   UNL     1     -39.402 -50.275  13.732  1.00  0.00     0.045 C 
HETATM   19  C   UNL     1     -37.925 -50.671  13.687  1.00  0.00     0.004 C 
HETATM   20  C   UNL     1     -37.532 -50.706  12.218  1.00  0.00     0.004 C 
HETATM   21  C   UNL     1     -38.535 -49.789  11.533  1.00  0.00     0.045 C 
BRANCH  17  22
HETATM   22  C   UNL     1     -40.539 -51.288  11.730  1.00  0.00    -0.046 C 
BRANCH  22  23
HETATM   23  N   UNL     1     -41.105 -52.321  11.279  1.00  0.00    -0.367 N 
ATOM     24  HN2 UNL     1     -40.646 -51.510  11.694  1.00  0.00     0.165 HD
ATOM     25  HN1 UNL     1     -41.563 -53.156  10.913  1.00  0.00     0.165 HD
ENDBRANCH  22  23
ENDBRANCH  17  22
ENDBRANCH   3  17
TORSDOF 6
ENDMDL
MODEL 2
REMARK VINA RESULT:      -6.6      3.059      5.956
REMARK  6 active torsions:
REMARK  status: ('A' for Active; 'I' for Inactive)
REMARK    1  A    between atoms: C_2  and  C_5 
REMARK    2  A    between atoms: N_10  and  C_11 
REMARK    3  A    between atoms: C_11  and  C_12 
REMARK       I    between atoms: C_12  and  N_14 
REMARK    4  A    between atoms: N_14  and  C_15 
REMARK    5  A    between atoms: C_15  and  C_20 
REMARK    6  A    between atoms: C_20  and  N_21 
ROOT
HETATM    1  C   UNL     1     -42.781 -48.015  11.819  1.00  0.00     0.237 C 
HETATM    2  O   UNL     1     -43.379 -47.033  12.253  1.00  0.00    -0.272 OA
HETATM    3  N   UNL     1     -42.768 -48.339  10.478  1.00  0.00    -0.339 N 
HETATM    4  H   UNL     1     -42.167 -49.097  10.184  1.00  0.00     0.164 HD
ENDROOT
BRANCH   1   5
HETATM    5  C   UNL     1     -42.136 -49.036  12.767  1.00  0.00     0.234 C 
BRANCH   5   6
HETATM    6  N   UNL     1     -42.816 -50.335  12.780  1.00  0.00    -0.315 N 
HETATM    7  C   UNL     1     -42.102 -51.463  12.381  1.00  0.00     0.247 A 
HETATM    8  C   UNL     1     -42.840 -52.749  12.447  1.00  0.00     0.075 A 
HETATM    9  O   UNL     1     -40.922 -51.459  12.050  1.00  0.00    -0.268 OA
HETATM   10  C   UNL     1     -44.103 -52.784  12.896  1.00  0.00     0.023 A 
HETATM   11  C   UNL     1     -44.785 -51.571  13.310  1.00  0.00     0.063 A 
HETATM   12  C   UNL     1     -44.126 -50.401  13.228  1.00  0.00     0.110 A 
BRANCH  11  13
HETATM   13  C   UNL     1     -46.188 -51.653  13.847  1.00  0.00     0.418 C 
HETATM   14  F   UNL     1     -46.363 -50.924  14.979  1.00  0.00    -0.166 F 
HETATM   15  F   UNL     1     -46.540 -52.930  14.139  1.00  0.00    -0.166 F 
HETATM   16  F   UNL     1     -47.089 -51.191  12.944  1.00  0.00    -0.166 F 
ENDBRANCH  11  13
ENDBRANCH   5   6
ENDBRANCH   1   5
BRANCH   3  17
HETATM   17  C   UNL     1     -43.408 -47.511   9.454  1.00  0.00     0.104 C 
HETATM   18  C   UNL     1     -42.974 -46.030   9.547  1.00  0.00     0.045 C 
HETATM   19  C   UNL     1     -44.219 -45.176   9.298  1.00  0.00     0.004 C 
HETATM   20  C   UNL     1     -45.359 -46.145   9.027  1.00  0.00     0.004 C 
HETATM   21  C   UNL     1     -44.925 -47.442   9.694  1.00  0.00     0.045 C 
BRANCH  17  22
HETATM   22  C   UNL     1     -43.115 -48.059   8.067  1.00  0.00    -0.046 C 
BRANCH  22  23
HETATM   23  N   UNL     1     -42.872 -48.513   6.915  1.00  0.00    -0.367 N 
ATOM     24  HN2 UNL     1     -43.022 -48.116   7.843  1.00  0.00     0.165 HD
ATOM     25  HN1 UNL     1     -42.675 -48.880   5.984  1.00  0.00     0.165 HD
ENDBRANCH  22  23
ENDBRANCH  17  22
ENDBRANCH   3  17
TORSDOF 6
ENDMDL
MODEL 3
REMARK VINA RESULT:      -6.5      5.530      6.714
REMARK  6 active torsions:
REMARK  status: ('A' for Active; 'I' for Inactive)
REMARK    1  A    between atoms: C_2  and  C_5 
REMARK    2  A    between atoms: N_10  and  C_11 
REMARK    3  A    between atoms: C_11  and  C_12 
REMARK       I    between atoms: C_12  and  N_14 
REMARK    4  A    between atoms: N_14  and  C_15 
REMARK    5  A    between atoms: C_15  and  C_20 
REMARK    6  A    between atoms: C_20  and  N_21 
ROOT
HETATM    1  C   UNL     1     -43.068 -54.515  14.450  1.00  0.00     0.237 C 
HETATM    2  O   UNL     1     -42.361 -54.992  15.335  1.00  0.00    -0.272 OA
HETATM    3  N   UNL     1     -42.585 -53.613  13.525  1.00  0.00    -0.339 N 
HETATM    4  H   UNL     1     -43.195 -53.348  12.763  1.00  0.00     0.164 HD
ENDROOT
BRANCH   1   5
HETATM    5  C   UNL     1     -44.580 -54.775  14.414  1.00  0.00     0.234 C 
BRANCH   5   6
HETATM    6  N   UNL     1     -45.386 -53.550  14.411  1.00  0.00    -0.315 N 
HETATM    7  C   UNL     1     -45.686 -52.955  13.187  1.00  0.00     0.247 A 
HETATM    8  C   UNL     1     -46.530 -51.736  13.254  1.00  0.00     0.075 A 
HETATM    9  O   UNL     1     -45.355 -53.403  12.095  1.00  0.00    -0.268 OA
HETATM   10  C   UNL     1     -46.979 -51.285  14.434  1.00  0.00     0.023 A 
HETATM   11  C   UNL     1     -46.639 -51.962  15.672  1.00  0.00     0.063 A 
HETATM   12  C   UNL     1     -45.855 -53.053  15.617  1.00  0.00     0.110 A 
BRANCH  11  13
HETATM   13  C   UNL     1     -47.195 -51.451  16.975  1.00  0.00     0.418 C 
HETATM   14  F   UNL     1     -47.184 -52.390  17.956  1.00  0.00    -0.166 F 
HETATM   15  F   UNL     1     -48.477 -51.029  16.844  1.00  0.00    -0.166 F 
HETATM   16  F   UNL     1     -46.477 -50.397  17.437  1.00  0.00    -0.166 F 
ENDBRANCH  11  13
ENDBRANCH   5   6
ENDBRANCH   1   5
BRANCH   3  17
HETATM   17  C   UNL     1     -41.181 -53.197  13.476  1.00  0.00     0.104 C 
HETATM   18  C   UNL     1     -40.218 -54.405  13.411  1.00  0.00     0.045 C 
HETATM   19  C   UNL     1     -39.028 -54.087  14.318  1.00  0.00     0.004 C 
HETATM   20  C   UNL     1     -39.275 -52.694  14.879  1.00  0.00     0.004 C 
HETATM   21  C   UNL     1     -40.783 -52.509  14.792  1.00  0.00     0.045 C 
BRANCH  17  22
HETATM   22  C   UNL     1     -40.941 -52.269  12.297  1.00  0.00    -0.046 C 
BRANCH  22  23
HETATM   23  N   UNL     1     -40.741 -51.498  11.319  1.00  0.00    -0.367 N 
ATOM     24  HN2 UNL     1     -40.956 -52.125  12.094  1.00  0.00     0.165 HD
ATOM     25  HN1 UNL     1     -40.578 -50.875  10.528  1.00  0.00     0.165 HD
ENDBRANCH  22  23
ENDBRANCH  17  22
ENDBRANCH   3  17
TORSDOF 6
ENDMDL
MODEL 4
REMARK VINA RESULT:      -6.4      4.179      6.196
REMARK  6 active torsions:
REMARK  status: ('A' for Active; 'I' for Inactive)
REMARK    1  A    between atoms: C_2  and  C_5 
REMARK    2  A    between atoms: N_10  and  C_11 
REMARK    3  A    between atoms: C_11  and  C_12 
REMARK       I    between atoms: C_12  and  N_14 
REMARK    4  A    between atoms: N_14  and  C_15 
REMARK    5  A    between atoms: C_15  and  C_20 
REMARK    6  A    between atoms: C_20  and  N_21 
ROOT
HETATM    1  C   UNL     1     -42.990 -52.354  13.153  1.00  0.00     0.237 C 
HETATM    2  O   UNL     1     -43.015 -52.286  14.380  1.00  0.00    -0.272 OA
HETATM    3  N   UNL     1     -44.140 -52.411  12.393  1.00  0.00    -0.339 N 
HETATM    4  H   UNL     1     -44.042 -52.355  11.388  1.00  0.00     0.164 HD
ENDROOT
BRANCH   1   5
HETATM    5  C   UNL     1     -41.669 -52.539  12.394  1.00  0.00     0.234 C 
BRANCH   5   6
HETATM    6  N   UNL     1     -40.885 -51.307  12.272  1.00  0.00    -0.315 N 
HETATM    7  C   UNL     1     -39.561 -51.315  12.705  1.00  0.00     0.247 A 
HETATM    8  C   UNL     1     -38.817 -50.044  12.525  1.00  0.00     0.075 A 
HETATM    9  O   UNL     1     -38.982 -52.298  13.154  1.00  0.00    -0.268 OA
HETATM   10  C   UNL     1     -39.408 -48.987  11.950  1.00  0.00     0.023 A 
HETATM   11  C   UNL     1     -40.789 -49.050  11.508  1.00  0.00     0.063 A 
HETATM   12  C   UNL     1     -41.473 -50.193  11.692  1.00  0.00     0.110 A 
BRANCH  11  13
HETATM   13  C   UNL     1     -41.408 -47.858  10.830  1.00  0.00     0.418 C 
HETATM   14  F   UNL     1     -41.973 -48.165   9.634  1.00  0.00    -0.166 F 
HETATM   15  F   UNL     1     -40.496 -46.881  10.598  1.00  0.00    -0.166 F 
HETATM   16  F   UNL     1     -42.387 -47.310  11.592  1.00  0.00    -0.166 F 
ENDBRANCH  11  13
ENDBRANCH   5   6
ENDBRANCH   1   5
BRANCH   3  17
HETATM   17  C   UNL     1     -45.482 -52.329  12.973  1.00  0.00     0.104 C 
HETATM   18  C   UNL     1     -45.595 -51.202  14.026  1.00  0.00     0.045 C 
HETATM   19  C   UNL     1     -46.438 -51.743  15.182  1.00  0.00     0.004 C 
HETATM   20  C   UNL     1     -46.844 -53.157  14.794  1.00  0.00     0.004 C 
HETATM   21  C   UNL     1     -45.788 -53.596  13.790  1.00  0.00     0.045 C 
BRANCH  17  22
HETATM   22  C   UNL     1     -46.523 -52.137  11.883  1.00  0.00    -0.046 C 
BRANCH  22  23
HETATM   23  N   UNL     1     -47.388 -51.978  10.978  1.00  0.00    -0.367 N 
ATOM     24  HN2 UNL     1     -46.670 -52.055  11.698  1.00  0.00     0.165 HD
ATOM     25  HN1 UNL     1     -48.087 -51.851  10.247  1.00  0.00     0.165 HD
ENDBRANCH  22  23
ENDBRANCH  17  22
ENDBRANCH   3  17
TORSDOF 6
ENDMDL
MODEL 5
REMARK VINA RESULT:      -6.3      4.010      6.117
REMARK  6 active torsions:
REMARK  status: ('A' for Active; 'I' for Inactive)
REMARK    1  A    between atoms: C_2  and  C_5 
REMARK    2  A    between atoms: N_10  and  C_11 
REMARK    3  A    between atoms: C_11  and  C_12 
REMARK       I    between atoms: C_12  and  N_14 
REMARK    4  A    between atoms: N_14  and  C_15 
REMARK    5  A    between atoms: C_15  and  C_20 
REMARK    6  A    between atoms: C_20  and  N_21 
ROOT
HETATM    1  C   UNL     1     -42.104 -52.400  12.863  1.00  0.00     0.237 C 
HETATM    2  O   UNL     1     -41.840 -52.892  13.958  1.00  0.00    -0.272 OA
HETATM    3  N   UNL     1     -43.400 -52.174  12.447  1.00  0.00    -0.339 N 
HETATM    4  H   UNL     1     -43.534 -51.667  11.583  1.00  0.00     0.164 HD
ENDROOT
BRANCH   1   5
HETATM    5  C   UNL     1     -41.006 -52.149  11.820  1.00  0.00     0.234 C 
BRANCH   5   6
HETATM    6  N   UNL     1     -40.314 -50.869  11.993  1.00  0.00    -0.315 N 
HETATM    7  C   UNL     1     -39.063 -50.867  12.606  1.00  0.00     0.247 A 
HETATM    8  C   UNL     1     -38.405 -49.542  12.723  1.00  0.00     0.075 A 
HETATM    9  O   UNL     1     -38.472 -51.872  12.986  1.00  0.00    -0.268 OA
HETATM   10  C   UNL     1     -38.996 -48.445  12.228  1.00  0.00     0.023 A 
HETATM   11  C   UNL     1     -40.296 -48.519  11.587  1.00  0.00     0.063 A 
HETATM   12  C   UNL     1     -40.905 -49.715  11.502  1.00  0.00     0.110 A 
BRANCH  11  13
HETATM   13  C   UNL     1     -40.912 -47.274  11.008  1.00  0.00     0.418 C 
HETATM   14  F   UNL     1     -39.986 -46.389  10.557  1.00  0.00    -0.166 F 
HETATM   15  F   UNL     1     -41.676 -46.621  11.918  1.00  0.00    -0.166 F 
HETATM   16  F   UNL     1     -41.715 -47.566   9.954  1.00  0.00    -0.166 F 
ENDBRANCH  11  13
ENDBRANCH   5   6
ENDBRANCH   1   5
BRANCH   3  17
HETATM   17  C   UNL     1     -44.564 -52.438  13.295  1.00  0.00     0.104 C 
HETATM   18  C   UNL     1     -45.895 -52.275  12.524  1.00  0.00     0.045 C 
HETATM   19  C   UNL     1     -46.881 -51.576  13.462  1.00  0.00     0.004 C 
HETATM   20  C   UNL     1     -46.147 -51.365  14.778  1.00  0.00     0.004 C 
HETATM   21  C   UNL     1     -44.673 -51.374  14.399  1.00  0.00     0.045 C 
BRANCH  17  22
HETATM   22  C   UNL     1     -44.475 -53.827  13.904  1.00  0.00    -0.046 C 
BRANCH  22  23
HETATM   23  N   UNL     1     -44.403 -54.980  14.410  1.00  0.00    -0.367 N 
ATOM     24  HN2 UNL     1     -44.418 -54.061  13.968  1.00  0.00     0.165 HD
ATOM     25  HN1 UNL     1     -44.345 -55.913  14.820  1.00  0.00     0.165 HD
ENDBRANCH  22  23
ENDBRANCH  17  22
ENDBRANCH   3  17
TORSDOF 6
ENDMDL
MODEL 6
REMARK VINA RESULT:      -6.2      4.345      5.756
REMARK  6 active torsions:
REMARK  status: ('A' for Active; 'I' for Inactive)
REMARK    1  A    between atoms: C_2  and  C_5 
REMARK    2  A    between atoms: N_10  and  C_11 
REMARK    3  A    between atoms: C_11  and  C_12 
REMARK       I    between atoms: C_12  and  N_14 
REMARK    4  A    between atoms: N_14  and  C_15 
REMARK    5  A    between atoms: C_15  and  C_20 
REMARK    6  A    between atoms: C_20  and  N_21 
ROOT
HETATM    1  C   UNL     1     -40.964 -51.435  12.714  1.00  0.00     0.237 C 
HETATM    2  O   UNL     1     -41.054 -50.941  13.837  1.00  0.00    -0.272 OA
HETATM    3  N   UNL     1     -39.881 -51.207  11.891  1.00  0.00    -0.339 N 
HETATM    4  H   UNL     1     -39.828 -51.733  11.029  1.00  0.00     0.164 HD
ENDROOT
BRANCH   1   5
HETATM    5  C   UNL     1     -42.132 -52.215  12.095  1.00  0.00     0.234 C 
BRANCH   5   6
HETATM    6  N   UNL     1     -43.062 -52.764  13.086  1.00  0.00    -0.315 N 
HETATM    7  C   UNL     1     -42.694 -53.917  13.776  1.00  0.00     0.247 A 
HETATM    8  C   UNL     1     -43.668 -54.402  14.786  1.00  0.00     0.075 A 
HETATM    9  O   UNL     1     -41.621 -54.496  13.642  1.00  0.00    -0.268 OA
HETATM   10  C   UNL     1     -44.804 -53.728  15.011  1.00  0.00     0.023 A 
HETATM   11  C   UNL     1     -45.121 -52.523  14.265  1.00  0.00     0.063 A 
HETATM   12  C   UNL     1     -44.251 -52.095  13.332  1.00  0.00     0.110 A 
BRANCH  11  13
HETATM   13  C   UNL     1     -46.387 -51.769  14.572  1.00  0.00     0.418 C 
HETATM   14  F   UNL     1     -46.909 -51.150  13.482  1.00  0.00    -0.166 F 
HETATM   15  F   UNL     1     -46.187 -50.814  15.513  1.00  0.00    -0.166 F 
HETATM   16  F   UNL     1     -47.350 -52.597  15.047  1.00  0.00    -0.166 F 
ENDBRANCH  11  13
ENDBRANCH   5   6
ENDBRANCH   1   5
BRANCH   3  17
HETATM   17  C   UNL     1     -38.721 -50.414  12.304  1.00  0.00     0.104 C 
HETATM   18  C   UNL     1     -37.956 -51.069  13.477  1.00  0.00     0.045 C 
HETATM   19  C   UNL     1     -37.546 -49.948  14.434  1.00  0.00     0.004 C 
HETATM   20  C   UNL     1     -38.035 -48.650  13.811  1.00  0.00     0.004 C 
HETATM   21  C   UNL     1     -39.176 -49.070  12.896  1.00  0.00     0.045 C 
BRANCH  17  22
HETATM   22  C   UNL     1     -37.786 -50.186  11.128  1.00  0.00    -0.046 C 
BRANCH  22  23
HETATM   23  N   UNL     1     -37.011 -49.998  10.151  1.00  0.00    -0.367 N 
ATOM     24  HN2 UNL     1     -37.604 -50.118  10.972  1.00  0.00     0.165 HD
ATOM     25  HN1 UNL     1     -36.384 -49.846   9.361  1.00  0.00     0.165 HD
ENDBRANCH  22  23
ENDBRANCH  17  22
ENDBRANCH   3  17
TORSDOF 6
ENDMDL
MODEL 7
REMARK VINA RESULT:      -5.9      3.838      6.625
REMARK  6 active torsions:
REMARK  status: ('A' for Active; 'I' for Inactive)
REMARK    1  A    between atoms: C_2  and  C_5 
REMARK    2  A    between atoms: N_10  and  C_11 
REMARK    3  A    between atoms: C_11  and  C_12 
REMARK       I    between atoms: C_12  and  N_14 
REMARK    4  A    between atoms: N_14  and  C_15 
REMARK    5  A    between atoms: C_15  and  C_20 
REMARK    6  A    between atoms: C_20  and  N_21 
ROOT
HETATM    1  C   UNL     1     -41.235 -50.747  12.185  1.00  0.00     0.237 C 
HETATM    2  O   UNL     1     -40.729 -50.397  13.249  1.00  0.00    -0.272 OA
HETATM    3  N   UNL     1     -41.973 -49.885  11.400  1.00  0.00    -0.339 N 
HETATM    4  H   UNL     1     -42.265 -50.213  10.489  1.00  0.00     0.164 HD
ENDROOT
BRANCH   1   5
HETATM    5  C   UNL     1     -41.210 -52.215  11.738  1.00  0.00     0.234 C 
BRANCH   5   6
HETATM    6  N   UNL     1     -41.720 -53.145  12.749  1.00  0.00    -0.315 N 
HETATM    7  C   UNL     1     -40.811 -53.748  13.617  1.00  0.00     0.247 A 
HETATM    8  C   UNL     1     -41.398 -54.655  14.634  1.00  0.00     0.075 A 
HETATM    9  O   UNL     1     -39.605 -53.531  13.622  1.00  0.00    -0.268 OA
HETATM   10  C   UNL     1     -42.725 -54.832  14.702  1.00  0.00     0.023 A 
HETATM   11  C   UNL     1     -43.618 -54.161  13.774  1.00  0.00     0.063 A 
HETATM   12  C   UNL     1     -43.087 -53.358  12.835  1.00  0.00     0.110 A 
BRANCH  11  13
HETATM   13  C   UNL     1     -45.105 -54.351  13.904  1.00  0.00     0.418 C 
HETATM   14  F   UNL     1     -45.566 -54.065  15.149  1.00  0.00    -0.166 F 
HETATM   15  F   UNL     1     -45.475 -55.627  13.628  1.00  0.00    -0.166 F 
HETATM   16  F   UNL     1     -45.781 -53.549  13.045  1.00  0.00    -0.166 F 
ENDBRANCH  11  13
ENDBRANCH   5   6
ENDBRANCH   1   5
BRANCH   3  17
HETATM   17  C   UNL     1     -42.161 -48.471  11.731  1.00  0.00     0.104 C 
HETATM   18  C   UNL     1     -43.208 -47.793  10.816  1.00  0.00     0.045 C 
HETATM   19  C   UNL     1     -42.678 -46.399  10.476  1.00  0.00     0.004 C 
HETATM   20  C   UNL     1     -41.355 -46.250  11.211  1.00  0.00     0.004 C 
HETATM   21  C   UNL     1     -40.878 -47.678  11.434  1.00  0.00     0.045 C 
BRANCH  17  22
HETATM   22  C   UNL     1     -42.557 -48.314  13.190  1.00  0.00    -0.046 C 
BRANCH  22  23
HETATM   23  N   UNL     1     -42.884 -48.184  14.401  1.00  0.00    -0.367 N 
ATOM     24  HN2 UNL     1     -42.621 -48.345  13.429  1.00  0.00     0.165 HD
ATOM     25  HN1 UNL     1     -43.148 -48.078  15.380  1.00  0.00     0.165 HD
ENDBRANCH  22  23
ENDBRANCH  17  22
ENDBRANCH   3  17
TORSDOF 6
ENDMDL
MODEL 8
REMARK VINA RESULT:      -5.8      3.965      5.803
REMARK  6 active torsions:
REMARK  status: ('A' for Active; 'I' for Inactive)
REMARK    1  A    between atoms: C_2  and  C_5 
REMARK    2  A    between atoms: N_10  and  C_11 
REMARK    3  A    between atoms: C_11  and  C_12 
REMARK       I    between atoms: C_12  and  N_14 
REMARK    4  A    between atoms: N_14  and  C_15 
REMARK    5  A    between atoms: C_15  and  C_20 
REMARK    6  A    between atoms: C_20  and  N_21 
ROOT
HETATM    1  C   UNL     1     -40.956 -51.173  13.888  1.00  0.00     0.237 C 
HETATM    2  O   UNL     1     -39.947 -51.576  13.314  1.00  0.00    -0.272 OA
HETATM    3  N   UNL     1     -41.401 -49.872  13.773  1.00  0.00    -0.339 N 
HETATM    4  H   UNL     1     -42.296 -49.644  14.184  1.00  0.00     0.164 HD
ENDROOT
BRANCH   1   5
HETATM    5  C   UNL     1     -41.701 -52.055  14.899  1.00  0.00     0.234 C 
BRANCH   5   6
HETATM    6  N   UNL     1     -42.980 -52.568  14.399  1.00  0.00    -0.315 N 
HETATM    7  C   UNL     1     -42.973 -53.719  13.613  1.00  0.00     0.247 A 
HETATM    8  C   UNL     1     -44.303 -54.201  13.166  1.00  0.00     0.075 A 
HETATM    9  O   UNL     1     -41.969 -54.364  13.332  1.00  0.00    -0.268 OA
HETATM   10  C   UNL     1     -45.419 -53.560  13.541  1.00  0.00     0.023 A 
HETATM   11  C   UNL     1     -45.356 -52.373  14.375  1.00  0.00     0.063 A 
HETATM   12  C   UNL     1     -44.150 -51.920  14.761  1.00  0.00     0.110 A 
BRANCH  11  13
HETATM   13  C   UNL     1     -46.631 -51.702  14.811  1.00  0.00     0.418 C 
HETATM   14  F   UNL     1     -46.448 -50.847  15.849  1.00  0.00    -0.166 F 
HETATM   15  F   UNL     1     -47.566 -52.604  15.200  1.00  0.00    -0.166 F 
HETATM   16  F   UNL     1     -47.176 -50.978  13.802  1.00  0.00    -0.166 F 
ENDBRANCH  11  13
ENDBRANCH   5   6
ENDBRANCH   1   5
BRANCH   3  17
HETATM   17  C   UNL     1     -40.751 -48.882  12.911  1.00  0.00     0.104 C 
HETATM   18  C   UNL     1     -39.424 -48.367  13.514  1.00  0.00     0.045 C 
HETATM   19  C   UNL     1     -39.359 -46.861  13.251  1.00  0.00     0.004 C 
HETATM   20  C   UNL     1     -40.617 -46.506  12.473  1.00  0.00     0.004 C 
HETATM   21  C   UNL     1     -41.607 -47.608  12.823  1.00  0.00     0.045 C 
BRANCH  17  22
HETATM   22  C   UNL     1     -40.512 -49.458  11.525  1.00  0.00    -0.046 C 
BRANCH  22  23
HETATM   23  N   UNL     1     -40.313 -49.936  10.375  1.00  0.00    -0.367 N 
ATOM     24  HN2 UNL     1     -40.506 -49.594  11.317  1.00  0.00     0.165 HD
ATOM     25  HN1 UNL     1     -40.151 -50.322   9.445  1.00  0.00     0.165 HD
ENDBRANCH  22  23
ENDBRANCH  17  22
ENDBRANCH   3  17
TORSDOF 6
ENDMDL
MODEL 9
REMARK VINA RESULT:      -5.8      4.276      5.908
REMARK  6 active torsions:
REMARK  status: ('A' for Active; 'I' for Inactive)
REMARK    1  A    between atoms: C_2  and  C_5 
REMARK    2  A    between atoms: N_10  and  C_11 
REMARK    3  A    between atoms: C_11  and  C_12 
REMARK       I    between atoms: C_12  and  N_14 
REMARK    4  A    between atoms: N_14  and  C_15 
REMARK    5  A    between atoms: C_15  and  C_20 
REMARK    6  A    between atoms: C_20  and  N_21 
ROOT
HETATM    1  C   UNL     1     -41.087 -52.852  13.885  1.00  0.00     0.237 C 
HETATM    2  O   UNL     1     -41.258 -52.474  15.043  1.00  0.00    -0.272 OA
HETATM    3  N   UNL     1     -40.238 -52.203  13.014  1.00  0.00    -0.339 N 
HETATM    4  H   UNL     1     -40.067 -52.634  12.116  1.00  0.00     0.164 HD
ENDROOT
BRANCH   1   5
HETATM    5  C   UNL     1     -41.934 -53.984  13.287  1.00  0.00     0.234 C 
BRANCH   5   6
HETATM    6  N   UNL     1     -43.357 -53.894  13.626  1.00  0.00    -0.315 N 
HETATM    7  C   UNL     1     -43.888 -54.823  14.519  1.00  0.00     0.247 A 
HETATM    8  C   UNL     1     -45.327 -54.657  14.841  1.00  0.00     0.075 A 
HETATM    9  O   UNL     1     -43.239 -55.701  15.078  1.00  0.00    -0.268 OA
HETATM   10  C   UNL     1     -46.029 -53.646  14.311  1.00  0.00     0.023 A 
HETATM   11  C   UNL     1     -45.410 -52.703  13.397  1.00  0.00     0.063 A 
HETATM   12  C   UNL     1     -44.112 -52.866  13.084  1.00  0.00     0.110 A 
BRANCH  11  13
HETATM   13  C   UNL     1     -46.217 -51.556  12.851  1.00  0.00     0.418 C 
HETATM   14  F   UNL     1     -47.151 -51.104  13.728  1.00  0.00    -0.166 F 
HETATM   15  F   UNL     1     -46.874 -51.899  11.715  1.00  0.00    -0.166 F 
HETATM   16  F   UNL     1     -45.426 -50.497  12.547  1.00  0.00    -0.166 F 
ENDBRANCH  11  13
ENDBRANCH   5   6
ENDBRANCH   1   5
BRANCH   3  17
HETATM   17  C   UNL     1     -39.420 -51.053  13.408  1.00  0.00     0.104 C 
HETATM   18  C   UNL     1     -40.226 -49.734  13.396  1.00  0.00     0.045 C 
HETATM   19  C   UNL     1     -39.316 -48.651  12.813  1.00  0.00     0.004 C 
HETATM   20  C   UNL     1     -37.982 -49.321  12.520  1.00  0.00     0.004 C 
HETATM   21  C   UNL     1     -38.322 -50.797  12.363  1.00  0.00     0.045 C 
BRANCH  17  22
HETATM   22  C   UNL     1     -38.805 -51.282  14.778  1.00  0.00    -0.046 C 
BRANCH  22  23
HETATM   23  N   UNL     1     -38.294 -51.471  15.916  1.00  0.00    -0.367 N 
ATOM     24  HN2 UNL     1     -38.656 -51.306  14.977  1.00  0.00     0.165 HD
ATOM     25  HN1 UNL     1     -37.881 -51.624  16.836  1.00  0.00     0.165 HD
ENDBRANCH  22  23
ENDBRANCH  17  22
ENDBRANCH   3  17
TORSDOF 6
ENDMDL
