MODEL 1
REMARK VINA RESULT:      -5.1      0.000      0.000
REMARK  6 active torsions:
REMARK  status: ('A' for Active; 'I' for Inactive)
REMARK    1  A    between atoms: O_1  and  C_2 
REMARK    2  A    between atoms: C_2  and  C_3 
REMARK    3  A    between atoms: C_3  and  O_4 
REMARK    4  A    between atoms: O_4  and  C_5 
REMARK    5  A    between atoms: C_8  and  N_9 
REMARK    6  A    between atoms: N_9  and  C_10 
ROOT
HETATM    1  C   UNL     1     -42.436 -47.885  10.403  1.00  0.00     0.141 A 
HETATM    2  C   UNL     1     -43.198 -48.083  11.537  1.00  0.00     0.058 A 
HETATM    3  C   UNL     1     -42.784 -49.054  12.448  1.00  0.00     0.035 A 
HETATM    4  C   UNL     1     -41.631 -49.804  12.208  1.00  0.00     0.044 A 
HETATM    5  C   UNL     1     -40.912 -49.472  11.061  1.00  0.00     0.119 A 
HETATM    6  N   UNL     1     -41.278 -48.531  10.155  1.00  0.00    -0.345 N 
ATOM      7  HN  UNL     1     -40.710 -48.323   9.334  1.00  0.00     0.167 HD
ENDROOT
BRANCH   4   8
HETATM    8  N   UNL     1     -41.317 -50.816  13.112  1.00  0.00    -0.382 N 
HETATM    9  H   UNL     1     -41.100 -50.425  14.027  1.00  0.00     0.160 HD
BRANCH   8  10
HETATM   10  C   UNL     1     -40.462 -51.942  12.736  1.00  0.00     0.107 C 
HETATM   11  C   UNL     1     -41.155 -53.285  12.911  1.00  0.00     0.053 C 
HETATM   12  C   UNL     1     -40.105 -54.205  13.503  1.00  0.00     0.169 C 
HETATM   13  O   UNL     1     -38.911 -53.446  13.706  1.00  0.00    -0.389 OA
HETATM   14  C   UNL     1     -39.283 -52.066  13.700  1.00  0.00     0.192 C 
ENDBRANCH   8  10
ENDBRANCH   4   8
BRANCH   1  15
HETATM   15  O   UNL     1     -42.922 -46.971   9.490  1.00  0.00    -0.334 OA
BRANCH  15  16
HETATM   16  C   UNL     1     -44.150 -47.392   8.894  1.00  0.00     0.203 C 
BRANCH  16  17
HETATM   17  C   UNL     1     -43.821 -48.093   7.580  1.00  0.00     0.191 C 
BRANCH  17  18
HETATM   18  O   UNL     1     -42.821 -47.379   6.868  1.00  0.00    -0.399 OA
HETATM   19  H   UNL     1     -42.047 -47.315   7.453  1.00  0.00     0.209 HD
ENDBRANCH  17  18
ENDBRANCH  16  17
ENDBRANCH  15  16
ENDBRANCH   1  15
TORSDOF 6
ENDMDL
MODEL 2
REMARK VINA RESULT:      -5.0      2.354      2.836
REMARK  6 active torsions:
REMARK  status: ('A' for Active; 'I' for Inactive)
REMARK    1  A    between atoms: O_1  and  C_2 
REMARK    2  A    between atoms: C_2  and  C_3 
REMARK    3  A    between atoms: C_3  and  O_4 
REMARK    4  A    between atoms: O_4  and  C_5 
REMARK    5  A    between atoms: C_8  and  N_9 
REMARK    6  A    between atoms: N_9  and  C_10 
ROOT
HETATM    1  C   UNL     1     -42.632 -46.889  10.000  1.00  0.00     0.141 A 
HETATM    2  C   UNL     1     -41.650 -46.024  10.441  1.00  0.00     0.058 A 
HETATM    3  C   UNL     1     -40.531 -46.564  11.073  1.00  0.00     0.035 A 
HETATM    4  C   UNL     1     -40.417 -47.944  11.255  1.00  0.00     0.044 A 
HETATM    5  C   UNL     1     -41.442 -48.720  10.715  1.00  0.00     0.119 A 
HETATM    6  N   UNL     1     -42.542 -48.233  10.088  1.00  0.00    -0.345 N 
ATOM      7  HN  UNL     1     -43.260 -48.847   9.705  1.00  0.00     0.167 HD
ENDROOT
BRANCH   4   8
HETATM    8  N   UNL     1     -39.317 -48.414  11.969  1.00  0.00    -0.382 N 
HETATM    9  H   UNL     1     -38.516 -47.799  11.840  1.00  0.00     0.160 HD
BRANCH   8  10
HETATM   10  C   UNL     1     -38.970 -49.835  11.993  1.00  0.00     0.107 C 
HETATM   11  C   UNL     1     -38.821 -50.375  13.407  1.00  0.00     0.053 C 
HETATM   12  C   UNL     1     -37.607 -51.284  13.365  1.00  0.00     0.169 C 
HETATM   13  O   UNL     1     -37.060 -51.235  12.044  1.00  0.00    -0.389 OA
HETATM   14  C   UNL     1     -37.570 -50.054  11.421  1.00  0.00     0.192 C 
ENDBRANCH   8  10
ENDBRANCH   4   8
BRANCH   1  15
HETATM   15  O   UNL     1     -43.757 -46.311   9.451  1.00  0.00    -0.334 OA
BRANCH  15  16
HETATM   16  C   UNL     1     -44.531 -47.237   8.685  1.00  0.00     0.203 C 
BRANCH  16  17
HETATM   17  C   UNL     1     -45.987 -47.107   9.118  1.00  0.00     0.191 C 
BRANCH  17  18
HETATM   18  O   UNL     1     -46.846 -47.754   8.190  1.00  0.00    -0.399 OA
HETATM   19  H   UNL     1     -46.975 -47.140   7.447  1.00  0.00     0.209 HD
ENDBRANCH  17  18
ENDBRANCH  16  17
ENDBRANCH  15  16
ENDBRANCH   1  15
TORSDOF 6
ENDMDL
MODEL 3
REMARK VINA RESULT:      -5.0      4.296      6.499
REMARK  6 active torsions:
REMARK  status: ('A' for Active; 'I' for Inactive)
REMARK    1  A    between atoms: O_1  and  C_2 
REMARK    2  A    between atoms: C_2  and  C_3 
REMARK    3  A    between atoms: C_3  and  O_4 
REMARK    4  A    between atoms: O_4  and  C_5 
REMARK    5  A    between atoms: C_8  and  N_9 
REMARK    6  A    between atoms: N_9  and  C_10 
ROOT
HETATM    1  C   UNL     1     -42.054 -53.457  12.899  1.00  0.00     0.141 A 
HETATM    2  C   UNL     1     -42.354 -54.296  13.954  1.00  0.00     0.058 A 
HETATM    3  C   UNL     1     -43.694 -54.592  14.201  1.00  0.00     0.035 A 
HETATM    4  C   UNL     1     -44.699 -54.045  13.400  1.00  0.00     0.044 A 
HETATM    5  C   UNL     1     -44.271 -53.261  12.330  1.00  0.00     0.119 A 
HETATM    6  N   UNL     1     -42.978 -52.957  12.053  1.00  0.00    -0.345 N 
ATOM      7  HN  UNL     1     -42.719 -52.382  11.251  1.00  0.00     0.167 HD
ENDROOT
BRANCH   4   8
HETATM    8  N   UNL     1     -46.021 -54.309  13.750  1.00  0.00    -0.382 N 
HETATM    9  H   UNL     1     -46.561 -54.583  12.931  1.00  0.00     0.160 HD
BRANCH   8  10
HETATM   10  C   UNL     1     -46.756 -53.449  14.677  1.00  0.00     0.107 C 
HETATM   11  C   UNL     1     -46.612 -51.973  14.342  1.00  0.00     0.053 C 
HETATM   12  C   UNL     1     -46.437 -51.272  15.677  1.00  0.00     0.169 C 
HETATM   13  O   UNL     1     -46.426 -52.267  16.704  1.00  0.00    -0.389 OA
HETATM   14  C   UNL     1     -46.140 -53.519  16.074  1.00  0.00     0.192 C 
ENDBRANCH   8  10
ENDBRANCH   4   8
BRANCH   1  15
HETATM   15  O   UNL     1     -40.725 -53.128  12.737  1.00  0.00    -0.334 OA
BRANCH  15  16
HETATM   16  C   UNL     1     -40.399 -51.862  13.315  1.00  0.00     0.203 C 
BRANCH  16  17
HETATM   17  C   UNL     1     -39.833 -50.973  12.213  1.00  0.00     0.191 C 
BRANCH  17  18
HETATM   18  O   UNL     1     -40.722 -50.920  11.105  1.00  0.00    -0.399 OA
HETATM   19  H   UNL     1     -40.654 -51.774  10.645  1.00  0.00     0.209 HD
ENDBRANCH  17  18
ENDBRANCH  16  17
ENDBRANCH  15  16
ENDBRANCH   1  15
TORSDOF 6
ENDMDL
MODEL 4
REMARK VINA RESULT:      -5.0      1.721      6.293
REMARK  6 active torsions:
REMARK  status: ('A' for Active; 'I' for Inactive)
REMARK    1  A    between atoms: O_1  and  C_2 
REMARK    2  A    between atoms: C_2  and  C_3 
REMARK    3  A    between atoms: C_3  and  O_4 
REMARK    4  A    between atoms: O_4  and  C_5 
REMARK    5  A    between atoms: C_8  and  N_9 
REMARK    6  A    between atoms: N_9  and  C_10 
ROOT
HETATM    1  C   UNL     1     -41.304 -49.836  11.780  1.00  0.00     0.141 A 
HETATM    2  C   UNL     1     -42.484 -49.527  12.426  1.00  0.00     0.058 A 
HETATM    3  C   UNL     1     -43.274 -48.504  11.904  1.00  0.00     0.035 A 
HETATM    4  C   UNL     1     -42.871 -47.812  10.761  1.00  0.00     0.044 A 
HETATM    5  C   UNL     1     -41.692 -48.252  10.161  1.00  0.00     0.119 A 
HETATM    6  N   UNL     1     -40.901 -49.247  10.635  1.00  0.00    -0.345 N 
ATOM      7  HN  UNL     1     -40.049 -49.534  10.152  1.00  0.00     0.167 HD
ENDROOT
BRANCH   4   8
HETATM    8  N   UNL     1     -43.660 -46.745  10.338  1.00  0.00    -0.382 N 
HETATM    9  H   UNL     1     -44.103 -46.288  11.134  1.00  0.00     0.160 HD
BRANCH   8  10
HETATM   10  C   UNL     1     -44.527 -46.850   9.164  1.00  0.00     0.107 C 
HETATM   11  C   UNL     1     -45.854 -47.523   9.476  1.00  0.00     0.053 C 
HETATM   12  C   UNL     1     -46.125 -48.443   8.301  1.00  0.00     0.169 C 
HETATM   13  O   UNL     1     -45.018 -48.353   7.400  1.00  0.00    -0.389 OA
HETATM   14  C   UNL     1     -43.922 -47.804   8.135  1.00  0.00     0.192 C 
ENDBRANCH   8  10
ENDBRANCH   4   8
BRANCH   1  15
HETATM   15  O   UNL     1     -40.514 -50.799  12.372  1.00  0.00    -0.334 OA
BRANCH  15  16
HETATM   16  C   UNL     1     -41.254 -51.652  13.248  1.00  0.00     0.203 C 
BRANCH  16  17
HETATM   17  C   UNL     1     -41.490 -52.976  12.528  1.00  0.00     0.191 C 
BRANCH  17  18
HETATM   18  O   UNL     1     -40.506 -53.184  11.525  1.00  0.00    -0.399 OA
HETATM   19  H   UNL     1     -40.977 -53.449  10.716  1.00  0.00     0.209 HD
ENDBRANCH  17  18
ENDBRANCH  16  17
ENDBRANCH  15  16
ENDBRANCH   1  15
TORSDOF 6
ENDMDL
MODEL 5
REMARK VINA RESULT:      -4.9      2.574      2.941
REMARK  6 active torsions:
REMARK  status: ('A' for Active; 'I' for Inactive)
REMARK    1  A    between atoms: O_1  and  C_2 
REMARK    2  A    between atoms: C_2  and  C_3 
REMARK    3  A    between atoms: C_3  and  O_4 
REMARK    4  A    between atoms: O_4  and  C_5 
REMARK    5  A    between atoms: C_8  and  N_9 
REMARK    6  A    between atoms: N_9  and  C_10 
ROOT
HETATM    1  C   UNL     1     -42.034 -48.718  11.184  1.00  0.00     0.141 A 
HETATM    2  C   UNL     1     -43.053 -48.652  12.114  1.00  0.00     0.058 A 
HETATM    3  C   UNL     1     -43.226 -49.731  12.980  1.00  0.00     0.035 A 
HETATM    4  C   UNL     1     -42.390 -50.846  12.898  1.00  0.00     0.044 A 
HETATM    5  C   UNL     1     -41.360 -50.772  11.961  1.00  0.00     0.119 A 
HETATM    6  N   UNL     1     -41.155 -49.738  11.106  1.00  0.00    -0.345 N 
ATOM      7  HN  UNL     1     -40.380 -49.733  10.443  1.00  0.00     0.167 HD
ENDROOT
BRANCH   4   8
HETATM    8  N   UNL     1     -42.667 -51.926  13.732  1.00  0.00    -0.382 N 
HETATM    9  H   UNL     1     -41.881 -52.573  13.755  1.00  0.00     0.160 HD
BRANCH   8  10
HETATM   10  C   UNL     1     -43.972 -52.586  13.724  1.00  0.00     0.107 C 
HETATM   11  C   UNL     1     -44.066 -53.706  14.749  1.00  0.00     0.053 C 
HETATM   12  C   UNL     1     -44.804 -54.831  14.049  1.00  0.00     0.169 C 
HETATM   13  O   UNL     1     -45.071 -54.421  12.706  1.00  0.00    -0.389 OA
HETATM   14  C   UNL     1     -44.183 -53.340  12.412  1.00  0.00     0.192 C 
ENDBRANCH   8  10
ENDBRANCH   4   8
BRANCH   1  15
HETATM   15  O   UNL     1     -41.946 -47.666  10.296  1.00  0.00    -0.334 OA
BRANCH  15  16
HETATM   16  C   UNL     1     -43.214 -47.063  10.033  1.00  0.00     0.203 C 
BRANCH  16  17
HETATM   17  C   UNL     1     -43.462 -47.122   8.530  1.00  0.00     0.191 C 
BRANCH  17  18
HETATM   18  O   UNL     1     -42.716 -46.115   7.859  1.00  0.00    -0.399 OA
HETATM   19  H   UNL     1     -42.377 -45.511   8.541  1.00  0.00     0.209 HD
ENDBRANCH  17  18
ENDBRANCH  16  17
ENDBRANCH  15  16
ENDBRANCH   1  15
TORSDOF 6
ENDMDL
MODEL 6
REMARK VINA RESULT:      -4.9      3.965      5.917
REMARK  6 active torsions:
REMARK  status: ('A' for Active; 'I' for Inactive)
REMARK    1  A    between atoms: O_1  and  C_2 
REMARK    2  A    between atoms: C_2  and  C_3 
REMARK    3  A    between atoms: C_3  and  O_4 
REMARK    4  A    between atoms: O_4  and  C_5 
REMARK    5  A    between atoms: C_8  and  N_9 
REMARK    6  A    between atoms: N_9  and  C_10 
ROOT
HETATM    1  C   UNL     1     -41.637 -53.006  12.341  1.00  0.00     0.141 A 
HETATM    2  C   UNL     1     -41.466 -53.793  13.462  1.00  0.00     0.058 A 
HETATM    3  C   UNL     1     -42.601 -54.313  14.082  1.00  0.00     0.035 A 
HETATM    4  C   UNL     1     -43.874 -54.036  13.577  1.00  0.00     0.044 A 
HETATM    5  C   UNL     1     -43.917 -53.280  12.406  1.00  0.00     0.119 A 
HETATM    6  N   UNL     1     -42.835 -52.763  11.771  1.00  0.00    -0.345 N 
ATOM      7  HN  UNL     1     -42.923 -52.221  10.911  1.00  0.00     0.167 HD
ENDROOT
BRANCH   4   8
HETATM    8  N   UNL     1     -44.971 -54.513  14.289  1.00  0.00    -0.382 N 
HETATM    9  H   UNL     1     -45.518 -55.155  13.718  1.00  0.00     0.160 HD
BRANCH   8  10
HETATM   10  C   UNL     1     -45.785 -53.631  15.125  1.00  0.00     0.107 C 
HETATM   11  C   UNL     1     -46.799 -52.834  14.318  1.00  0.00     0.053 C 
HETATM   12  C   UNL     1     -46.779 -51.439  14.913  1.00  0.00     0.169 C 
HETATM   13  O   UNL     1     -45.794 -51.410  15.949  1.00  0.00    -0.389 OA
HETATM   14  C   UNL     1     -44.925 -52.525  15.734  1.00  0.00     0.192 C 
ENDBRANCH   8  10
ENDBRANCH   4   8
BRANCH   1  15
HETATM   15  O   UNL     1     -40.495 -52.447  11.804  1.00  0.00    -0.334 OA
BRANCH  15  16
HETATM   16  C   UNL     1     -40.124 -51.230  12.453  1.00  0.00     0.203 C 
BRANCH  16  17
HETATM   17  C   UNL     1     -40.753 -50.074  11.682  1.00  0.00     0.191 C 
BRANCH  17  18
HETATM   18  O   UNL     1     -40.345 -50.099  10.321  1.00  0.00    -0.399 OA
HETATM   19  H   UNL     1     -41.149 -50.215   9.786  1.00  0.00     0.209 HD
ENDBRANCH  17  18
ENDBRANCH  16  17
ENDBRANCH  15  16
ENDBRANCH   1  15
TORSDOF 6
ENDMDL
MODEL 7
REMARK VINA RESULT:      -4.9      1.891      6.962
REMARK  6 active torsions:
REMARK  status: ('A' for Active; 'I' for Inactive)
REMARK    1  A    between atoms: O_1  and  C_2 
REMARK    2  A    between atoms: C_2  and  C_3 
REMARK    3  A    between atoms: C_3  and  O_4 
REMARK    4  A    between atoms: O_4  and  C_5 
REMARK    5  A    between atoms: C_8  and  N_9 
REMARK    6  A    between atoms: N_9  and  C_10 
ROOT
HETATM    1  C   UNL     1     -39.250 -50.982  12.652  1.00  0.00     0.141 A 
HETATM    2  C   UNL     1     -38.752 -49.759  13.056  1.00  0.00     0.058 A 
HETATM    3  C   UNL     1     -39.197 -48.615  12.396  1.00  0.00     0.035 A 
HETATM    4  C   UNL     1     -40.119 -48.713  11.352  1.00  0.00     0.044 A 
HETATM    5  C   UNL     1     -40.596 -49.994  11.074  1.00  0.00     0.119 A 
HETATM    6  N   UNL     1     -40.193 -51.129  11.698  1.00  0.00    -0.345 N 
ATOM      7  HN  UNL     1     -40.580 -52.042  11.460  1.00  0.00     0.167 HD
ENDROOT
BRANCH   4   8
HETATM    8  N   UNL     1     -40.460 -47.544  10.676  1.00  0.00    -0.382 N 
HETATM    9  H   UNL     1     -39.718 -46.852  10.760  1.00  0.00     0.160 HD
BRANCH   8  10
HETATM   10  C   UNL     1     -41.805 -46.977  10.756  1.00  0.00     0.107 C 
HETATM   11  C   UNL     1     -42.712 -47.464   9.637  1.00  0.00     0.053 C 
HETATM   12  C   UNL     1     -43.495 -46.243   9.193  1.00  0.00     0.169 C 
HETATM   13  O   UNL     1     -43.043 -45.122   9.958  1.00  0.00    -0.389 OA
HETATM   14  C   UNL     1     -41.768 -45.470  10.502  1.00  0.00     0.192 C 
ENDBRANCH   8  10
ENDBRANCH   4   8
BRANCH   1  15
HETATM   15  O   UNL     1     -38.727 -52.094  13.278  1.00  0.00    -0.334 OA
BRANCH  15  16
HETATM   16  C   UNL     1     -39.590 -52.610  14.293  1.00  0.00     0.203 C 
BRANCH  16  17
HETATM   17  C   UNL     1     -39.332 -54.107  14.416  1.00  0.00     0.191 C 
BRANCH  17  18
HETATM   18  O   UNL     1     -38.613 -54.586  13.288  1.00  0.00    -0.399 OA
HETATM   19  H   UNL     1     -37.677 -54.366  13.434  1.00  0.00     0.209 HD
ENDBRANCH  17  18
ENDBRANCH  16  17
ENDBRANCH  15  16
ENDBRANCH   1  15
TORSDOF 6
ENDMDL
MODEL 8
REMARK VINA RESULT:      -4.8      4.543      5.539
REMARK  6 active torsions:
REMARK  status: ('A' for Active; 'I' for Inactive)
REMARK    1  A    between atoms: O_1  and  C_2 
REMARK    2  A    between atoms: C_2  and  C_3 
REMARK    3  A    between atoms: C_3  and  O_4 
REMARK    4  A    between atoms: O_4  and  C_5 
REMARK    5  A    between atoms: C_8  and  N_9 
REMARK    6  A    between atoms: N_9  and  C_10 
ROOT
HETATM    1  C   UNL     1     -43.491 -53.739  12.775  1.00  0.00     0.141 A 
HETATM    2  C   UNL     1     -42.815 -54.156  13.904  1.00  0.00     0.058 A 
HETATM    3  C   UNL     1     -41.523 -53.676  14.115  1.00  0.00     0.035 A 
HETATM    4  C   UNL     1     -40.935 -52.801  13.200  1.00  0.00     0.044 A 
HETATM    5  C   UNL     1     -41.736 -52.404  12.130  1.00  0.00     0.119 A 
HETATM    6  N   UNL     1     -42.998 -52.843  11.895  1.00  0.00    -0.345 N 
ATOM      7  HN  UNL     1     -43.544 -52.514  11.098  1.00  0.00     0.167 HD
ENDROOT
BRANCH   4   8
HETATM    8  N   UNL     1     -39.613 -52.424  13.421  1.00  0.00    -0.382 N 
HETATM    9  H   UNL     1     -39.232 -52.910  14.231  1.00  0.00     0.160 HD
BRANCH   8  10
HETATM   10  C   UNL     1     -39.186 -51.029  13.318  1.00  0.00     0.107 C 
HETATM   11  C   UNL     1     -37.687 -50.861  13.516  1.00  0.00     0.053 C 
HETATM   12  C   UNL     1     -37.531 -49.619  14.373  1.00  0.00     0.169 C 
HETATM   13  O   UNL     1     -38.837 -49.132  14.694  1.00  0.00    -0.389 OA
HETATM   14  C   UNL     1     -39.752 -50.208  14.476  1.00  0.00     0.192 C 
ENDBRANCH   8  10
ENDBRANCH   4   8
BRANCH   1  15
HETATM   15  O   UNL     1     -44.734 -54.298  12.563  1.00  0.00    -0.334 OA
BRANCH  15  16
HETATM   16  C   UNL     1     -45.685 -53.910  13.557  1.00  0.00     0.203 C 
BRANCH  16  17
HETATM   17  C   UNL     1     -46.322 -52.598  13.113  1.00  0.00     0.191 C 
BRANCH  17  18
HETATM   18  O   UNL     1     -46.711 -52.666  11.749  1.00  0.00    -0.399 OA
HETATM   19  H   UNL     1     -46.583 -53.586  11.462  1.00  0.00     0.209 HD
ENDBRANCH  17  18
ENDBRANCH  16  17
ENDBRANCH  15  16
ENDBRANCH   1  15
TORSDOF 6
ENDMDL
MODEL 9
REMARK VINA RESULT:      -4.8      1.611      6.531
REMARK  6 active torsions:
REMARK  status: ('A' for Active; 'I' for Inactive)
REMARK    1  A    between atoms: O_1  and  C_2 
REMARK    2  A    between atoms: C_2  and  C_3 
REMARK    3  A    between atoms: C_3  and  O_4 
REMARK    4  A    between atoms: O_4  and  C_5 
REMARK    5  A    between atoms: C_8  and  N_9 
REMARK    6  A    between atoms: N_9  and  C_10 
ROOT
HETATM    1  C   UNL     1     -40.621 -50.970  12.955  1.00  0.00     0.141 A 
HETATM    2  C   UNL     1     -41.678 -50.111  13.181  1.00  0.00     0.058 A 
HETATM    3  C   UNL     1     -41.864 -49.047  12.300  1.00  0.00     0.035 A 
HETATM    4  C   UNL     1     -40.996 -48.861  11.222  1.00  0.00     0.044 A 
HETATM    5  C   UNL     1     -40.004 -49.826  11.061  1.00  0.00     0.119 A 
HETATM    6  N   UNL     1     -39.795 -50.878  11.893  1.00  0.00    -0.345 N 
ATOM      7  HN  UNL     1     -39.055 -51.560  11.724  1.00  0.00     0.167 HD
ENDROOT
BRANCH   4   8
HETATM    8  N   UNL     1     -41.184 -47.733  10.427  1.00  0.00    -0.382 N 
HETATM    9  H   UNL     1     -40.383 -47.107  10.497  1.00  0.00     0.160 HD
BRANCH   8  10
HETATM   10  C   UNL     1     -42.469 -47.038  10.373  1.00  0.00     0.107 C 
HETATM   11  C   UNL     1     -43.274 -47.394   9.133  1.00  0.00     0.053 C 
HETATM   12  C   UNL     1     -43.879 -46.087   8.656  1.00  0.00     0.169 C 
HETATM   13  O   UNL     1     -43.420 -45.043   9.519  1.00  0.00    -0.389 OA
HETATM   14  C   UNL     1     -42.259 -45.535  10.194  1.00  0.00     0.192 C 
ENDBRANCH   8  10
ENDBRANCH   4   8
BRANCH   1  15
HETATM   15  O   UNL     1     -40.426 -51.962  13.893  1.00  0.00    -0.334 OA
BRANCH  15  16
HETATM   16  C   UNL     1     -41.375 -53.023  13.775  1.00  0.00     0.203 C 
BRANCH  16  17
HETATM   17  C   UNL     1     -40.712 -54.166  13.014  1.00  0.00     0.191 C 
BRANCH  17  18
HETATM   18  O   UNL     1     -40.592 -53.848  11.635  1.00  0.00    -0.399 OA
HETATM   19  H   UNL     1     -40.814 -54.654  11.137  1.00  0.00     0.209 HD
ENDBRANCH  17  18
ENDBRANCH  16  17
ENDBRANCH  15  16
ENDBRANCH   1  15
TORSDOF 6
ENDMDL
