MODEL 1
REMARK VINA RESULT:      -6.6      0.000      0.000
REMARK  3 active torsions:
REMARK  status: ('A' for Active; 'I' for Inactive)
REMARK    1  A    between atoms: N_6  and  C_7 
REMARK    2  A    between atoms: C_7  and  C_8 
REMARK       I    between atoms: C_8  and  N_10 
REMARK    3  A    between atoms: N_10  and  C_11 
ROOT
HETATM    1  C   UNL     1     -44.635 -52.657  14.792  1.00  0.00     0.122 C 
HETATM    2  C   UNL     1     -44.542 -52.306  16.297  1.00  0.00     0.046 C 
HETATM    3  C   UNL     1     -45.910 -52.160  16.975  1.00  0.00     0.004 C 
HETATM    4  C   UNL     1     -46.862 -51.228  16.227  1.00  0.00     0.000 C 
HETATM    5  C   UNL     1     -46.900 -51.468  14.718  1.00  0.00     0.004 C 
HETATM    6  C   UNL     1     -45.494 -51.563  14.109  1.00  0.00     0.046 C 
HETATM    7  C   UNL     1     -45.314 -53.975  14.612  1.00  0.00     0.091 C 
HETATM    8  N   UNL     1     -45.819 -55.003  14.435  1.00  0.00    -0.195 NA
ENDROOT
BRANCH   1   9
HETATM    9  N   UNL     1     -43.288 -52.811  14.204  1.00  0.00    -0.338 N 
HETATM   10  C   UNL     1     -43.016 -53.035  12.874  1.00  0.00     0.238 C 
HETATM   11  O   UNL     1     -43.896 -53.190  12.034  1.00  0.00    -0.272 OA
HETATM   12  H   UNL     1     -42.497 -52.500  14.764  1.00  0.00     0.164 HD
BRANCH  10  13
HETATM   13  C   UNL     1     -41.547 -52.850  12.481  1.00  0.00     0.255 C 
BRANCH  13  14
HETATM   14  N   UNL     1     -41.136 -51.453  12.349  1.00  0.00    -0.248 N 
HETATM   15  N   UNL     1     -42.086 -50.553  11.923  1.00  0.00    -0.305 N 
HETATM   16  C   UNL     1     -41.676 -49.362  11.633  1.00  0.00     0.133 A 
ATOM     17  HN  UNL     1     -43.069 -50.814  11.840  1.00  0.00     0.186 HD
HETATM   18  C   UNL     1     -40.290 -48.879  11.736  1.00  0.00     0.078 A 
HETATM   19 CL   UNL     1     -39.991 -47.250  11.292  1.00  0.00    -0.081 Cl
HETATM   20  C   UNL     1     -39.381 -49.752  12.170  1.00  0.00     0.126 A 
HETATM   21  C   UNL     1     -39.779 -51.147  12.493  1.00  0.00     0.285 A 
HETATM   22 CL   UNL     1     -37.706 -49.350  12.348  1.00  0.00    -0.076 Cl
HETATM   23  O   UNL     1     -38.948 -51.981  12.850  1.00  0.00    -0.265 OA
ENDBRANCH  13  14
ENDBRANCH  10  13
ENDBRANCH   1   9
TORSDOF 3
ENDMDL
MODEL 2
REMARK VINA RESULT:      -6.2      1.962      2.782
REMARK  3 active torsions:
REMARK  status: ('A' for Active; 'I' for Inactive)
REMARK    1  A    between atoms: N_6  and  C_7 
REMARK    2  A    between atoms: C_7  and  C_8 
REMARK       I    between atoms: C_8  and  N_10 
REMARK    3  A    between atoms: N_10  and  C_11 
ROOT
HETATM    1  C   UNL     1     -44.753 -52.825  13.082  1.00  0.00     0.122 C 
HETATM    2  C   UNL     1     -44.613 -54.350  13.309  1.00  0.00     0.046 C 
HETATM    3  C   UNL     1     -45.813 -54.973  14.033  1.00  0.00     0.004 C 
HETATM    4  C   UNL     1     -46.197 -54.236  15.315  1.00  0.00     0.000 C 
HETATM    5  C   UNL     1     -46.238 -52.716  15.163  1.00  0.00     0.004 C 
HETATM    6  C   UNL     1     -44.986 -52.167  14.465  1.00  0.00     0.046 C 
HETATM    7  C   UNL     1     -45.936 -52.540  12.216  1.00  0.00     0.091 C 
HETATM    8  N   UNL     1     -46.833 -52.283  11.530  1.00  0.00    -0.195 NA
ENDROOT
BRANCH   1   9
HETATM    9  N   UNL     1     -43.581 -52.292  12.357  1.00  0.00    -0.338 N 
HETATM   10  C   UNL     1     -42.290 -52.269  12.830  1.00  0.00     0.238 C 
HETATM   11  O   UNL     1     -41.989 -52.647  13.958  1.00  0.00    -0.272 OA
HETATM   12  H   UNL     1     -43.680 -52.148  11.354  1.00  0.00     0.164 HD
BRANCH  10  13
HETATM   13  C   UNL     1     -41.226 -51.952  11.775  1.00  0.00     0.255 C 
BRANCH  13  14
HETATM   14  N   UNL     1     -40.228 -50.976  12.210  1.00  0.00    -0.248 N 
HETATM   15  N   UNL     1     -39.252 -51.413  13.078  1.00  0.00    -0.305 N 
HETATM   16  C   UNL     1     -38.486 -50.513  13.600  1.00  0.00     0.133 A 
ATOM     17  HN  UNL     1     -39.140 -52.402  13.298  1.00  0.00     0.186 HD
HETATM   18  C   UNL     1     -38.553 -49.067  13.336  1.00  0.00     0.078 A 
HETATM   19 CL   UNL     1     -37.424 -48.067  14.153  1.00  0.00    -0.081 Cl
HETATM   20  C   UNL     1     -39.486 -48.654  12.478  1.00  0.00     0.126 A 
HETATM   21  C   UNL     1     -40.421 -49.634  11.863  1.00  0.00     0.285 A 
HETATM   22 CL   UNL     1     -39.703 -46.990  12.056  1.00  0.00    -0.076 Cl
HETATM   23  O   UNL     1     -41.319 -49.270  11.106  1.00  0.00    -0.265 OA
ENDBRANCH  13  14
ENDBRANCH  10  13
ENDBRANCH   1   9
TORSDOF 3
ENDMDL
MODEL 3
REMARK VINA RESULT:      -6.2      2.152      2.520
REMARK  3 active torsions:
REMARK  status: ('A' for Active; 'I' for Inactive)
REMARK    1  A    between atoms: N_6  and  C_7 
REMARK    2  A    between atoms: C_7  and  C_8 
REMARK       I    between atoms: C_8  and  N_10 
REMARK    3  A    between atoms: N_10  and  C_11 
ROOT
HETATM    1  C   UNL     1     -45.138 -52.127  13.229  1.00  0.00     0.122 C 
HETATM    2  C   UNL     1     -44.818 -53.549  13.752  1.00  0.00     0.046 C 
HETATM    3  C   UNL     1     -46.011 -54.232  14.431  1.00  0.00     0.004 C 
HETATM    4  C   UNL     1     -46.679 -53.366  15.499  1.00  0.00     0.000 C 
HETATM    5  C   UNL     1     -46.912 -51.920  15.062  1.00  0.00     0.004 C 
HETATM    6  C   UNL     1     -45.661 -51.296  14.427  1.00  0.00     0.046 C 
HETATM    7  C   UNL     1     -46.209 -52.189  12.191  1.00  0.00     0.091 C 
HETATM    8  N   UNL     1     -47.024 -52.202  11.367  1.00  0.00    -0.195 NA
ENDROOT
BRANCH   1   9
HETATM    9  N   UNL     1     -43.960 -51.536  12.562  1.00  0.00    -0.338 N 
HETATM   10  C   UNL     1     -42.764 -51.231  13.170  1.00  0.00     0.238 C 
HETATM   11  O   UNL     1     -42.578 -51.371  14.375  1.00  0.00    -0.272 OA
HETATM   12  H   UNL     1     -43.934 -51.571  11.544  1.00  0.00     0.164 HD
BRANCH  10  13
HETATM   13  C   UNL     1     -41.615 -50.920  12.206  1.00  0.00     0.255 C 
BRANCH  13  14
HETATM   14  N   UNL     1     -41.452 -49.497  11.914  1.00  0.00    -0.248 N 
HETATM   15  N   UNL     1     -42.057 -49.011  10.778  1.00  0.00    -0.305 N 
HETATM   16  C   UNL     1     -41.761 -47.802  10.427  1.00  0.00     0.133 A 
ATOM     17  HN  UNL     1     -42.710 -49.578  10.237  1.00  0.00     0.186 HD
HETATM   18  C   UNL     1     -40.850 -46.896  11.143  1.00  0.00     0.078 A 
HETATM   19 CL   UNL     1     -40.614 -45.333  10.478  1.00  0.00    -0.081 Cl
HETATM   20  C   UNL     1     -40.284 -47.367  12.254  1.00  0.00     0.126 A 
HETATM   21  C   UNL     1     -40.559 -48.760  12.700  1.00  0.00     0.285 A 
HETATM   22 CL   UNL     1     -39.188 -46.435  13.217  1.00  0.00    -0.076 Cl
HETATM   23  O   UNL     1     -40.011 -49.230  13.696  1.00  0.00    -0.265 OA
ENDBRANCH  13  14
ENDBRANCH  10  13
ENDBRANCH   1   9
TORSDOF 3
ENDMDL
MODEL 4
REMARK VINA RESULT:      -6.2      3.806      7.254
REMARK  3 active torsions:
REMARK  status: ('A' for Active; 'I' for Inactive)
REMARK    1  A    between atoms: N_6  and  C_7 
REMARK    2  A    between atoms: C_7  and  C_8 
REMARK       I    between atoms: C_8  and  N_10 
REMARK    3  A    between atoms: N_10  and  C_11 
ROOT
HETATM    1  C   UNL     1     -40.303 -45.868  11.347  1.00  0.00     0.122 C 
HETATM    2  C   UNL     1     -41.828 -45.632  11.479  1.00  0.00     0.046 C 
HETATM    3  C   UNL     1     -42.196 -44.173  11.776  1.00  0.00     0.004 C 
HETATM    4  C   UNL     1     -41.420 -43.579  12.951  1.00  0.00     0.000 C 
HETATM    5  C   UNL     1     -39.923 -43.884  12.919  1.00  0.00     0.004 C 
HETATM    6  C   UNL     1     -39.638 -45.370  12.655  1.00  0.00     0.046 C 
HETATM    7  C   UNL     1     -39.756 -45.076  10.205  1.00  0.00     0.091 C 
HETATM    8  N   UNL     1     -39.301 -44.491   9.315  1.00  0.00    -0.195 NA
ENDROOT
BRANCH   1   9
HETATM    9  N   UNL     1     -40.016 -47.283  11.033  1.00  0.00    -0.338 N 
HETATM   10  C   UNL     1     -40.419 -48.366  11.779  1.00  0.00     0.238 C 
HETATM   11  O   UNL     1     -41.023 -48.253  12.841  1.00  0.00    -0.272 OA
HETATM   12  H   UNL     1     -39.709 -47.497  10.086  1.00  0.00     0.164 HD
BRANCH  10  13
HETATM   13  C   UNL     1     -40.260 -49.720  11.082  1.00  0.00     0.255 C 
BRANCH  13  14
HETATM   14  N   UNL     1     -40.781 -50.850  11.849  1.00  0.00    -0.248 N 
HETATM   15  N   UNL     1     -42.148 -50.964  11.958  1.00  0.00    -0.305 N 
HETATM   16  C   UNL     1     -42.599 -51.852  12.783  1.00  0.00     0.133 A 
ATOM     17  HN  UNL     1     -42.777 -50.375  11.413  1.00  0.00     0.186 HD
HETATM   18  C   UNL     1     -41.781 -52.762  13.600  1.00  0.00     0.078 A 
HETATM   19 CL   UNL     1     -42.612 -53.857  14.625  1.00  0.00    -0.081 Cl
HETATM   20  C   UNL     1     -40.458 -52.659  13.472  1.00  0.00     0.126 A 
HETATM   21  C   UNL     1     -39.872 -51.639  12.563  1.00  0.00     0.285 A 
HETATM   22 CL   UNL     1     -39.350 -53.651  14.359  1.00  0.00    -0.076 Cl
HETATM   23  O   UNL     1     -38.654 -51.496  12.466  1.00  0.00    -0.265 OA
ENDBRANCH  13  14
ENDBRANCH  10  13
ENDBRANCH   1   9
TORSDOF 3
ENDMDL
MODEL 5
REMARK VINA RESULT:      -6.1      2.324      2.896
REMARK  3 active torsions:
REMARK  status: ('A' for Active; 'I' for Inactive)
REMARK    1  A    between atoms: N_6  and  C_7 
REMARK    2  A    between atoms: C_7  and  C_8 
REMARK       I    between atoms: C_8  and  N_10 
REMARK    3  A    between atoms: N_10  and  C_11 
ROOT
HETATM    1  C   UNL     1     -44.440 -52.009  13.543  1.00  0.00     0.122 C 
HETATM    2  C   UNL     1     -44.042 -51.987  15.039  1.00  0.00     0.046 C 
HETATM    3  C   UNL     1     -45.155 -52.474  15.974  1.00  0.00     0.004 C 
HETATM    4  C   UNL     1     -46.498 -51.788  15.728  1.00  0.00     0.000 C 
HETATM    5  C   UNL     1     -46.878 -51.689  14.251  1.00  0.00     0.004 C 
HETATM    6  C   UNL     1     -45.724 -51.157  13.389  1.00  0.00     0.046 C 
HETATM    7  C   UNL     1     -44.742 -53.406  13.111  1.00  0.00     0.091 C 
HETATM    8  N   UNL     1     -44.965 -54.479  12.736  1.00  0.00    -0.195 NA
ENDROOT
BRANCH   1   9
HETATM    9  N   UNL     1     -43.318 -51.556  12.695  1.00  0.00    -0.338 N 
HETATM   10  C   UNL     1     -42.715 -50.321  12.757  1.00  0.00     0.238 C 
HETATM   11  O   UNL     1     -43.102 -49.430  13.506  1.00  0.00    -0.272 OA
HETATM   12  H   UNL     1     -42.794 -52.272  12.194  1.00  0.00     0.164 HD
BRANCH  10  13
HETATM   13  C   UNL     1     -41.392 -50.215  11.993  1.00  0.00     0.255 C 
BRANCH  13  14
HETATM   14  N   UNL     1     -40.702 -48.938  12.171  1.00  0.00    -0.248 N 
HETATM   15  N   UNL     1     -40.026 -48.744  13.354  1.00  0.00    -0.305 N 
HETATM   16  C   UNL     1     -39.575 -47.555  13.583  1.00  0.00     0.133 A 
ATOM     17  HN  UNL     1     -39.887 -49.505  14.019  1.00  0.00     0.186 HD
HETATM   18  C   UNL     1     -39.704 -46.397  12.685  1.00  0.00     0.078 A 
HETATM   19 CL   UNL     1     -39.020 -44.915  13.212  1.00  0.00    -0.081 Cl
HETATM   20  C   UNL     1     -40.341 -46.598  11.532  1.00  0.00     0.126 A 
HETATM   21  C   UNL     1     -40.911 -47.936  11.217  1.00  0.00     0.285 A 
HETATM   22 CL   UNL     1     -40.582 -45.346  10.361  1.00  0.00    -0.076 Cl
HETATM   23  O   UNL     1     -41.543 -48.131  10.181  1.00  0.00    -0.265 OA
ENDBRANCH  13  14
ENDBRANCH  10  13
ENDBRANCH   1   9
TORSDOF 3
ENDMDL
MODEL 6
REMARK VINA RESULT:      -6.0      1.699      2.294
REMARK  3 active torsions:
REMARK  status: ('A' for Active; 'I' for Inactive)
REMARK    1  A    between atoms: N_6  and  C_7 
REMARK    2  A    between atoms: C_7  and  C_8 
REMARK       I    between atoms: C_8  and  N_10 
REMARK    3  A    between atoms: N_10  and  C_11 
ROOT
HETATM    1  C   UNL     1     -44.625 -52.885  14.376  1.00  0.00     0.122 C 
HETATM    2  C   UNL     1     -44.579 -52.457  15.863  1.00  0.00     0.046 C 
HETATM    3  C   UNL     1     -45.966 -52.249  16.482  1.00  0.00     0.004 C 
HETATM    4  C   UNL     1     -46.871 -51.339  15.652  1.00  0.00     0.000 C 
HETATM    5  C   UNL     1     -46.860 -51.657  14.157  1.00  0.00     0.004 C 
HETATM    6  C   UNL     1     -45.435 -51.811  13.606  1.00  0.00     0.046 C 
HETATM    7  C   UNL     1     -45.326 -54.196  14.239  1.00  0.00     0.091 C 
HETATM    8  N   UNL     1     -45.846 -55.222  14.097  1.00  0.00    -0.195 NA
ENDROOT
BRANCH   1   9
HETATM    9  N   UNL     1     -43.262 -53.096  13.847  1.00  0.00    -0.338 N 
HETATM   10  C   UNL     1     -42.350 -54.008  14.326  1.00  0.00     0.238 C 
HETATM   11  O   UNL     1     -42.569 -54.714  15.305  1.00  0.00    -0.272 OA
HETATM   12  H   UNL     1     -43.056 -52.718  12.924  1.00  0.00     0.164 HD
BRANCH  10  13
HETATM   13  C   UNL     1     -41.139 -54.240  13.418  1.00  0.00     0.255 C 
BRANCH  13  14
HETATM   14  N   UNL     1     -40.242 -53.090  13.315  1.00  0.00    -0.248 N 
HETATM   15  N   UNL     1     -39.273 -52.955  14.284  1.00  0.00    -0.305 N 
HETATM   16  C   UNL     1     -38.606 -51.848  14.295  1.00  0.00     0.133 A 
ATOM     17  HN  UNL     1     -39.091 -53.694  14.962  1.00  0.00     0.186 HD
HETATM   18  C   UNL     1     -38.777 -50.730  13.354  1.00  0.00     0.078 A 
HETATM   19 CL   UNL     1     -37.769 -49.359  13.572  1.00  0.00    -0.081 Cl
HETATM   20  C   UNL     1     -39.702 -50.878  12.406  1.00  0.00     0.126 A 
HETATM   21  C   UNL     1     -40.527 -52.115  12.353  1.00  0.00     0.285 A 
HETATM   22 CL   UNL     1     -40.033 -49.661  11.220  1.00  0.00    -0.076 Cl
HETATM   23  O   UNL     1     -41.418 -52.252  11.517  1.00  0.00    -0.265 OA
ENDBRANCH  13  14
ENDBRANCH  10  13
ENDBRANCH   1   9
TORSDOF 3
ENDMDL
MODEL 7
REMARK VINA RESULT:      -6.0      1.916      2.576
REMARK  3 active torsions:
REMARK  status: ('A' for Active; 'I' for Inactive)
REMARK    1  A    between atoms: N_6  and  C_7 
REMARK    2  A    between atoms: C_7  and  C_8 
REMARK       I    between atoms: C_8  and  N_10 
REMARK    3  A    between atoms: N_10  and  C_11 
ROOT
HETATM    1  C   UNL     1     -45.662 -52.405  15.779  1.00  0.00     0.122 C 
HETATM    2  C   UNL     1     -44.864 -51.261  16.451  1.00  0.00     0.046 C 
HETATM    3  C   UNL     1     -45.532 -50.713  17.717  1.00  0.00     0.004 C 
HETATM    4  C   UNL     1     -47.002 -50.345  17.518  1.00  0.00     0.000 C 
HETATM    5  C   UNL     1     -47.803 -51.402  16.758  1.00  0.00     0.004 C 
HETATM    6  C   UNL     1     -47.086 -51.871  15.484  1.00  0.00     0.046 C 
HETATM    7  C   UNL     1     -45.775 -53.569  16.708  1.00  0.00     0.091 C 
HETATM    8  N   UNL     1     -45.866 -54.498  17.395  1.00  0.00    -0.195 NA
ENDROOT
BRANCH   1   9
HETATM    9  N   UNL     1     -44.954 -52.908  14.584  1.00  0.00    -0.338 N 
HETATM   10  C   UNL     1     -44.831 -52.242  13.387  1.00  0.00     0.238 C 
HETATM   11  O   UNL     1     -45.366 -51.158  13.172  1.00  0.00    -0.272 OA
HETATM   12  H   UNL     1     -44.312 -53.687  14.716  1.00  0.00     0.164 HD
BRANCH  10  13
HETATM   13  C   UNL     1     -43.800 -52.838  12.424  1.00  0.00     0.255 C 
BRANCH  13  14
HETATM   14  N   UNL     1     -42.445 -52.322  12.609  1.00  0.00    -0.248 N 
HETATM   15  N   UNL     1     -42.088 -51.206  11.887  1.00  0.00    -0.305 N 
HETATM   16  C   UNL     1     -40.843 -50.863  11.913  1.00  0.00     0.133 A 
ATOM     17  HN  UNL     1     -42.777 -50.673  11.355  1.00  0.00     0.186 HD
HETATM   18  C   UNL     1     -39.777 -51.549  12.660  1.00  0.00     0.078 A 
HETATM   19 CL   UNL     1     -38.192 -50.904  12.538  1.00  0.00    -0.081 Cl
HETATM   20  C   UNL     1     -40.133 -52.617  13.374  1.00  0.00     0.126 A 
HETATM   21  C   UNL     1     -41.546 -53.083  13.365  1.00  0.00     0.285 A 
HETATM   22 CL   UNL     1     -39.006 -53.540  14.309  1.00  0.00    -0.076 Cl
HETATM   23  O   UNL     1     -41.887 -54.093  13.978  1.00  0.00    -0.265 OA
ENDBRANCH  13  14
ENDBRANCH  10  13
ENDBRANCH   1   9
TORSDOF 3
ENDMDL
MODEL 8
REMARK VINA RESULT:      -6.0      2.346      3.112
REMARK  3 active torsions:
REMARK  status: ('A' for Active; 'I' for Inactive)
REMARK    1  A    between atoms: N_6  and  C_7 
REMARK    2  A    between atoms: C_7  and  C_8 
REMARK       I    between atoms: C_8  and  N_10 
REMARK    3  A    between atoms: N_10  and  C_11 
ROOT
HETATM    1  C   UNL     1     -44.453 -53.372  13.626  1.00  0.00     0.122 C 
HETATM    2  C   UNL     1     -44.503 -52.505  14.907  1.00  0.00     0.046 C 
HETATM    3  C   UNL     1     -45.919 -52.052  15.283  1.00  0.00     0.004 C 
HETATM    4  C   UNL     1     -46.676 -51.405  14.124  1.00  0.00     0.000 C 
HETATM    5  C   UNL     1     -46.560 -52.173  12.807  1.00  0.00     0.004 C 
HETATM    6  C   UNL     1     -45.109 -52.556  12.484  1.00  0.00     0.046 C 
HETATM    7  C   UNL     1     -45.237 -54.627  13.822  1.00  0.00     0.091 C 
HETATM    8  N   UNL     1     -45.819 -55.622  13.946  1.00  0.00    -0.195 NA
ENDROOT
BRANCH   1   9
HETATM    9  N   UNL     1     -43.069 -53.799  13.334  1.00  0.00    -0.338 N 
HETATM   10  C   UNL     1     -42.084 -53.006  12.791  1.00  0.00     0.238 C 
HETATM   11  O   UNL     1     -42.285 -51.850  12.432  1.00  0.00    -0.272 OA
HETATM   12  H   UNL     1     -42.743 -54.657  13.776  1.00  0.00     0.164 HD
BRANCH  10  13
HETATM   13  C   UNL     1     -40.671 -53.591  12.876  1.00  0.00     0.255 C 
BRANCH  13  14
HETATM   14  N   UNL     1     -39.858 -53.031  13.954  1.00  0.00    -0.248 N 
HETATM   15  N   UNL     1     -40.072 -53.514  15.225  1.00  0.00    -0.305 N 
HETATM   16  C   UNL     1     -39.486 -52.892  16.195  1.00  0.00     0.133 A 
ATOM     17  HN  UNL     1     -40.665 -54.326  15.393  1.00  0.00     0.186 HD
HETATM   18  C   UNL     1     -38.598 -51.727  16.059  1.00  0.00     0.078 A 
HETATM   19 CL   UNL     1     -37.937 -51.072  17.500  1.00  0.00    -0.081 Cl
HETATM   20  C   UNL     1     -38.379 -51.278  14.823  1.00  0.00     0.126 A 
HETATM   21  C   UNL     1     -39.045 -51.929  13.664  1.00  0.00     0.285 A 
HETATM   22 CL   UNL     1     -37.363 -49.919  14.485  1.00  0.00    -0.076 Cl
HETATM   23  O   UNL     1     -38.894 -51.503  12.520  1.00  0.00    -0.265 OA
ENDBRANCH  13  14
ENDBRANCH  10  13
ENDBRANCH   1   9
TORSDOF 3
ENDMDL
MODEL 9
REMARK VINA RESULT:      -5.8      2.624      3.507
REMARK  3 active torsions:
REMARK  status: ('A' for Active; 'I' for Inactive)
REMARK    1  A    between atoms: N_6  and  C_7 
REMARK    2  A    between atoms: C_7  and  C_8 
REMARK       I    between atoms: C_8  and  N_10 
REMARK    3  A    between atoms: N_10  and  C_11 
ROOT
HETATM    1  C   UNL     1     -44.184 -52.708  13.621  1.00  0.00     0.122 C 
HETATM    2  C   UNL     1     -45.547 -52.075  13.994  1.00  0.00     0.046 C 
HETATM    3  C   UNL     1     -46.393 -52.953  14.924  1.00  0.00     0.004 C 
HETATM    4  C   UNL     1     -46.545 -54.391  14.430  1.00  0.00     0.000 C 
HETATM    5  C   UNL     1     -45.237 -55.018  13.946  1.00  0.00     0.004 C 
HETATM    6  C   UNL     1     -44.469 -54.094  12.990  1.00  0.00     0.046 C 
HETATM    7  C   UNL     1     -43.356 -52.906  14.848  1.00  0.00     0.091 C 
HETATM    8  N   UNL     1     -42.678 -53.056  15.775  1.00  0.00    -0.195 NA
ENDROOT
BRANCH   1   9
HETATM    9  N   UNL     1     -43.407 -51.804  12.749  1.00  0.00    -0.338 N 
HETATM   10  C   UNL     1     -43.053 -50.509  13.050  1.00  0.00     0.238 C 
HETATM   11  O   UNL     1     -43.412 -49.945  14.079  1.00  0.00    -0.272 OA
HETATM   12  H   UNL     1     -42.892 -52.227  11.979  1.00  0.00     0.164 HD
BRANCH  10  13
HETATM   13  C   UNL     1     -41.998 -49.900  12.122  1.00  0.00     0.255 C 
BRANCH  13  14
HETATM   14  N   UNL     1     -42.389 -48.620  11.534  1.00  0.00    -0.248 N 
HETATM   15  N   UNL     1     -43.694 -48.490  11.113  1.00  0.00    -0.305 N 
HETATM   16  C   UNL     1     -43.987 -47.432  10.431  1.00  0.00     0.133 A 
ATOM     17  HN  UNL     1     -44.396 -49.197  11.329  1.00  0.00     0.186 HD
HETATM   18  C   UNL     1     -43.057 -46.347  10.082  1.00  0.00     0.078 A 
HETATM   19 CL   UNL     1     -43.683 -45.040   9.165  1.00  0.00    -0.081 Cl
HETATM   20  C   UNL     1     -41.801 -46.470  10.512  1.00  0.00     0.126 A 
HETATM   21  C   UNL     1     -41.388 -47.677  11.276  1.00  0.00     0.285 A 
HETATM   22 CL   UNL     1     -40.578 -45.288  10.189  1.00  0.00    -0.076 Cl
HETATM   23  O   UNL     1     -40.224 -47.834  11.641  1.00  0.00    -0.265 OA
ENDBRANCH  13  14
ENDBRANCH  10  13
ENDBRANCH   1   9
TORSDOF 3
ENDMDL
