MODEL 1
REMARK VINA RESULT:      -6.9      0.000      0.000
REMARK  5 active torsions:
REMARK  status: ('A' for Active; 'I' for Inactive)
REMARK    1  A    between atoms: N_5  and  C_6 
REMARK    2  A    between atoms: C_6  and  C_7 
REMARK       I    between atoms: C_7  and  N_9 
REMARK       I    between atoms: N_9  and  C_10 
REMARK       I    between atoms: C_10  and  N_12 
REMARK    3  A    between atoms: N_12  and  C_13 
REMARK    4  A    between atoms: C_20  and  C_21 
REMARK    5  A    between atoms: C_21  and  N_22 
ROOT
HETATM    1  C   UNL     1     -43.552 -47.848   7.838  1.00  0.00     0.070 C 
HETATM    2  C   UNL     1     -42.839 -47.521   9.135  1.00  0.00     0.029 A 
HETATM    3  N   UNL     1     -42.050 -48.430   9.617  1.00  0.00    -0.299 N 
ATOM      4  HN  UNL     1     -41.922 -49.319   9.136  1.00  0.00     0.187 HD
HETATM    5  N   UNL     1     -41.389 -48.163  10.798  1.00  0.00    -0.247 N 
HETATM    6  C   UNL     1     -41.503 -46.962  11.498  1.00  0.00     0.282 A 
HETATM    7  O   UNL     1     -40.901 -46.712  12.538  1.00  0.00    -0.265 OA
HETATM    8  C   UNL     1     -42.405 -45.954  10.900  1.00  0.00     0.103 A 
HETATM    9  C   UNL     1     -43.081 -46.196   9.760  1.00  0.00    -0.013 A 
HETATM   10  C   UNL     1     -44.043 -45.252   9.093  1.00  0.00     0.052 C 
ENDROOT
BRANCH   5  11
HETATM   11  C   UNL     1     -40.413 -49.162  11.242  1.00  0.00     0.255 C 
BRANCH  11  12
HETATM   12  C   UNL     1     -40.989 -50.430  11.866  1.00  0.00     0.245 C 
HETATM   13  O   UNL     1     -42.187 -50.512  12.149  1.00  0.00    -0.271 OA
HETATM   14  N   UNL     1     -40.052 -51.354  12.297  1.00  0.00    -0.278 N 
HETATM   15  C   UNL     1     -40.261 -52.571  12.902  1.00  0.00     0.323 C 
HETATM   16  H   UNL     1     -39.082 -51.153  12.076  1.00  0.00     0.173 HD
HETATM   17  O   UNL     1     -39.311 -53.305  13.164  1.00  0.00    -0.247 OA
HETATM   18  N   UNL     1     -41.564 -52.891  13.145  1.00  0.00    -0.338 N 
HETATM   19  H   UNL     1     -42.241 -52.140  13.019  1.00  0.00     0.164 HD
BRANCH  18  20
HETATM   20  C   UNL     1     -41.994 -54.119  13.772  1.00  0.00     0.086 C 
HETATM   21  C   UNL     1     -43.499 -54.353  13.616  1.00  0.00     0.025 C 
HETATM   22  C   UNL     1     -43.931 -55.147  14.850  1.00  0.00     0.002 C 
HETATM   23  C   UNL     1     -42.686 -55.287  15.720  1.00  0.00     0.002 C 
HETATM   24  C   UNL     1     -41.791 -54.135  15.285  1.00  0.00     0.025 C 
ENDBRANCH  18  20
ENDBRANCH  11  12
ENDBRANCH   5  11
BRANCH   8  25
HETATM   25  C   UNL     1     -42.621 -44.619  11.591  1.00  0.00    -0.031 C 
BRANCH  25  26
HETATM   26  N   UNL     1     -42.799 -43.509  12.165  1.00  0.00    -0.365 N 
ATOM     27  HN2 UNL     1     -42.667 -44.396  11.678  1.00  0.00     0.165 HD
ATOM     28  HN1 UNL     1     -42.943 -42.612  12.630  1.00  0.00     0.165 HD
ENDBRANCH  25  26
ENDBRANCH   8  25
TORSDOF 5
ENDMDL
MODEL 2
REMARK VINA RESULT:      -6.7      2.928      3.909
REMARK  5 active torsions:
REMARK  status: ('A' for Active; 'I' for Inactive)
REMARK    1  A    between atoms: N_5  and  C_6 
REMARK    2  A    between atoms: C_6  and  C_7 
REMARK       I    between atoms: C_7  and  N_9 
REMARK       I    between atoms: N_9  and  C_10 
REMARK       I    between atoms: C_10  and  N_12 
REMARK    3  A    between atoms: N_12  and  C_13 
REMARK    4  A    between atoms: C_20  and  C_21 
REMARK    5  A    between atoms: C_21  and  N_22 
ROOT
HETATM    1  C   UNL     1     -38.641 -46.112  13.981  1.00  0.00     0.070 C 
HETATM    2  C   UNL     1     -39.575 -45.856  12.815  1.00  0.00     0.029 A 
HETATM    3  N   UNL     1     -40.023 -46.894  12.181  1.00  0.00    -0.299 N 
ATOM      4  HN  UNL     1     -39.754 -47.836  12.466  1.00  0.00     0.187 HD
HETATM    5  N   UNL     1     -40.872 -46.694  11.114  1.00  0.00    -0.247 N 
HETATM    6  C   UNL     1     -41.296 -45.437  10.683  1.00  0.00     0.282 A 
HETATM    7  O   UNL     1     -42.068 -45.254   9.746  1.00  0.00    -0.265 OA
HETATM    8  C   UNL     1     -40.765 -44.286  11.445  1.00  0.00     0.103 A 
HETATM    9  C   UNL     1     -39.917 -44.451  12.478  1.00  0.00    -0.013 A 
HETATM   10  C   UNL     1     -39.300 -43.346  13.292  1.00  0.00     0.052 C 
ENDROOT
BRANCH   5  11
HETATM   11  C   UNL     1     -41.455 -47.894  10.507  1.00  0.00     0.255 C 
BRANCH  11  12
HETATM   12  C   UNL     1     -42.419 -48.688  11.384  1.00  0.00     0.245 C 
HETATM   13  O   UNL     1     -43.386 -48.144  11.921  1.00  0.00    -0.271 OA
HETATM   14  N   UNL     1     -41.999 -49.966  11.714  1.00  0.00    -0.278 N 
HETATM   15  C   UNL     1     -42.636 -50.907  12.490  1.00  0.00     0.323 C 
HETATM   16  H   UNL     1     -41.145 -50.292  11.272  1.00  0.00     0.173 HD
HETATM   17  O   UNL     1     -42.152 -52.026  12.631  1.00  0.00    -0.247 OA
HETATM   18  N   UNL     1     -43.821 -50.511  13.038  1.00  0.00    -0.338 N 
HETATM   19  H   UNL     1     -44.037 -49.518  12.970  1.00  0.00     0.164 HD
BRANCH  18  20
HETATM   20  C   UNL     1     -44.642 -51.346  13.883  1.00  0.00     0.086 C 
HETATM   21  C   UNL     1     -46.091 -51.416  13.395  1.00  0.00     0.025 C 
HETATM   22  C   UNL     1     -46.946 -51.627  14.647  1.00  0.00     0.002 C 
HETATM   23  C   UNL     1     -45.981 -51.600  15.827  1.00  0.00     0.002 C 
HETATM   24  C   UNL     1     -44.775 -50.825  15.311  1.00  0.00     0.025 C 
ENDBRANCH  18  20
ENDBRANCH  11  12
ENDBRANCH   5  11
BRANCH   8  25
HETATM   25  C   UNL     1     -41.144 -42.869  11.048  1.00  0.00    -0.031 C 
BRANCH  25  26
HETATM   26  N   UNL     1     -41.459 -41.692  10.719  1.00  0.00    -0.365 N 
ATOM     27  HN2 UNL     1     -41.187 -42.633  11.005  1.00  0.00     0.165 HD
ATOM     28  HN1 UNL     1     -41.713 -40.741  10.452  1.00  0.00     0.165 HD
ENDBRANCH  25  26
ENDBRANCH   8  25
TORSDOF 5
ENDMDL
MODEL 3
REMARK VINA RESULT:      -6.6      2.614      7.846
REMARK  5 active torsions:
REMARK  status: ('A' for Active; 'I' for Inactive)
REMARK    1  A    between atoms: N_5  and  C_6 
REMARK    2  A    between atoms: C_6  and  C_7 
REMARK       I    between atoms: C_7  and  N_9 
REMARK       I    between atoms: N_9  and  C_10 
REMARK       I    between atoms: C_10  and  N_12 
REMARK    3  A    between atoms: N_12  and  C_13 
REMARK    4  A    between atoms: C_20  and  C_21 
REMARK    5  A    between atoms: C_21  and  N_22 
ROOT
HETATM    1  C   UNL     1     -45.772 -52.758  12.527  1.00  0.00     0.070 C 
HETATM    2  C   UNL     1     -44.371 -53.201  12.898  1.00  0.00     0.029 A 
HETATM    3  N   UNL     1     -43.402 -52.775  12.150  1.00  0.00    -0.299 N 
ATOM      4  HN  UNL     1     -43.586 -52.168  11.351  1.00  0.00     0.187 HD
HETATM    5  N   UNL     1     -42.116 -53.163  12.460  1.00  0.00    -0.247 N 
HETATM    6  C   UNL     1     -41.790 -53.975  13.547  1.00  0.00     0.282 A 
HETATM    7  O   UNL     1     -40.645 -54.307  13.840  1.00  0.00    -0.265 OA
HETATM    8  C   UNL     1     -42.929 -54.425  14.376  1.00  0.00     0.103 A 
HETATM    9  C   UNL     1     -44.198 -54.079  14.083  1.00  0.00    -0.013 A 
HETATM   10  C   UNL     1     -45.422 -54.511  14.843  1.00  0.00     0.052 C 
ENDROOT
BRANCH   5  11
HETATM   11  C   UNL     1     -41.041 -52.560  11.669  1.00  0.00     0.255 C 
BRANCH  11  12
HETATM   12  C   UNL     1     -40.840 -51.057  11.846  1.00  0.00     0.245 C 
HETATM   13  O   UNL     1     -41.804 -50.291  11.918  1.00  0.00    -0.271 OA
HETATM   14  N   UNL     1     -39.539 -50.612  11.682  1.00  0.00    -0.278 N 
HETATM   15  C   UNL     1     -39.053 -49.328  11.767  1.00  0.00     0.323 C 
HETATM   16  H   UNL     1     -38.828 -51.325  11.555  1.00  0.00     0.173 HD
HETATM   17  O   UNL     1     -37.849 -49.112  11.658  1.00  0.00    -0.247 OA
HETATM   18  N   UNL     1     -39.985 -48.361  12.007  1.00  0.00    -0.338 N 
HETATM   19  H   UNL     1     -40.959 -48.649  11.928  1.00  0.00     0.164 HD
BRANCH  18  20
HETATM   20  C   UNL     1     -39.681 -46.955  12.130  1.00  0.00     0.086 C 
HETATM   21  C   UNL     1     -40.528 -46.271  13.206  1.00  0.00     0.025 C 
HETATM   22  C   UNL     1     -40.693 -44.820  12.750  1.00  0.00     0.002 C 
HETATM   23  C   UNL     1     -40.004 -44.721  11.394  1.00  0.00     0.002 C 
HETATM   24  C   UNL     1     -39.994 -46.151  10.871  1.00  0.00     0.025 C 
ENDBRANCH  18  20
ENDBRANCH  11  12
ENDBRANCH   5  11
BRANCH   8  25
HETATM   25  C   UNL     1     -42.691 -55.331  15.572  1.00  0.00    -0.031 C 
BRANCH  25  26
HETATM   26  N   UNL     1     -42.493 -56.084  16.565  1.00  0.00    -0.365 N 
ATOM     27  HN2 UNL     1     -42.681 -55.476  15.767  1.00  0.00     0.165 HD
ATOM     28  HN1 UNL     1     -42.331 -56.692  17.368  1.00  0.00     0.165 HD
ENDBRANCH  25  26
ENDBRANCH   8  25
TORSDOF 5
ENDMDL
MODEL 4
REMARK VINA RESULT:      -6.4      2.290      7.933
REMARK  5 active torsions:
REMARK  status: ('A' for Active; 'I' for Inactive)
REMARK    1  A    between atoms: N_5  and  C_6 
REMARK    2  A    between atoms: C_6  and  C_7 
REMARK       I    between atoms: C_7  and  N_9 
REMARK       I    between atoms: N_9  and  C_10 
REMARK       I    between atoms: C_10  and  N_12 
REMARK    3  A    between atoms: N_12  and  C_13 
REMARK    4  A    between atoms: C_20  and  C_21 
REMARK    5  A    between atoms: C_21  and  N_22 
ROOT
HETATM    1  C   UNL     1     -45.774 -52.601  12.569  1.00  0.00     0.070 C 
HETATM    2  C   UNL     1     -44.360 -53.024  12.914  1.00  0.00     0.029 A 
HETATM    3  N   UNL     1     -43.404 -52.512  12.205  1.00  0.00    -0.299 N 
ATOM      4  HN  UNL     1     -43.606 -51.853  11.453  1.00  0.00     0.187 HD
HETATM    5  N   UNL     1     -42.106 -52.879  12.493  1.00  0.00    -0.247 N 
HETATM    6  C   UNL     1     -41.757 -53.759  13.517  1.00  0.00     0.282 A 
HETATM    7  O   UNL     1     -40.602 -54.074  13.791  1.00  0.00    -0.265 OA
HETATM    8  C   UNL     1     -42.883 -54.307  14.304  1.00  0.00     0.103 A 
HETATM    9  C   UNL     1     -44.161 -53.983  14.031  1.00  0.00    -0.013 A 
HETATM   10  C   UNL     1     -45.373 -54.510  14.749  1.00  0.00     0.052 C 
ENDROOT
BRANCH   5  11
HETATM   11  C   UNL     1     -41.049 -52.183  11.755  1.00  0.00     0.255 C 
BRANCH  11  12
HETATM   12  C   UNL     1     -40.932 -50.682  12.009  1.00  0.00     0.245 C 
HETATM   13  O   UNL     1     -40.545 -50.250  13.097  1.00  0.00    -0.271 OA
HETATM   14  N   UNL     1     -41.503 -49.873  11.041  1.00  0.00    -0.278 N 
HETATM   15  C   UNL     1     -41.568 -48.500  10.997  1.00  0.00     0.323 C 
HETATM   16  H   UNL     1     -41.861 -50.339  10.213  1.00  0.00     0.173 HD
HETATM   17  O   UNL     1     -42.058 -47.932  10.025  1.00  0.00    -0.247 OA
HETATM   18  N   UNL     1     -41.030 -47.852  12.070  1.00  0.00    -0.338 N 
HETATM   19  H   UNL     1     -40.792 -48.433  12.872  1.00  0.00     0.164 HD
BRANCH  18  20
HETATM   20  C   UNL     1     -40.999 -46.416  12.217  1.00  0.00     0.086 C 
HETATM   21  C   UNL     1     -39.885 -45.772  11.386  1.00  0.00     0.025 C 
HETATM   22  C   UNL     1     -39.468 -44.512  12.147  1.00  0.00     0.002 C 
HETATM   23  C   UNL     1     -40.294 -44.499  13.428  1.00  0.00     0.002 C 
HETATM   24  C   UNL     1     -40.688 -45.954  13.639  1.00  0.00     0.025 C 
ENDBRANCH  18  20
ENDBRANCH  11  12
ENDBRANCH   5  11
BRANCH   8  25
HETATM   25  C   UNL     1     -42.618 -55.292  15.430  1.00  0.00    -0.031 C 
BRANCH  25  26
HETATM   26  N   UNL     1     -42.399 -56.110  16.365  1.00  0.00    -0.365 N 
ATOM     27  HN2 UNL     1     -42.549 -55.442  15.609  1.00  0.00     0.165 HD
ATOM     28  HN1 UNL     1     -42.223 -56.772  17.121  1.00  0.00     0.165 HD
ENDBRANCH  25  26
ENDBRANCH   8  25
TORSDOF 5
ENDMDL
MODEL 5
REMARK VINA RESULT:      -6.2      4.862      7.214
REMARK  5 active torsions:
REMARK  status: ('A' for Active; 'I' for Inactive)
REMARK    1  A    between atoms: N_5  and  C_6 
REMARK    2  A    between atoms: C_6  and  C_7 
REMARK       I    between atoms: C_7  and  N_9 
REMARK       I    between atoms: N_9  and  C_10 
REMARK       I    between atoms: C_10  and  N_12 
REMARK    3  A    between atoms: N_12  and  C_13 
REMARK    4  A    between atoms: C_20  and  C_21 
REMARK    5  A    between atoms: C_21  and  N_22 
ROOT
HETATM    1  C   UNL     1     -45.306 -52.037  17.310  1.00  0.00     0.070 C 
HETATM    2  C   UNL     1     -44.837 -52.315  15.896  1.00  0.00     0.029 A 
HETATM    3  N   UNL     1     -43.618 -52.729  15.752  1.00  0.00    -0.299 N 
ATOM      4  HN  UNL     1     -43.011 -52.861  16.561  1.00  0.00     0.187 HD
HETATM    5  N   UNL     1     -43.161 -52.989  14.477  1.00  0.00    -0.247 N 
HETATM    6  C   UNL     1     -43.941 -52.849  13.328  1.00  0.00     0.282 A 
HETATM    7  O   UNL     1     -43.545 -53.098  12.193  1.00  0.00    -0.265 OA
HETATM    8  C   UNL     1     -45.327 -52.384  13.547  1.00  0.00     0.103 A 
HETATM    9  C   UNL     1     -45.793 -52.102  14.780  1.00  0.00    -0.013 A 
HETATM   10  C   UNL     1     -47.172 -51.595  15.101  1.00  0.00     0.052 C 
ENDROOT
BRANCH   5  11
HETATM   11  C   UNL     1     -41.823 -53.575  14.367  1.00  0.00     0.255 C 
BRANCH  11  12
HETATM   12  C   UNL     1     -40.653 -52.624  14.606  1.00  0.00     0.245 C 
HETATM   13  O   UNL     1     -40.485 -52.085  15.703  1.00  0.00    -0.271 OA
HETATM   14  N   UNL     1     -39.963 -52.239  13.469  1.00  0.00    -0.278 N 
HETATM   15  C   UNL     1     -38.884 -51.393  13.363  1.00  0.00     0.323 C 
HETATM   16  H   UNL     1     -40.231 -52.692  12.600  1.00  0.00     0.173 HD
HETATM   17  O   UNL     1     -38.345 -51.207  12.275  1.00  0.00    -0.247 OA
HETATM   18  N   UNL     1     -38.464 -50.828  14.531  1.00  0.00    -0.338 N 
HETATM   19  H   UNL     1     -39.082 -50.943  15.332  1.00  0.00     0.164 HD
BRANCH  18  20
HETATM   20  C   UNL     1     -37.352 -49.912  14.634  1.00  0.00     0.086 C 
HETATM   21  C   UNL     1     -36.653 -50.001  15.993  1.00  0.00     0.025 C 
HETATM   22  C   UNL     1     -36.087 -48.606  16.267  1.00  0.00     0.002 C 
HETATM   23  C   UNL     1     -36.535 -47.732  15.100  1.00  0.00     0.002 C 
HETATM   24  C   UNL     1     -37.761 -48.444  14.544  1.00  0.00     0.025 C 
ENDBRANCH  18  20
ENDBRANCH  11  12
ENDBRANCH   5  11
BRANCH   8  25
HETATM   25  C   UNL     1     -46.258 -52.175  12.365  1.00  0.00    -0.031 C 
BRANCH  25  26
HETATM   26  N   UNL     1     -47.031 -52.003  11.382  1.00  0.00    -0.365 N 
ATOM     27  HN2 UNL     1     -46.409 -52.170  12.174  1.00  0.00     0.165 HD
ATOM     28  HN1 UNL     1     -47.656 -51.862  10.588  1.00  0.00     0.165 HD
ENDBRANCH  25  26
ENDBRANCH   8  25
TORSDOF 5
ENDMDL
MODEL 6
REMARK VINA RESULT:      -6.1      2.163      8.310
REMARK  5 active torsions:
REMARK  status: ('A' for Active; 'I' for Inactive)
REMARK    1  A    between atoms: N_5  and  C_6 
REMARK    2  A    between atoms: C_6  and  C_7 
REMARK       I    between atoms: C_7  and  N_9 
REMARK       I    between atoms: N_9  and  C_10 
REMARK       I    between atoms: C_10  and  N_12 
REMARK    3  A    between atoms: N_12  and  C_13 
REMARK    4  A    between atoms: C_20  and  C_21 
REMARK    5  A    between atoms: C_21  and  N_22 
ROOT
HETATM    1  C   UNL     1     -40.290 -54.252  16.049  1.00  0.00     0.070 C 
HETATM    2  C   UNL     1     -41.271 -53.947  14.935  1.00  0.00     0.029 A 
HETATM    3  N   UNL     1     -40.844 -53.204  13.963  1.00  0.00    -0.299 N 
ATOM      4  HN  UNL     1     -39.888 -52.849  13.957  1.00  0.00     0.187 HD
HETATM    5  N   UNL     1     -41.714 -52.906  12.935  1.00  0.00    -0.247 N 
HETATM    6  C   UNL     1     -43.027 -53.373  12.869  1.00  0.00     0.282 A 
HETATM    7  O   UNL     1     -43.799 -53.127  11.947  1.00  0.00    -0.265 OA
HETATM    8  C   UNL     1     -43.463 -54.225  13.997  1.00  0.00     0.103 A 
HETATM    9  C   UNL     1     -42.640 -54.514  15.024  1.00  0.00    -0.013 A 
HETATM   10  C   UNL     1     -42.999 -55.341  16.228  1.00  0.00     0.052 C 
ENDROOT
BRANCH   5  11
HETATM   11  C   UNL     1     -41.156 -52.172  11.797  1.00  0.00     0.255 C 
BRANCH  11  12
HETATM   12  C   UNL     1     -40.945 -50.674  12.004  1.00  0.00     0.245 C 
HETATM   13  O   UNL     1     -40.500 -50.236  13.067  1.00  0.00    -0.271 OA
HETATM   14  N   UNL     1     -41.499 -49.859  11.031  1.00  0.00    -0.278 N 
HETATM   15  C   UNL     1     -41.486 -48.486  10.950  1.00  0.00     0.323 C 
HETATM   16  H   UNL     1     -41.909 -50.326  10.228  1.00  0.00     0.173 HD
HETATM   17  O   UNL     1     -41.974 -47.917   9.977  1.00  0.00    -0.247 OA
HETATM   18  N   UNL     1     -40.878 -47.842  11.987  1.00  0.00    -0.338 N 
HETATM   19  H   UNL     1     -40.649 -48.415  12.798  1.00  0.00     0.164 HD
BRANCH  18  20
HETATM   20  C   UNL     1     -40.760 -46.407  12.092  1.00  0.00     0.086 C 
HETATM   21  C   UNL     1     -42.122 -45.708  12.043  1.00  0.00     0.025 C 
HETATM   22  C   UNL     1     -41.867 -44.336  11.417  1.00  0.00     0.002 C 
HETATM   23  C   UNL     1     -40.386 -44.304  11.055  1.00  0.00     0.002 C 
HETATM   24  C   UNL     1     -39.996 -45.771  10.934  1.00  0.00     0.025 C 
ENDBRANCH  18  20
ENDBRANCH  11  12
ENDBRANCH   5  11
BRANCH   8  25
HETATM   25  C   UNL     1     -44.880 -54.769  14.038  1.00  0.00    -0.031 C 
BRANCH  25  26
HETATM   26  N   UNL     1     -46.058 -55.222  14.072  1.00  0.00    -0.365 N 
ATOM     27  HN2 UNL     1     -45.115 -54.832  14.033  1.00  0.00     0.165 HD
ATOM     28  HN1 UNL     1     -47.009 -55.588  14.099  1.00  0.00     0.165 HD
ENDBRANCH  25  26
ENDBRANCH   8  25
TORSDOF 5
ENDMDL
MODEL 7
REMARK VINA RESULT:      -6.1      2.465      3.393
REMARK  5 active torsions:
REMARK  status: ('A' for Active; 'I' for Inactive)
REMARK    1  A    between atoms: N_5  and  C_6 
REMARK    2  A    between atoms: C_6  and  C_7 
REMARK       I    between atoms: C_7  and  N_9 
REMARK       I    between atoms: N_9  and  C_10 
REMARK       I    between atoms: C_10  and  N_12 
REMARK    3  A    between atoms: N_12  and  C_13 
REMARK    4  A    between atoms: C_20  and  C_21 
REMARK    5  A    between atoms: C_21  and  N_22 
ROOT
HETATM    1  C   UNL     1     -40.517 -46.944  15.799  1.00  0.00     0.070 C 
HETATM    2  C   UNL     1     -40.367 -46.697  14.311  1.00  0.00     0.029 A 
HETATM    3  N   UNL     1     -40.186 -47.736  13.558  1.00  0.00    -0.299 N 
ATOM      4  HN  UNL     1     -40.149 -48.673  13.960  1.00  0.00     0.187 HD
HETATM    5  N   UNL     1     -40.043 -47.544  12.200  1.00  0.00    -0.247 N 
HETATM    6  C   UNL     1     -40.101 -46.295  11.582  1.00  0.00     0.282 A 
HETATM    7  O   UNL     1     -39.995 -46.121  10.371  1.00  0.00    -0.265 OA
HETATM    8  C   UNL     1     -40.321 -45.143  12.482  1.00  0.00     0.103 A 
HETATM    9  C   UNL     1     -40.441 -45.300  13.815  1.00  0.00    -0.013 A 
HETATM   10  C   UNL     1     -40.634 -44.192  14.814  1.00  0.00     0.052 C 
ENDROOT
BRANCH   5  11
HETATM   11  C   UNL     1     -39.967 -48.751  11.373  1.00  0.00     0.255 C 
BRANCH  11  12
HETATM   12  C   UNL     1     -41.004 -49.832  11.668  1.00  0.00     0.245 C 
HETATM   13  O   UNL     1     -42.146 -49.537  12.027  1.00  0.00    -0.271 OA
HETATM   14  N   UNL     1     -40.508 -51.123  11.734  1.00  0.00    -0.278 N 
HETATM   15  C   UNL     1     -41.186 -52.292  11.991  1.00  0.00     0.323 C 
HETATM   16  H   UNL     1     -39.530 -51.247  11.489  1.00  0.00     0.173 HD
HETATM   17  O   UNL     1     -40.601 -53.371  11.947  1.00  0.00    -0.247 OA
HETATM   18  N   UNL     1     -42.517 -52.154  12.254  1.00  0.00    -0.338 N 
HETATM   19  H   UNL     1     -42.847 -51.203  12.407  1.00  0.00     0.164 HD
BRANCH  18  20
HETATM   20  C   UNL     1     -43.403 -53.255  12.550  1.00  0.00     0.086 C 
HETATM   21  C   UNL     1     -44.876 -52.837  12.522  1.00  0.00     0.025 C 
HETATM   22  C   UNL     1     -45.590 -53.751  13.519  1.00  0.00     0.002 C 
HETATM   23  C   UNL     1     -44.507 -54.620  14.149  1.00  0.00     0.002 C 
HETATM   24  C   UNL     1     -43.224 -53.822  13.956  1.00  0.00     0.025 C 
ENDBRANCH  18  20
ENDBRANCH  11  12
ENDBRANCH   5  11
BRANCH   8  25
HETATM   25  C   UNL     1     -40.379 -43.734  11.918  1.00  0.00    -0.031 C 
BRANCH  25  26
HETATM   26  N   UNL     1     -40.428 -42.564  11.449  1.00  0.00    -0.365 N 
ATOM     27  HN2 UNL     1     -40.391 -43.520  11.802  1.00  0.00     0.165 HD
ATOM     28  HN1 UNL     1     -40.467 -41.617  11.070  1.00  0.00     0.165 HD
ENDBRANCH  25  26
ENDBRANCH   8  25
TORSDOF 5
ENDMDL
MODEL 8
REMARK VINA RESULT:      -6.0      2.621      8.184
REMARK  5 active torsions:
REMARK  status: ('A' for Active; 'I' for Inactive)
REMARK    1  A    between atoms: N_5  and  C_6 
REMARK    2  A    between atoms: C_6  and  C_7 
REMARK       I    between atoms: C_7  and  N_9 
REMARK       I    between atoms: N_9  and  C_10 
REMARK       I    between atoms: C_10  and  N_12 
REMARK    3  A    between atoms: N_12  and  C_13 
REMARK    4  A    between atoms: C_20  and  C_21 
REMARK    5  A    between atoms: C_21  and  N_22 
ROOT
HETATM    1  C   UNL     1     -43.923 -50.110  16.573  1.00  0.00     0.070 C 
HETATM    2  C   UNL     1     -43.777 -50.998  15.355  1.00  0.00     0.029 A 
HETATM    3  N   UNL     1     -42.895 -50.646  14.472  1.00  0.00    -0.299 N 
ATOM      4  HN  UNL     1     -42.329 -49.808  14.605  1.00  0.00     0.187 HD
HETATM    5  N   UNL     1     -42.740 -51.433  13.351  1.00  0.00    -0.247 N 
HETATM    6  C   UNL     1     -43.465 -52.601  13.115  1.00  0.00     0.282 A 
HETATM    7  O   UNL     1     -43.316 -53.316  12.128  1.00  0.00    -0.265 OA
HETATM    8  C   UNL     1     -44.450 -52.966  14.156  1.00  0.00     0.103 A 
HETATM    9  C   UNL     1     -44.637 -52.203  15.251  1.00  0.00    -0.013 A 
HETATM   10  C   UNL     1     -45.633 -52.472  16.346  1.00  0.00     0.052 C 
ENDROOT
BRANCH   5  11
HETATM   11  C   UNL     1     -41.648 -51.072  12.443  1.00  0.00     0.255 C 
BRANCH  11  12
HETATM   12  C   UNL     1     -41.516 -49.588  12.111  1.00  0.00     0.245 C 
HETATM   13  O   UNL     1     -41.059 -48.790  12.934  1.00  0.00    -0.271 OA
HETATM   14  N   UNL     1     -42.152 -49.184  10.949  1.00  0.00    -0.278 N 
HETATM   15  C   UNL     1     -42.221 -47.924  10.400  1.00  0.00     0.323 C 
HETATM   16  H   UNL     1     -42.562 -49.916  10.378  1.00  0.00     0.173 HD
HETATM   17  O   UNL     1     -42.775 -47.748   9.318  1.00  0.00    -0.247 OA
HETATM   18  N   UNL     1     -41.614 -46.936  11.118  1.00  0.00    -0.338 N 
HETATM   19  H   UNL     1     -41.323 -47.183  12.063  1.00  0.00     0.164 HD
BRANCH  18  20
HETATM   20  C   UNL     1     -41.576 -45.550  10.717  1.00  0.00     0.086 C 
HETATM   21  C   UNL     1     -40.151 -44.989  10.706  1.00  0.00     0.025 C 
HETATM   22  C   UNL     1     -40.283 -43.499  11.023  1.00  0.00     0.002 C 
HETATM   23  C   UNL     1     -41.766 -43.251  11.282  1.00  0.00     0.002 C 
HETATM   24  C   UNL     1     -42.313 -44.617  11.674  1.00  0.00     0.025 C 
ENDBRANCH  18  20
ENDBRANCH  11  12
ENDBRANCH   5  11
BRANCH   8  25
HETATM   25  C   UNL     1     -45.310 -54.207  13.991  1.00  0.00    -0.031 C 
BRANCH  25  26
HETATM   26  N   UNL     1     -46.024 -55.238  13.853  1.00  0.00    -0.365 N 
ATOM     27  HN2 UNL     1     -45.436 -54.415  13.988  1.00  0.00     0.165 HD
ATOM     28  HN1 UNL     1     -46.602 -56.071  13.740  1.00  0.00     0.165 HD
ENDBRANCH  25  26
ENDBRANCH   8  25
TORSDOF 5
ENDMDL
MODEL 9
REMARK VINA RESULT:      -6.0      2.534      8.560
REMARK  5 active torsions:
REMARK  status: ('A' for Active; 'I' for Inactive)
REMARK    1  A    between atoms: N_5  and  C_6 
REMARK    2  A    between atoms: C_6  and  C_7 
REMARK       I    between atoms: C_7  and  N_9 
REMARK       I    between atoms: N_9  and  C_10 
REMARK       I    between atoms: C_10  and  N_12 
REMARK    3  A    between atoms: N_12  and  C_13 
REMARK    4  A    between atoms: C_20  and  C_21 
REMARK    5  A    between atoms: C_21  and  N_22 
ROOT
HETATM    1  C   UNL     1     -37.533 -50.120  11.438  1.00  0.00     0.070 C 
HETATM    2  C   UNL     1     -39.009 -50.089  11.778  1.00  0.00     0.029 A 
HETATM    3  N   UNL     1     -39.737 -49.214  11.158  1.00  0.00    -0.299 N 
ATOM      4  HN  UNL     1     -39.324 -48.581  10.474  1.00  0.00     0.187 HD
HETATM    5  N   UNL     1     -41.084 -49.159  11.448  1.00  0.00    -0.247 N 
HETATM    6  C   UNL     1     -41.718 -50.005  12.359  1.00  0.00     0.282 A 
HETATM    7  O   UNL     1     -42.920 -49.974  12.605  1.00  0.00    -0.265 OA
HETATM    8  C   UNL     1     -40.846 -50.993  13.030  1.00  0.00     0.103 A 
HETATM    9  C   UNL     1     -39.524 -51.054  12.783  1.00  0.00    -0.013 A 
HETATM   10  C   UNL     1     -38.552 -51.998  13.436  1.00  0.00     0.052 C 
ENDROOT
BRANCH   5  11
HETATM   11  C   UNL     1     -41.892 -48.245  10.637  1.00  0.00     0.255 C 
BRANCH  11  12
HETATM   12  C   UNL     1     -41.686 -46.756  10.900  1.00  0.00     0.245 C 
HETATM   13  O   UNL     1     -42.489 -46.113  11.581  1.00  0.00    -0.271 OA
HETATM   14  N   UNL     1     -40.697 -46.154  10.141  1.00  0.00    -0.278 N 
HETATM   15  C   UNL     1     -40.291 -44.839  10.143  1.00  0.00     0.323 C 
HETATM   16  H   UNL     1     -40.138 -46.767   9.554  1.00  0.00     0.173 HD
HETATM   17  O   UNL     1     -39.344 -44.480   9.448  1.00  0.00    -0.247 OA
HETATM   18  N   UNL     1     -40.984 -44.012  10.978  1.00  0.00    -0.338 N 
HETATM   19  H   UNL     1     -41.835 -44.397  11.384  1.00  0.00     0.164 HD
BRANCH  18  20
HETATM   20  C   UNL     1     -40.717 -42.601  11.126  1.00  0.00     0.086 C 
HETATM   21  C   UNL     1     -39.937 -42.291  12.406  1.00  0.00     0.025 C 
HETATM   22  C   UNL     1     -40.364 -40.883  12.827  1.00  0.00     0.002 C 
HETATM   23  C   UNL     1     -41.429 -40.447  11.826  1.00  0.00     0.002 C 
HETATM   24  C   UNL     1     -41.978 -41.753  11.266  1.00  0.00     0.025 C 
ENDBRANCH  18  20
ENDBRANCH  11  12
ENDBRANCH   5  11
BRANCH   8  25
HETATM   25  C   UNL     1     -41.428 -51.950  14.057  1.00  0.00    -0.031 C 
BRANCH  25  26
HETATM   26  N   UNL     1     -41.912 -52.745  14.910  1.00  0.00    -0.365 N 
ATOM     27  HN2 UNL     1     -41.510 -52.124  14.206  1.00  0.00     0.165 HD
ATOM     28  HN1 UNL     1     -42.303 -53.386  15.599  1.00  0.00     0.165 HD
ENDBRANCH  25  26
ENDBRANCH   8  25
TORSDOF 5
ENDMDL
