MODEL 1
REMARK VINA RESULT:      -5.7      0.000      0.000
REMARK  6 active torsions:
REMARK  status: ('A' for Active; 'I' for Inactive)
REMARK    1  A    between atoms: C_2  and  C_3 
REMARK    2  A    between atoms: C_3  and  C_4 
REMARK    3  A    between atoms: C_4  and  N_5 
REMARK       I    between atoms: N_5  and  C_6 
REMARK    4  A    between atoms: C_6  and  C_8 
REMARK    5  A    between atoms: C_8  and  C_9 
REMARK    6  A    between atoms: C_12  and  N_15 
ROOT
HETATM    1  C   UNL     1     -40.767 -51.075  11.887  1.00  0.00     0.026 A 
HETATM    2  C   UNL     1     -39.481 -50.904  12.362  1.00  0.00     0.078 A 
HETATM    3  S   UNL     1     -39.047 -49.248  12.295  1.00  0.00    -0.064 SA
HETATM    4  C   UNL     1     -40.560 -48.884  11.574  1.00  0.00     0.155 A 
HETATM    5  N   UNL     1     -41.383 -49.900  11.474  1.00  0.00    -0.339 N 
ATOM      6  HN  UNL     1     -42.344 -49.837  11.138  1.00  0.00     0.168 HD
ENDROOT
BRANCH   1   7
HETATM    7  C   UNL     1     -41.525 -52.357  11.759  1.00  0.00     0.160 C 
BRANCH   7   8
HETATM    8  C   UNL     1     -42.784 -52.404  12.615  1.00  0.00     0.223 C 
HETATM    9  N   UNL     1     -43.785 -53.230  12.162  1.00  0.00    -0.361 N 
HETATM   10  H   UNL     1     -43.640 -53.711  11.270  1.00  0.00     0.162 HD
HETATM   11  O   UNL     1     -42.901 -51.696  13.615  1.00  0.00    -0.273 OA
BRANCH   9  12
HETATM   12  C   UNL     1     -45.070 -53.359  12.808  1.00  0.00     0.122 C 
BRANCH  12  13
HETATM   13  C   UNL     1     -46.046 -52.260  12.391  1.00  0.00     0.019 C 
BRANCH  13  14
HETATM   14  C   UNL     1     -46.523 -51.423  13.580  1.00  0.00    -0.003 C 
HETATM   15  C   UNL     1     -46.785 -52.291  14.799  1.00  0.00     0.005 C 
ENDBRANCH  13  14
ENDBRANCH  12  13
ENDBRANCH   9  12
ENDBRANCH   7   8
ENDBRANCH   1   7
BRANCH   4  16
HETATM   16  N   UNL     1     -40.779 -47.599  11.133  1.00  0.00    -0.278 N 
HETATM   17  C   UNL     1     -40.021 -46.402  11.411  1.00  0.00     0.155 C 
HETATM   18  C   UNL     1     -40.562 -45.376  10.426  1.00  0.00     0.145 C 
HETATM   19  N   UNL     1     -41.775 -45.964   9.942  1.00  0.00    -0.341 N 
HETATM   20  C   UNL     1     -41.839 -47.320  10.257  1.00  0.00     0.324 C 
HETATM   21  H   UNL     1     -42.345 -45.614   9.183  1.00  0.00     0.164 HD
HETATM   22  O   UNL     1     -42.681 -48.058   9.773  1.00  0.00    -0.247 OA
ENDBRANCH   4  16
TORSDOF 6
ENDMDL
MODEL 2
REMARK VINA RESULT:      -5.6      2.265      5.950
REMARK  6 active torsions:
REMARK  status: ('A' for Active; 'I' for Inactive)
REMARK    1  A    between atoms: C_2  and  C_3 
REMARK    2  A    between atoms: C_3  and  C_4 
REMARK    3  A    between atoms: C_4  and  N_5 
REMARK       I    between atoms: N_5  and  C_6 
REMARK    4  A    between atoms: C_6  and  C_8 
REMARK    5  A    between atoms: C_8  and  C_9 
REMARK    6  A    between atoms: C_12  and  N_15 
ROOT
HETATM    1  C   UNL     1     -40.894 -50.902  11.902  1.00  0.00     0.026 A 
HETATM    2  C   UNL     1     -40.120 -51.727  12.694  1.00  0.00     0.078 A 
HETATM    3  S   UNL     1     -41.088 -52.975  13.361  1.00  0.00    -0.064 SA
HETATM    4  C   UNL     1     -42.474 -52.293  12.617  1.00  0.00     0.155 A 
HETATM    5  N   UNL     1     -42.234 -51.264  11.841  1.00  0.00    -0.339 N 
ATOM      6  HN  UNL     1     -42.935 -50.793  11.270  1.00  0.00     0.168 HD
ENDROOT
BRANCH   1   7
HETATM    7  C   UNL     1     -40.449 -49.690  11.149  1.00  0.00     0.160 C 
BRANCH   7   8
HETATM    8  C   UNL     1     -41.510 -48.600  11.076  1.00  0.00     0.223 C 
HETATM    9  N   UNL     1     -41.870 -48.198   9.811  1.00  0.00    -0.361 N 
HETATM   10  H   UNL     1     -41.373 -48.614   9.019  1.00  0.00     0.162 HD
HETATM   11  O   UNL     1     -41.964 -48.083  12.097  1.00  0.00    -0.273 OA
BRANCH   9  12
HETATM   12  C   UNL     1     -42.815 -47.139   9.546  1.00  0.00     0.122 C 
BRANCH  12  13
HETATM   13  C   UNL     1     -43.986 -47.606   8.682  1.00  0.00     0.019 C 
BRANCH  13  14
HETATM   14  C   UNL     1     -45.327 -47.495   9.413  1.00  0.00    -0.003 C 
HETATM   15  C   UNL     1     -46.410 -48.295   8.708  1.00  0.00     0.005 C 
ENDBRANCH  13  14
ENDBRANCH  12  13
ENDBRANCH   9  12
ENDBRANCH   7   8
ENDBRANCH   1   7
BRANCH   4  16
HETATM   16  N   UNL     1     -43.705 -52.836  12.909  1.00  0.00    -0.278 N 
HETATM   17  C   UNL     1     -44.101 -54.225  12.934  1.00  0.00     0.155 C 
HETATM   18  C   UNL     1     -45.468 -54.213  13.600  1.00  0.00     0.145 C 
HETATM   19  N   UNL     1     -45.859 -52.836  13.570  1.00  0.00    -0.341 N 
HETATM   20  C   UNL     1     -44.774 -52.010  13.282  1.00  0.00     0.324 C 
HETATM   21  H   UNL     1     -46.666 -52.436  14.032  1.00  0.00     0.164 HD
HETATM   22  O   UNL     1     -44.833 -50.798  13.403  1.00  0.00    -0.247 OA
ENDBRANCH   4  16
TORSDOF 6
ENDMDL
MODEL 3
REMARK VINA RESULT:      -5.2      2.666      6.203
REMARK  6 active torsions:
REMARK  status: ('A' for Active; 'I' for Inactive)
REMARK    1  A    between atoms: C_2  and  C_3 
REMARK    2  A    between atoms: C_3  and  C_4 
REMARK    3  A    between atoms: C_4  and  N_5 
REMARK       I    between atoms: N_5  and  C_6 
REMARK    4  A    between atoms: C_6  and  C_8 
REMARK    5  A    between atoms: C_8  and  C_9 
REMARK    6  A    between atoms: C_12  and  N_15 
ROOT
HETATM    1  C   UNL     1     -42.132 -49.379  12.366  1.00  0.00     0.026 A 
HETATM    2  C   UNL     1     -42.145 -48.774  13.608  1.00  0.00     0.078 A 
HETATM    3  S   UNL     1     -43.226 -49.600  14.650  1.00  0.00    -0.064 SA
HETATM    4  C   UNL     1     -43.656 -50.651  13.365  1.00  0.00     0.155 A 
HETATM    5  N   UNL     1     -42.977 -50.475  12.257  1.00  0.00    -0.339 N 
ATOM      6  HN  UNL     1     -43.059 -51.063  11.427  1.00  0.00     0.168 HD
ENDROOT
BRANCH   1   7
HETATM    7  C   UNL     1     -41.340 -48.968  11.166  1.00  0.00     0.160 C 
BRANCH   7   8
HETATM    8  C   UNL     1     -41.987 -47.843  10.369  1.00  0.00     0.223 C 
HETATM    9  N   UNL     1     -43.062 -48.202   9.591  1.00  0.00    -0.361 N 
HETATM   10  H   UNL     1     -43.319 -49.192   9.560  1.00  0.00     0.162 HD
HETATM   11  O   UNL     1     -41.527 -46.702  10.391  1.00  0.00    -0.273 OA
BRANCH   9  12
HETATM   12  C   UNL     1     -43.765 -47.286   8.725  1.00  0.00     0.122 C 
BRANCH  12  13
HETATM   13  C   UNL     1     -44.882 -46.537   9.452  1.00  0.00     0.019 C 
BRANCH  13  14
HETATM   14  C   UNL     1     -46.263 -46.841   8.866  1.00  0.00    -0.003 C 
HETATM   15  C   UNL     1     -46.568 -48.329   8.909  1.00  0.00     0.005 C 
ENDBRANCH  13  14
ENDBRANCH  12  13
ENDBRANCH   9  12
ENDBRANCH   7   8
ENDBRANCH   1   7
BRANCH   4  16
HETATM   16  N   UNL     1     -44.677 -51.550  13.572  1.00  0.00    -0.278 N 
HETATM   17  C   UNL     1     -45.864 -51.405  14.381  1.00  0.00     0.155 C 
HETATM   18  C   UNL     1     -46.737 -52.586  13.984  1.00  0.00     0.145 C 
HETATM   19  N   UNL     1     -45.846 -53.455  13.275  1.00  0.00    -0.341 N 
HETATM   20  C   UNL     1     -44.672 -52.793  12.921  1.00  0.00     0.324 C 
HETATM   21  H   UNL     1     -46.108 -54.287  12.763  1.00  0.00     0.164 HD
HETATM   22  O   UNL     1     -43.865 -53.276  12.144  1.00  0.00    -0.247 OA
ENDBRANCH   4  16
TORSDOF 6
ENDMDL
MODEL 4
REMARK VINA RESULT:      -5.2      2.657      6.102
REMARK  6 active torsions:
REMARK  status: ('A' for Active; 'I' for Inactive)
REMARK    1  A    between atoms: C_2  and  C_3 
REMARK    2  A    between atoms: C_3  and  C_4 
REMARK    3  A    between atoms: C_4  and  N_5 
REMARK       I    between atoms: N_5  and  C_6 
REMARK    4  A    between atoms: C_6  and  C_8 
REMARK    5  A    between atoms: C_8  and  C_9 
REMARK    6  A    between atoms: C_12  and  N_15 
ROOT
HETATM    1  C   UNL     1     -41.751 -48.824  11.865  1.00  0.00     0.026 A 
HETATM    2  C   UNL     1     -42.273 -48.353  13.054  1.00  0.00     0.078 A 
HETATM    3  S   UNL     1     -42.825 -49.664  14.011  1.00  0.00    -0.064 SA
HETATM    4  C   UNL     1     -42.404 -50.753  12.754  1.00  0.00     0.155 A 
HETATM    5  N   UNL     1     -41.803 -50.204  11.726  1.00  0.00    -0.339 N 
ATOM      6  HN  UNL     1     -41.423 -50.721  10.933  1.00  0.00     0.168 HD
ENDROOT
BRANCH   1   7
HETATM    7  C   UNL     1     -41.178 -48.017  10.744  1.00  0.00     0.160 C 
BRANCH   7   8
HETATM    8  C   UNL     1     -42.221 -47.204   9.988  1.00  0.00     0.223 C 
HETATM    9  N   UNL     1     -43.002 -47.908   9.103  1.00  0.00    -0.361 N 
HETATM   10  H   UNL     1     -42.801 -48.904   8.977  1.00  0.00     0.162 HD
HETATM   11  O   UNL     1     -42.304 -45.985  10.132  1.00  0.00    -0.273 OA
BRANCH   9  12
HETATM   12  C   UNL     1     -44.002 -47.299   8.258  1.00  0.00     0.122 C 
BRANCH  12  13
HETATM   13  C   UNL     1     -45.054 -48.301   7.784  1.00  0.00     0.019 C 
BRANCH  13  14
HETATM   14  C   UNL     1     -46.281 -48.333   8.700  1.00  0.00    -0.003 C 
HETATM   15  C   UNL     1     -46.720 -46.931   9.087  1.00  0.00     0.005 C 
ENDBRANCH  13  14
ENDBRANCH  12  13
ENDBRANCH   9  12
ENDBRANCH   7   8
ENDBRANCH   1   7
BRANCH   4  16
HETATM   16  N   UNL     1     -42.753 -52.077  12.896  1.00  0.00    -0.278 N 
HETATM   17  C   UNL     1     -44.026 -52.645  13.271  1.00  0.00     0.155 C 
HETATM   18  C   UNL     1     -43.878 -54.130  12.971  1.00  0.00     0.145 C 
HETATM   19  N   UNL     1     -42.469 -54.311  12.795  1.00  0.00    -0.341 N 
HETATM   20  C   UNL     1     -41.821 -53.089  12.623  1.00  0.00     0.324 C 
HETATM   21  H   UNL     1     -42.013 -55.153  12.468  1.00  0.00     0.164 HD
HETATM   22  O   UNL     1     -40.659 -53.018  12.259  1.00  0.00    -0.247 OA
ENDBRANCH   4  16
TORSDOF 6
ENDMDL
MODEL 5
REMARK VINA RESULT:      -5.1      3.038      4.153
REMARK  6 active torsions:
REMARK  status: ('A' for Active; 'I' for Inactive)
REMARK    1  A    between atoms: C_2  and  C_3 
REMARK    2  A    between atoms: C_3  and  C_4 
REMARK    3  A    between atoms: C_4  and  N_5 
REMARK       I    between atoms: N_5  and  C_6 
REMARK    4  A    between atoms: C_6  and  C_8 
REMARK    5  A    between atoms: C_8  and  C_9 
REMARK    6  A    between atoms: C_12  and  N_15 
ROOT
HETATM    1  C   UNL     1     -41.580 -54.473  15.131  1.00  0.00     0.026 A 
HETATM    2  C   UNL     1     -40.292 -54.767  15.534  1.00  0.00     0.078 A 
HETATM    3  S   UNL     1     -39.196 -53.630  14.868  1.00  0.00    -0.064 SA
HETATM    4  C   UNL     1     -40.491 -52.876  14.035  1.00  0.00     0.155 A 
HETATM    5  N   UNL     1     -41.679 -53.364  14.302  1.00  0.00    -0.339 N 
ATOM      6  HN  UNL     1     -42.556 -52.981  13.949  1.00  0.00     0.168 HD
ENDROOT
BRANCH   1   7
HETATM    7  C   UNL     1     -42.830 -55.219  15.473  1.00  0.00     0.160 C 
BRANCH   7   8
HETATM    8  C   UNL     1     -44.066 -54.332  15.536  1.00  0.00     0.223 C 
HETATM    9  N   UNL     1     -45.081 -54.656  14.667  1.00  0.00    -0.361 N 
HETATM   10  H   UNL     1     -44.920 -55.426  14.012  1.00  0.00     0.162 HD
HETATM   11  O   UNL     1     -44.112 -53.356  16.286  1.00  0.00    -0.273 OA
BRANCH   9  12
HETATM   12  C   UNL     1     -46.302 -53.896  14.544  1.00  0.00     0.122 C 
BRANCH  12  13
HETATM   13  C   UNL     1     -46.210 -52.814  13.467  1.00  0.00     0.019 C 
BRANCH  13  14
HETATM   14  C   UNL     1     -46.508 -51.418  14.019  1.00  0.00    -0.003 C 
HETATM   15  C   UNL     1     -47.037 -51.485  15.442  1.00  0.00     0.005 C 
ENDBRANCH  13  14
ENDBRANCH  12  13
ENDBRANCH   9  12
ENDBRANCH   7   8
ENDBRANCH   1   7
BRANCH   4  16
HETATM   16  N   UNL     1     -40.195 -51.867  13.145  1.00  0.00    -0.278 N 
HETATM   17  C   UNL     1     -39.103 -50.923  13.175  1.00  0.00     0.155 C 
HETATM   18  C   UNL     1     -39.135 -50.269  11.802  1.00  0.00     0.145 C 
HETATM   19  N   UNL     1     -40.413 -50.636  11.271  1.00  0.00    -0.341 N 
HETATM   20  C   UNL     1     -40.983 -51.677  12.001  1.00  0.00     0.324 C 
HETATM   21  H   UNL     1     -40.733 -50.473  10.325  1.00  0.00     0.164 HD
HETATM   22  O   UNL     1     -41.969 -52.279  11.609  1.00  0.00    -0.247 OA
ENDBRANCH   4  16
TORSDOF 6
ENDMDL
MODEL 6
REMARK VINA RESULT:      -4.9      1.996      2.151
REMARK  6 active torsions:
REMARK  status: ('A' for Active; 'I' for Inactive)
REMARK    1  A    between atoms: C_2  and  C_3 
REMARK    2  A    between atoms: C_3  and  C_4 
REMARK    3  A    between atoms: C_4  and  N_5 
REMARK       I    between atoms: N_5  and  C_6 
REMARK    4  A    between atoms: C_6  and  C_8 
REMARK    5  A    between atoms: C_8  and  C_9 
REMARK    6  A    between atoms: C_12  and  N_15 
ROOT
HETATM    1  C   UNL     1     -41.367 -51.644  12.347  1.00  0.00     0.026 A 
HETATM    2  C   UNL     1     -40.050 -51.240  12.239  1.00  0.00     0.078 A 
HETATM    3  S   UNL     1     -39.979 -49.588  11.789  1.00  0.00    -0.064 SA
HETATM    4  C   UNL     1     -41.690 -49.543  11.696  1.00  0.00     0.155 A 
HETATM    5  N   UNL     1     -42.293 -50.647  12.067  1.00  0.00    -0.339 N 
ATOM      6  HN  UNL     1     -43.304 -50.759  12.141  1.00  0.00     0.168 HD
ENDROOT
BRANCH   1   7
HETATM    7  C   UNL     1     -41.872 -53.005  12.703  1.00  0.00     0.160 C 
BRANCH   7   8
HETATM    8  C   UNL     1     -43.354 -53.028  13.051  1.00  0.00     0.223 C 
HETATM    9  N   UNL     1     -43.656 -52.932  14.389  1.00  0.00    -0.361 N 
HETATM   10  H   UNL     1     -42.878 -52.903  15.053  1.00  0.00     0.162 HD
HETATM   11  O   UNL     1     -44.211 -53.181  12.181  1.00  0.00    -0.273 OA
BRANCH   9  12
HETATM   12  C   UNL     1     -45.000 -52.995  14.913  1.00  0.00     0.122 C 
BRANCH  12  13
HETATM   13  C   UNL     1     -45.518 -51.626  15.355  1.00  0.00     0.019 C 
BRANCH  13  14
HETATM   14  C   UNL     1     -47.044 -51.531  15.283  1.00  0.00    -0.003 C 
HETATM   15  C   UNL     1     -47.643 -51.196  16.638  1.00  0.00     0.005 C 
ENDBRANCH  13  14
ENDBRANCH  12  13
ENDBRANCH   9  12
ENDBRANCH   7   8
ENDBRANCH   1   7
BRANCH   4  16
HETATM   16  N   UNL     1     -42.287 -48.399  11.217  1.00  0.00    -0.278 N 
HETATM   17  C   UNL     1     -42.362 -47.915   9.858  1.00  0.00     0.155 C 
HETATM   18  C   UNL     1     -43.380 -46.786   9.917  1.00  0.00     0.145 C 
HETATM   19  N   UNL     1     -43.516 -46.512  11.316  1.00  0.00    -0.341 N 
HETATM   20  C   UNL     1     -42.975 -47.540  12.086  1.00  0.00     0.324 C 
HETATM   21  H   UNL     1     -44.199 -45.896  11.738  1.00  0.00     0.164 HD
HETATM   22  O   UNL     1     -43.159 -47.613  13.290  1.00  0.00    -0.247 OA
ENDBRANCH   4  16
TORSDOF 6
ENDMDL
MODEL 7
REMARK VINA RESULT:      -4.9      2.861      6.975
REMARK  6 active torsions:
REMARK  status: ('A' for Active; 'I' for Inactive)
REMARK    1  A    between atoms: C_2  and  C_3 
REMARK    2  A    between atoms: C_3  and  C_4 
REMARK    3  A    between atoms: C_4  and  N_5 
REMARK       I    between atoms: N_5  and  C_6 
REMARK    4  A    between atoms: C_6  and  C_8 
REMARK    5  A    between atoms: C_8  and  C_9 
REMARK    6  A    between atoms: C_12  and  N_15 
ROOT
HETATM    1  C   UNL     1     -42.495 -53.147  13.033  1.00  0.00     0.026 A 
HETATM    2  C   UNL     1     -42.235 -54.279  13.782  1.00  0.00     0.078 A 
HETATM    3  S   UNL     1     -43.497 -54.535  14.913  1.00  0.00    -0.064 SA
HETATM    4  C   UNL     1     -44.259 -53.092  14.384  1.00  0.00     0.155 A 
HETATM    5  N   UNL     1     -43.677 -52.501  13.369  1.00  0.00    -0.339 N 
ATOM      6  HN  UNL     1     -44.044 -51.678  12.890  1.00  0.00     0.168 HD
ENDROOT
BRANCH   1   7
HETATM    7  C   UNL     1     -41.646 -52.561  11.951  1.00  0.00     0.160 C 
BRANCH   7   8
HETATM    8  C   UNL     1     -41.313 -51.091  12.173  1.00  0.00     0.223 C 
HETATM    9  N   UNL     1     -40.575 -50.489  11.181  1.00  0.00    -0.361 N 
HETATM   10  H   UNL     1     -40.262 -51.070  10.400  1.00  0.00     0.162 HD
HETATM   11  O   UNL     1     -41.643 -50.512  13.207  1.00  0.00    -0.273 OA
BRANCH   9  12
HETATM   12  C   UNL     1     -40.117 -49.121  11.243  1.00  0.00     0.122 C 
BRANCH  12  13
HETATM   13  C   UNL     1     -38.759 -48.992  11.933  1.00  0.00     0.019 C 
BRANCH  13  14
HETATM   14  C   UNL     1     -37.748 -50.025  11.427  1.00  0.00    -0.003 C 
HETATM   15  C   UNL     1     -37.271 -50.929  12.550  1.00  0.00     0.005 C 
ENDBRANCH  13  14
ENDBRANCH  12  13
ENDBRANCH   9  12
ENDBRANCH   7   8
ENDBRANCH   1   7
BRANCH   4  16
HETATM   16  N   UNL     1     -45.370 -52.654  15.068  1.00  0.00    -0.278 N 
HETATM   17  C   UNL     1     -45.765 -52.928  16.430  1.00  0.00     0.155 C 
HETATM   18  C   UNL     1     -46.897 -51.948  16.698  1.00  0.00     0.145 C 
HETATM   19  N   UNL     1     -47.261 -51.472  15.398  1.00  0.00    -0.341 N 
HETATM   20  C   UNL     1     -46.284 -51.786  14.454  1.00  0.00     0.324 C 
HETATM   21  H   UNL     1     -47.904 -50.716  15.199  1.00  0.00     0.164 HD
HETATM   22  O   UNL     1     -46.290 -51.307  13.332  1.00  0.00    -0.247 OA
ENDBRANCH   4  16
TORSDOF 6
ENDMDL
MODEL 8
REMARK VINA RESULT:      -4.8      2.808      3.546
REMARK  6 active torsions:
REMARK  status: ('A' for Active; 'I' for Inactive)
REMARK    1  A    between atoms: C_2  and  C_3 
REMARK    2  A    between atoms: C_3  and  C_4 
REMARK    3  A    between atoms: C_4  and  N_5 
REMARK       I    between atoms: N_5  and  C_6 
REMARK    4  A    between atoms: C_6  and  C_8 
REMARK    5  A    between atoms: C_8  and  C_9 
REMARK    6  A    between atoms: C_12  and  N_15 
ROOT
HETATM    1  C   UNL     1     -42.242 -53.058  13.463  1.00  0.00     0.026 A 
HETATM    2  C   UNL     1     -41.987 -52.698  14.772  1.00  0.00     0.078 A 
HETATM    3  S   UNL     1     -40.734 -51.529  14.824  1.00  0.00    -0.064 SA
HETATM    4  C   UNL     1     -40.568 -51.637  13.120  1.00  0.00     0.155 A 
HETATM    5  N   UNL     1     -41.444 -52.413  12.528  1.00  0.00    -0.339 N 
ATOM      6  HN  UNL     1     -41.528 -52.526  11.518  1.00  0.00     0.168 HD
ENDROOT
BRANCH   1   7
HETATM    7  C   UNL     1     -43.245 -54.054  12.976  1.00  0.00     0.160 C 
BRANCH   7   8
HETATM    8  C   UNL     1     -44.522 -54.082  13.805  1.00  0.00     0.223 C 
HETATM    9  N   UNL     1     -45.396 -53.042  13.593  1.00  0.00    -0.361 N 
HETATM   10  H   UNL     1     -45.112 -52.306  12.942  1.00  0.00     0.162 HD
HETATM   11  O   UNL     1     -44.716 -54.958  14.647  1.00  0.00    -0.273 OA
BRANCH   9  12
HETATM   12  C   UNL     1     -46.628 -52.869  14.326  1.00  0.00     0.122 C 
BRANCH  12  13
HETATM   13  C   UNL     1     -46.798 -51.445  14.853  1.00  0.00     0.019 C 
BRANCH  13  14
HETATM   14  C   UNL     1     -47.500 -51.407  16.213  1.00  0.00    -0.003 C 
HETATM   15  C   UNL     1     -46.550 -51.781  17.338  1.00  0.00     0.005 C 
ENDBRANCH  13  14
ENDBRANCH  12  13
ENDBRANCH   9  12
ENDBRANCH   7   8
ENDBRANCH   1   7
BRANCH   4  16
HETATM   16  N   UNL     1     -39.534 -50.953  12.521  1.00  0.00    -0.278 N 
HETATM   17  C   UNL     1     -38.118 -51.029  12.792  1.00  0.00     0.155 C 
HETATM   18  C   UNL     1     -37.473 -50.280  11.635  1.00  0.00     0.145 C 
HETATM   19  N   UNL     1     -38.561 -49.572  11.030  1.00  0.00    -0.341 N 
HETATM   20  C   UNL     1     -39.789 -50.064  11.467  1.00  0.00     0.324 C 
HETATM   21  H   UNL     1     -38.525 -49.058  10.159  1.00  0.00     0.164 HD
HETATM   22  O   UNL     1     -40.840 -49.747  10.935  1.00  0.00    -0.247 OA
ENDBRANCH   4  16
TORSDOF 6
ENDMDL
MODEL 9
REMARK VINA RESULT:      -4.7      4.445      6.622
REMARK  6 active torsions:
REMARK  status: ('A' for Active; 'I' for Inactive)
REMARK    1  A    between atoms: C_2  and  C_3 
REMARK    2  A    between atoms: C_3  and  C_4 
REMARK    3  A    between atoms: C_4  and  N_5 
REMARK       I    between atoms: N_5  and  C_6 
REMARK    4  A    between atoms: C_6  and  C_8 
REMARK    5  A    between atoms: C_8  and  C_9 
REMARK    6  A    between atoms: C_12  and  N_15 
ROOT
HETATM    1  C   UNL     1     -41.468 -52.845  13.142  1.00  0.00     0.026 A 
HETATM    2  C   UNL     1     -40.355 -52.030  13.214  1.00  0.00     0.078 A 
HETATM    3  S   UNL     1     -39.154 -52.762  14.193  1.00  0.00    -0.064 SA
HETATM    4  C   UNL     1     -40.218 -54.069  14.513  1.00  0.00     0.155 A 
HETATM    5  N   UNL     1     -41.357 -54.026  13.863  1.00  0.00    -0.339 N 
ATOM      6  HN  UNL     1     -42.064 -54.761  13.885  1.00  0.00     0.168 HD
ENDROOT
BRANCH   1   7
HETATM    7  C   UNL     1     -42.742 -52.578  12.406  1.00  0.00     0.160 C 
BRANCH   7   8
HETATM    8  C   UNL     1     -43.931 -53.357  12.953  1.00  0.00     0.223 C 
HETATM    9  N   UNL     1     -44.454 -52.897  14.138  1.00  0.00    -0.361 N 
HETATM   10  H   UNL     1     -43.986 -52.108  14.592  1.00  0.00     0.162 HD
HETATM   11  O   UNL     1     -44.347 -54.366  12.384  1.00  0.00    -0.273 OA
BRANCH   9  12
HETATM   12  C   UNL     1     -45.542 -53.540  14.836  1.00  0.00     0.122 C 
BRANCH  12  13
HETATM   13  C   UNL     1     -46.888 -52.870  14.560  1.00  0.00     0.019 C 
BRANCH  13  14
HETATM   14  C   UNL     1     -46.921 -51.414  15.031  1.00  0.00    -0.003 C 
HETATM   15  C   UNL     1     -47.490 -51.298  16.435  1.00  0.00     0.005 C 
ENDBRANCH  13  14
ENDBRANCH  12  13
ENDBRANCH   9  12
ENDBRANCH   7   8
ENDBRANCH   1   7
BRANCH   4  16
HETATM   16  N   UNL     1     -39.826 -55.019  15.429  1.00  0.00    -0.278 N 
HETATM   17  C   UNL     1     -38.493 -55.458  15.767  1.00  0.00     0.155 C 
HETATM   18  C   UNL     1     -38.679 -56.290  17.027  1.00  0.00     0.145 C 
HETATM   19  N   UNL     1     -40.090 -56.529  17.081  1.00  0.00    -0.341 N 
HETATM   20  C   UNL     1     -40.780 -55.679  16.218  1.00  0.00     0.324 C 
HETATM   21  H   UNL     1     -40.593 -56.954  17.849  1.00  0.00     0.164 HD
HETATM   22  O   UNL     1     -41.994 -55.571  16.249  1.00  0.00    -0.247 OA
ENDBRANCH   4  16
TORSDOF 6
ENDMDL
