MODEL 1
REMARK VINA RESULT:      -5.9      0.000      0.000
REMARK  6 active torsions:
REMARK  status: ('A' for Active; 'I' for Inactive)
REMARK    1  A    between atoms: C_2  and  N_3 
REMARK       I    between atoms: N_6  and  C_9 
REMARK    2  A    between atoms: C_9  and  C_11 
REMARK    3  A    between atoms: C_11  and  N_13 
REMARK    4  A    between atoms: N_13  and  C_14 
REMARK    5  A    between atoms: C_14  and  C_15 
REMARK    6  A    between atoms: C_15  and  N_16 
ROOT
HETATM    1  C   UNL     1     -40.558 -50.636  12.170  1.00  0.00     0.307 C 
HETATM    2  C   UNL     1     -39.134 -50.799  12.697  1.00  0.00     0.053 C 
ENDROOT
BRANCH   1   3
HETATM    3  C   UNL     1     -41.256 -52.019  12.188  1.00  0.00     0.253 C 
HETATM    4  N   UNL     1     -42.563 -52.086  12.638  1.00  0.00    -0.347 N 
HETATM    5  C   UNL     1     -43.317 -51.003  13.278  1.00  0.00     0.156 C 
HETATM    6  C   UNL     1     -43.289 -53.356  12.557  1.00  0.00     0.156 C 
HETATM    7  C   UNL     1     -43.877 -51.459  14.644  1.00  0.00     0.292 C 
HETATM    8  N   UNL     1     -44.669 -52.711  14.597  1.00  0.00     0.091 N 
HETATM    9  C   UNL     1     -43.854 -53.758  13.933  1.00  0.00     0.292 C 
HETATM   10  O   UNL     1     -40.642 -53.020  11.809  1.00  0.00    -0.271 OA
BRANCH   8  11
HETATM   11  C   UNL     1     -45.972 -52.468  13.958  1.00  0.00     0.268 C 
HETATM   12  C   UNL     1     -46.820 -51.405  14.645  1.00  0.00     0.037 C 
ENDBRANCH   8  11
ENDBRANCH   1   3
BRANCH   1  13
HETATM   13  N   UNL     1     -40.520 -50.070  10.797  1.00  0.00     0.098 N 
HETATM   14  H   UNL     1     -41.256 -50.551  10.267  1.00  0.00     0.317 HD
BRANCH  13  15
HETATM   15  C   UNL     1     -40.838 -48.626  10.758  1.00  0.00     0.292 C 
BRANCH  15  16
HETATM   16  C   UNL     1     -42.252 -48.258  11.215  1.00  0.00     0.178 C 
BRANCH  16  17
HETATM   17  N   UNL     1     -43.092 -47.901  10.087  1.00  0.00    -0.302 N 
HETATM   18  C   UNL     1     -44.381 -47.454  10.133  1.00  0.00     0.111 A 
HETATM   19  C   UNL     1     -44.751 -47.236   8.828  1.00  0.00     0.037 A 
HETATM   20  C   UNL     1     -43.619 -47.591   8.069  1.00  0.00     0.108 A 
HETATM   21  N   UNL     1     -42.607 -48.004   8.834  1.00  0.00    -0.310 N 
ATOM     22  HN  UNL     1     -41.684 -48.324   8.539  1.00  0.00     0.186 HD
ENDBRANCH  16  17
ENDBRANCH  15  16
ENDBRANCH  13  15
ENDBRANCH   1  13
TORSDOF 6
ENDMDL
MODEL 2
REMARK VINA RESULT:      -5.6      1.299      1.619
REMARK  6 active torsions:
REMARK  status: ('A' for Active; 'I' for Inactive)
REMARK    1  A    between atoms: C_2  and  N_3 
REMARK       I    between atoms: N_6  and  C_9 
REMARK    2  A    between atoms: C_9  and  C_11 
REMARK    3  A    between atoms: C_11  and  N_13 
REMARK    4  A    between atoms: N_13  and  C_14 
REMARK    5  A    between atoms: C_14  and  C_15 
REMARK    6  A    between atoms: C_15  and  N_16 
ROOT
HETATM    1  C   UNL     1     -39.949 -49.511  12.417  1.00  0.00     0.307 C 
HETATM    2  C   UNL     1     -38.663 -48.919  12.990  1.00  0.00     0.053 C 
ENDROOT
BRANCH   1   3
HETATM    3  C   UNL     1     -39.842 -51.057  12.450  1.00  0.00     0.253 C 
HETATM    4  N   UNL     1     -41.014 -51.793  12.492  1.00  0.00    -0.347 N 
HETATM    5  C   UNL     1     -42.366 -51.260  12.690  1.00  0.00     0.156 C 
HETATM    6  C   UNL     1     -40.950 -53.254  12.405  1.00  0.00     0.156 C 
HETATM    7  C   UNL     1     -43.060 -51.959  13.880  1.00  0.00     0.292 C 
HETATM    8  N   UNL     1     -43.070 -53.439  13.803  1.00  0.00     0.091 N 
HETATM    9  C   UNL     1     -41.679 -53.909  13.595  1.00  0.00     0.292 C 
HETATM   10  O   UNL     1     -38.731 -51.594  12.442  1.00  0.00    -0.271 OA
BRANCH   8  11
HETATM   11  C   UNL     1     -44.018 -53.890  12.772  1.00  0.00     0.268 C 
HETATM   12  C   UNL     1     -45.379 -53.208  12.827  1.00  0.00     0.037 C 
ENDBRANCH   8  11
ENDBRANCH   1   3
BRANCH   1  13
HETATM   13  N   UNL     1     -40.152 -49.016  11.031  1.00  0.00     0.098 N 
HETATM   14  H   UNL     1     -40.722 -49.723  10.553  1.00  0.00     0.317 HD
BRANCH  13  15
HETATM   15  C   UNL     1     -40.910 -47.747  10.978  1.00  0.00     0.292 C 
BRANCH  15  16
HETATM   16  C   UNL     1     -42.404 -47.867  11.292  1.00  0.00     0.178 C 
BRANCH  16  17
HETATM   17  N   UNL     1     -43.205 -47.744  10.087  1.00  0.00    -0.302 N 
HETATM   18  C   UNL     1     -44.545 -47.492  10.016  1.00  0.00     0.111 A 
HETATM   19  C   UNL     1     -44.850 -47.453   8.677  1.00  0.00     0.037 A 
HETATM   20  C   UNL     1     -43.629 -47.704   8.023  1.00  0.00     0.108 A 
HETATM   21  N   UNL     1     -42.624 -47.890   8.881  1.00  0.00    -0.310 N 
ATOM     22  HN  UNL     1     -41.646 -48.095   8.672  1.00  0.00     0.186 HD
ENDBRANCH  16  17
ENDBRANCH  15  16
ENDBRANCH  13  15
ENDBRANCH   1  13
TORSDOF 6
ENDMDL
MODEL 3
REMARK VINA RESULT:      -5.4      3.386      6.312
REMARK  6 active torsions:
REMARK  status: ('A' for Active; 'I' for Inactive)
REMARK    1  A    between atoms: C_2  and  N_3 
REMARK       I    between atoms: N_6  and  C_9 
REMARK    2  A    between atoms: C_9  and  C_11 
REMARK    3  A    between atoms: C_11  and  N_13 
REMARK    4  A    between atoms: N_13  and  C_14 
REMARK    5  A    between atoms: C_14  and  C_15 
REMARK    6  A    between atoms: C_15  and  N_16 
ROOT
HETATM    1  C   UNL     1     -42.187 -53.422  14.546  1.00  0.00     0.307 C 
HETATM    2  C   UNL     1     -42.940 -52.835  15.738  1.00  0.00     0.053 C 
ENDROOT
BRANCH   1   3
HETATM    3  C   UNL     1     -42.009 -52.314  13.477  1.00  0.00     0.253 C 
HETATM    4  N   UNL     1     -40.722 -51.943  13.129  1.00  0.00    -0.347 N 
HETATM    5  C   UNL     1     -39.487 -52.364  13.798  1.00  0.00     0.156 C 
HETATM    6  C   UNL     1     -40.518 -50.985  12.039  1.00  0.00     0.156 C 
HETATM    7  C   UNL     1     -38.653 -51.137  14.230  1.00  0.00     0.292 C 
HETATM    8  N   UNL     1     -38.374 -50.169  13.142  1.00  0.00     0.091 N 
HETATM    9  C   UNL     1     -39.659 -49.794  12.505  1.00  0.00     0.292 C 
HETATM   10  O   UNL     1     -43.002 -51.790  12.966  1.00  0.00    -0.271 OA
BRANCH   8  11
HETATM   11  C   UNL     1     -37.379 -50.723  12.209  1.00  0.00     0.268 C 
HETATM   12  C   UNL     1     -37.238 -49.946  10.907  1.00  0.00     0.037 C 
ENDBRANCH   8  11
ENDBRANCH   1   3
BRANCH   1  13
HETATM   13  N   UNL     1     -42.943 -54.579  14.001  1.00  0.00     0.098 N 
HETATM   14  H   UNL     1     -42.350 -55.404  14.146  1.00  0.00     0.317 HD
BRANCH  13  15
HETATM   15  C   UNL     1     -44.210 -54.831  14.720  1.00  0.00     0.292 C 
BRANCH  15  16
HETATM   16  C   UNL     1     -45.471 -54.791  13.852  1.00  0.00     0.178 C 
BRANCH  16  17
HETATM   17  N   UNL     1     -45.962 -53.433  13.701  1.00  0.00    -0.302 N 
HETATM   18  C   UNL     1     -46.433 -52.618  14.689  1.00  0.00     0.111 A 
HETATM   19  C   UNL     1     -46.767 -51.435  14.074  1.00  0.00     0.037 A 
HETATM   20  C   UNL     1     -46.470 -51.642  12.713  1.00  0.00     0.108 A 
HETATM   21  N   UNL     1     -45.986 -52.864  12.480  1.00  0.00    -0.310 N 
ATOM     22  HN  UNL     1     -45.701 -53.270  11.589  1.00  0.00     0.186 HD
ENDBRANCH  16  17
ENDBRANCH  15  16
ENDBRANCH  13  15
ENDBRANCH   1  13
TORSDOF 6
ENDMDL
MODEL 4
REMARK VINA RESULT:      -5.4      2.740      4.180
REMARK  6 active torsions:
REMARK  status: ('A' for Active; 'I' for Inactive)
REMARK    1  A    between atoms: C_2  and  N_3 
REMARK       I    between atoms: N_6  and  C_9 
REMARK    2  A    between atoms: C_9  and  C_11 
REMARK    3  A    between atoms: C_11  and  N_13 
REMARK    4  A    between atoms: N_13  and  C_14 
REMARK    5  A    between atoms: C_14  and  C_15 
REMARK    6  A    between atoms: C_15  and  N_16 
ROOT
HETATM    1  C   UNL     1     -42.356 -52.768  13.016  1.00  0.00     0.307 C 
HETATM    2  C   UNL     1     -41.446 -53.994  13.053  1.00  0.00     0.053 C 
ENDROOT
BRANCH   1   3
HETATM    3  C   UNL     1     -43.828 -53.246  12.919  1.00  0.00     0.253 C 
HETATM    4  N   UNL     1     -44.760 -52.667  13.763  1.00  0.00    -0.347 N 
HETATM    5  C   UNL     1     -44.474 -51.761  14.880  1.00  0.00     0.156 C 
HETATM    6  C   UNL     1     -46.177 -53.010  13.615  1.00  0.00     0.156 C 
HETATM    7  C   UNL     1     -45.098 -52.294  16.189  1.00  0.00     0.292 C 
HETATM    8  N   UNL     1     -46.546 -52.599  16.100  1.00  0.00     0.091 N 
HETATM    9  C   UNL     1     -46.765 -53.509  14.949  1.00  0.00     0.292 C 
HETATM   10  O   UNL     1     -44.135 -54.121  12.106  1.00  0.00    -0.271 OA
BRANCH   8  11
HETATM   11  C   UNL     1     -47.328 -51.354  16.040  1.00  0.00     0.268 C 
HETATM   12  C   UNL     1     -48.130 -51.054  17.300  1.00  0.00     0.037 C 
ENDBRANCH   8  11
ENDBRANCH   1   3
BRANCH   1  13
HETATM   13  N   UNL     1     -41.992 -51.911  11.859  1.00  0.00     0.098 N 
HETATM   14  H   UNL     1     -42.784 -51.954  11.208  1.00  0.00     0.317 HD
BRANCH  13  15
HETATM   15  C   UNL     1     -41.817 -50.490  12.226  1.00  0.00     0.292 C 
BRANCH  15  16
HETATM   16  C   UNL     1     -40.802 -49.718  11.378  1.00  0.00     0.178 C 
BRANCH  16  17
HETATM   17  N   UNL     1     -39.440 -50.057  11.751  1.00  0.00    -0.302 N 
HETATM   18  C   UNL     1     -38.994 -50.413  12.990  1.00  0.00     0.111 A 
HETATM   19  C   UNL     1     -37.648 -50.652  12.852  1.00  0.00     0.037 A 
HETATM   20  C   UNL     1     -37.376 -50.402  11.493  1.00  0.00     0.108 A 
HETATM   21  N   UNL     1     -38.467 -50.031  10.819  1.00  0.00    -0.310 N 
ATOM     22  HN  UNL     1     -38.545 -49.786   9.832  1.00  0.00     0.186 HD
ENDBRANCH  16  17
ENDBRANCH  15  16
ENDBRANCH  13  15
ENDBRANCH   1  13
TORSDOF 6
ENDMDL
MODEL 5
REMARK VINA RESULT:      -5.3      2.208      6.136
REMARK  6 active torsions:
REMARK  status: ('A' for Active; 'I' for Inactive)
REMARK    1  A    between atoms: C_2  and  N_3 
REMARK       I    between atoms: N_6  and  C_9 
REMARK    2  A    between atoms: C_9  and  C_11 
REMARK    3  A    between atoms: C_11  and  N_13 
REMARK    4  A    between atoms: N_13  and  C_14 
REMARK    5  A    between atoms: C_14  and  C_15 
REMARK    6  A    between atoms: C_15  and  N_16 
ROOT
HETATM    1  C   UNL     1     -41.587 -51.560  12.263  1.00  0.00     0.307 C 
HETATM    2  C   UNL     1     -40.977 -51.950  13.607  1.00  0.00     0.053 C 
ENDROOT
BRANCH   1   3
HETATM    3  C   UNL     1     -42.367 -50.233  12.437  1.00  0.00     0.253 C 
HETATM    4  N   UNL     1     -41.844 -49.086  11.865  1.00  0.00    -0.347 N 
HETATM    5  C   UNL     1     -40.519 -48.951  11.251  1.00  0.00     0.156 C 
HETATM    6  C   UNL     1     -42.614 -47.841  11.911  1.00  0.00     0.156 C 
HETATM    7  C   UNL     1     -39.734 -47.787  11.895  1.00  0.00     0.292 C 
HETATM    8  N   UNL     1     -40.456 -46.492  11.909  1.00  0.00     0.091 N 
HETATM    9  C   UNL     1     -41.785 -46.701  12.533  1.00  0.00     0.292 C 
HETATM   10  O   UNL     1     -43.423 -50.222  13.076  1.00  0.00    -0.271 OA
BRANCH   8  11
HETATM   11  C   UNL     1     -40.511 -45.923  10.553  1.00  0.00     0.268 C 
HETATM   12  C   UNL     1     -39.652 -44.680  10.357  1.00  0.00     0.037 C 
ENDBRANCH   8  11
ENDBRANCH   1   3
BRANCH   1  13
HETATM   13  N   UNL     1     -42.479 -52.649  11.786  1.00  0.00     0.098 N 
HETATM   14  H   UNL     1     -41.936 -53.186  11.099  1.00  0.00     0.317 HD
BRANCH  13  15
HETATM   15  C   UNL     1     -42.863 -53.591  12.859  1.00  0.00     0.292 C 
BRANCH  15  16
HETATM   16  C   UNL     1     -44.299 -54.117  12.780  1.00  0.00     0.178 C 
BRANCH  16  17
HETATM   17  N   UNL     1     -45.259 -53.071  13.084  1.00  0.00    -0.302 N 
HETATM   18  C   UNL     1     -45.701 -52.697  14.320  1.00  0.00     0.111 A 
HETATM   19  C   UNL     1     -46.584 -51.666  14.108  1.00  0.00     0.037 A 
HETATM   20  C   UNL     1     -46.613 -51.499  12.710  1.00  0.00     0.108 A 
HETATM   21  N   UNL     1     -45.811 -52.360  12.081  1.00  0.00    -0.310 N 
ATOM     22  HN  UNL     1     -45.654 -52.457  11.077  1.00  0.00     0.186 HD
ENDBRANCH  16  17
ENDBRANCH  15  16
ENDBRANCH  13  15
ENDBRANCH   1  13
TORSDOF 6
ENDMDL
MODEL 6
REMARK VINA RESULT:      -5.3      1.630      1.971
REMARK  6 active torsions:
REMARK  status: ('A' for Active; 'I' for Inactive)
REMARK    1  A    between atoms: C_2  and  N_3 
REMARK       I    between atoms: N_6  and  C_9 
REMARK    2  A    between atoms: C_9  and  C_11 
REMARK    3  A    between atoms: C_11  and  N_13 
REMARK    4  A    between atoms: N_13  and  C_14 
REMARK    5  A    between atoms: C_14  and  C_15 
REMARK    6  A    between atoms: C_15  and  N_16 
ROOT
HETATM    1  C   UNL     1     -40.541 -51.190  12.546  1.00  0.00     0.307 C 
HETATM    2  C   UNL     1     -39.119 -51.384  13.066  1.00  0.00     0.053 C 
ENDROOT
BRANCH   1   3
HETATM    3  C   UNL     1     -41.282 -52.551  12.608  1.00  0.00     0.253 C 
HETATM    4  N   UNL     1     -42.616 -52.552  12.975  1.00  0.00    -0.347 N 
HETATM    5  C   UNL     1     -43.375 -51.409  13.492  1.00  0.00     0.156 C 
HETATM    6  C   UNL     1     -43.375 -53.805  12.929  1.00  0.00     0.156 C 
HETATM    7  C   UNL     1     -44.034 -51.757  14.845  1.00  0.00     0.292 C 
HETATM    8  N   UNL     1     -44.860 -52.988  14.828  1.00  0.00     0.091 N 
HETATM    9  C   UNL     1     -44.038 -54.098  14.289  1.00  0.00     0.292 C 
HETATM   10  O   UNL     1     -40.676 -53.590  12.335  1.00  0.00    -0.271 OA
BRANCH   8  11
HETATM   11  C   UNL     1     -46.112 -52.753  14.091  1.00  0.00     0.268 C 
HETATM   12  C   UNL     1     -46.829 -51.462  14.466  1.00  0.00     0.037 C 
ENDBRANCH   8  11
ENDBRANCH   1   3
BRANCH   1  13
HETATM   13  N   UNL     1     -40.496 -50.666  11.156  1.00  0.00     0.098 N 
HETATM   14  H   UNL     1     -41.423 -50.842  10.752  1.00  0.00     0.317 HD
BRANCH  13  15
HETATM   15  C   UNL     1     -40.276 -49.204  11.099  1.00  0.00     0.292 C 
BRANCH  15  16
HETATM   16  C   UNL     1     -41.519 -48.370  10.777  1.00  0.00     0.178 C 
BRANCH  16  17
HETATM   17  N   UNL     1     -41.211 -46.952  10.763  1.00  0.00    -0.302 N 
HETATM   18  C   UNL     1     -42.076 -45.922  10.994  1.00  0.00     0.111 A 
HETATM   19  C   UNL     1     -41.331 -44.772  10.886  1.00  0.00     0.037 A 
HETATM   20  C   UNL     1     -40.031 -45.215  10.578  1.00  0.00     0.108 A 
HETATM   21  N   UNL     1     -39.955 -46.544  10.494  1.00  0.00    -0.310 N 
ATOM     22  HN  UNL     1     -39.138 -47.117  10.278  1.00  0.00     0.186 HD
ENDBRANCH  16  17
ENDBRANCH  15  16
ENDBRANCH  13  15
ENDBRANCH   1  13
TORSDOF 6
ENDMDL
MODEL 7
REMARK VINA RESULT:      -5.3      1.800      2.997
REMARK  6 active torsions:
REMARK  status: ('A' for Active; 'I' for Inactive)
REMARK    1  A    between atoms: C_2  and  N_3 
REMARK       I    between atoms: N_6  and  C_9 
REMARK    2  A    between atoms: C_9  and  C_11 
REMARK    3  A    between atoms: C_11  and  N_13 
REMARK    4  A    between atoms: N_13  and  C_14 
REMARK    5  A    between atoms: C_14  and  C_15 
REMARK    6  A    between atoms: C_15  and  N_16 
ROOT
HETATM    1  C   UNL     1     -42.527 -52.990  12.992  1.00  0.00     0.307 C 
HETATM    2  C   UNL     1     -41.745 -54.240  13.389  1.00  0.00     0.053 C 
ENDROOT
BRANCH   1   3
HETATM    3  C   UNL     1     -44.035 -53.344  12.940  1.00  0.00     0.253 C 
HETATM    4  N   UNL     1     -44.889 -52.694  13.814  1.00  0.00    -0.347 N 
HETATM    5  C   UNL     1     -44.494 -51.821  14.924  1.00  0.00     0.156 C 
HETATM    6  C   UNL     1     -46.333 -52.918  13.710  1.00  0.00     0.156 C 
HETATM    7  C   UNL     1     -45.119 -52.307  16.251  1.00  0.00     0.292 C 
HETATM    8  N   UNL     1     -46.589 -52.491  16.207  1.00  0.00     0.091 N 
HETATM    9  C   UNL     1     -46.919 -53.373  15.061  1.00  0.00     0.292 C 
HETATM   10  O   UNL     1     -44.439 -54.187  12.135  1.00  0.00    -0.271 OA
BRANCH   8  11
HETATM   11  C   UNL     1     -47.267 -51.185  16.175  1.00  0.00     0.268 C 
HETATM   12  C   UNL     1     -48.157 -50.909  17.380  1.00  0.00     0.037 C 
ENDBRANCH   8  11
ENDBRANCH   1   3
BRANCH   1  13
HETATM   13  N   UNL     1     -42.044 -52.498  11.675  1.00  0.00     0.098 N 
HETATM   14  H   UNL     1     -42.879 -52.203  11.155  1.00  0.00     0.317 HD
BRANCH  13  15
HETATM   15  C   UNL     1     -41.169 -51.312  11.789  1.00  0.00     0.292 C 
BRANCH  15  16
HETATM   16  C   UNL     1     -41.769 -50.130  12.556  1.00  0.00     0.178 C 
BRANCH  16  17
HETATM   17  N   UNL     1     -42.185 -49.073  11.652  1.00  0.00    -0.302 N 
HETATM   18  C   UNL     1     -41.403 -48.411  10.750  1.00  0.00     0.111 A 
HETATM   19  C   UNL     1     -42.232 -47.516  10.118  1.00  0.00     0.037 A 
HETATM   20  C   UNL     1     -43.491 -47.709  10.717  1.00  0.00     0.108 A 
HETATM   21  N   UNL     1     -43.465 -48.653  11.659  1.00  0.00    -0.310 N 
ATOM     22  HN  UNL     1     -44.233 -48.980  12.246  1.00  0.00     0.186 HD
ENDBRANCH  16  17
ENDBRANCH  15  16
ENDBRANCH  13  15
ENDBRANCH   1  13
TORSDOF 6
ENDMDL
MODEL 8
REMARK VINA RESULT:      -4.9      2.603      3.561
REMARK  6 active torsions:
REMARK  status: ('A' for Active; 'I' for Inactive)
REMARK    1  A    between atoms: C_2  and  N_3 
REMARK       I    between atoms: N_6  and  C_9 
REMARK    2  A    between atoms: C_9  and  C_11 
REMARK    3  A    between atoms: C_11  and  N_13 
REMARK    4  A    between atoms: N_13  and  C_14 
REMARK    5  A    between atoms: C_14  and  C_15 
REMARK    6  A    between atoms: C_15  and  N_16 
ROOT
HETATM    1  C   UNL     1     -40.042 -53.334  14.675  1.00  0.00     0.307 C 
HETATM    2  C   UNL     1     -38.939 -54.336  14.342  1.00  0.00     0.053 C 
ENDROOT
BRANCH   1   3
HETATM    3  C   UNL     1     -40.930 -53.138  13.420  1.00  0.00     0.253 C 
HETATM    4  N   UNL     1     -42.263 -52.819  13.606  1.00  0.00    -0.347 N 
HETATM    5  C   UNL     1     -42.986 -52.820  14.882  1.00  0.00     0.156 C 
HETATM    6  C   UNL     1     -43.100 -52.512  12.443  1.00  0.00     0.156 C 
HETATM    7  C   UNL     1     -44.243 -53.714  14.799  1.00  0.00     0.292 C 
HETATM    8  N   UNL     1     -45.148 -53.398  13.668  1.00  0.00     0.091 N 
HETATM    9  C   UNL     1     -44.355 -53.405  12.415  1.00  0.00     0.292 C 
HETATM   10  O   UNL     1     -40.438 -53.269  12.295  1.00  0.00    -0.271 OA
BRANCH   8  11
HETATM   11  C   UNL     1     -45.861 -52.135  13.922  1.00  0.00     0.268 C 
HETATM   12  C   UNL     1     -46.655 -51.612  12.733  1.00  0.00     0.037 C 
ENDBRANCH   8  11
ENDBRANCH   1   3
BRANCH   1  13
HETATM   13  N   UNL     1     -39.433 -52.050  15.109  1.00  0.00     0.098 N 
HETATM   14  H   UNL     1     -39.021 -52.224  16.033  1.00  0.00     0.317 HD
BRANCH  13  15
HETATM   15  C   UNL     1     -38.334 -51.605  14.226  1.00  0.00     0.292 C 
BRANCH  15  16
HETATM   16  C   UNL     1     -38.394 -50.135  13.801  1.00  0.00     0.178 C 
BRANCH  16  17
HETATM   17  N   UNL     1     -39.491 -49.900  12.879  1.00  0.00    -0.302 N 
HETATM   18  C   UNL     1     -40.664 -49.257  13.149  1.00  0.00     0.111 A 
HETATM   19  C   UNL     1     -41.378 -49.267  11.974  1.00  0.00     0.037 A 
HETATM   20  C   UNL     1     -40.553 -49.948  11.059  1.00  0.00     0.108 A 
HETATM   21  N   UNL     1     -39.403 -50.343  11.610  1.00  0.00    -0.310 N 
ATOM     22  HN  UNL     1     -38.639 -50.858  11.173  1.00  0.00     0.186 HD
ENDBRANCH  16  17
ENDBRANCH  15  16
ENDBRANCH  13  15
ENDBRANCH   1  13
TORSDOF 6
ENDMDL
MODEL 9
REMARK VINA RESULT:      -4.9      2.143      2.742
REMARK  6 active torsions:
REMARK  status: ('A' for Active; 'I' for Inactive)
REMARK    1  A    between atoms: C_2  and  N_3 
REMARK       I    between atoms: N_6  and  C_9 
REMARK    2  A    between atoms: C_9  and  C_11 
REMARK    3  A    between atoms: C_11  and  N_13 
REMARK    4  A    between atoms: N_13  and  C_14 
REMARK    5  A    between atoms: C_14  and  C_15 
REMARK    6  A    between atoms: C_15  and  N_16 
ROOT
HETATM    1  C   UNL     1     -40.511 -49.411  11.947  1.00  0.00     0.307 C 
HETATM    2  C   UNL     1     -39.278 -48.596  12.331  1.00  0.00     0.053 C 
ENDROOT
BRANCH   1   3
HETATM    3  C   UNL     1     -40.214 -50.911  12.202  1.00  0.00     0.253 C 
HETATM    4  N   UNL     1     -41.283 -51.761  12.423  1.00  0.00    -0.347 N 
HETATM    5  C   UNL     1     -42.681 -51.363  12.622  1.00  0.00     0.156 C 
HETATM    6  C   UNL     1     -41.045 -53.201  12.550  1.00  0.00     0.156 C 
HETATM    7  C   UNL     1     -43.232 -51.945  13.942  1.00  0.00     0.292 C 
HETATM    8  N   UNL     1     -43.064 -53.411  14.086  1.00  0.00     0.091 N 
HETATM    9  C   UNL     1     -41.636 -53.744  13.865  1.00  0.00     0.292 C 
HETATM   10  O   UNL     1     -39.047 -51.312  12.205  1.00  0.00    -0.271 OA
BRANCH   8  11
HETATM   11  C   UNL     1     -43.993 -54.121  13.192  1.00  0.00     0.268 C 
HETATM   12  C   UNL     1     -45.463 -53.963  13.559  1.00  0.00     0.037 C 
ENDBRANCH   8  11
ENDBRANCH   1   3
BRANCH   1  13
HETATM   13  N   UNL     1     -40.847 -49.165  10.521  1.00  0.00     0.098 N 
HETATM   14  H   UNL     1     -41.112 -50.075  10.126  1.00  0.00     0.317 HD
BRANCH  13  15
HETATM   15  C   UNL     1     -42.012 -48.269  10.350  1.00  0.00     0.292 C 
BRANCH  15  16
HETATM   16  C   UNL     1     -42.584 -47.690  11.647  1.00  0.00     0.178 C 
BRANCH  16  17
HETATM   17  N   UNL     1     -42.298 -46.271  11.760  1.00  0.00    -0.302 N 
HETATM   18  C   UNL     1     -41.392 -45.557  11.031  1.00  0.00     0.111 A 
HETATM   19  C   UNL     1     -41.485 -44.262  11.479  1.00  0.00     0.037 A 
HETATM   20  C   UNL     1     -42.466 -44.300  12.488  1.00  0.00     0.108 A 
HETATM   21  N   UNL     1     -42.960 -45.527  12.667  1.00  0.00    -0.310 N 
ATOM     22  HN  UNL     1     -43.670 -45.829  13.334  1.00  0.00     0.186 HD
ENDBRANCH  16  17
ENDBRANCH  15  16
ENDBRANCH  13  15
ENDBRANCH   1  13
TORSDOF 6
ENDMDL
