MODEL 1
REMARK VINA RESULT:      -6.1      0.000      0.000
REMARK  6 active torsions:
REMARK  status: ('A' for Active; 'I' for Inactive)
REMARK    1  A    between atoms: C_2  and  C_3 
REMARK       I    between atoms: C_2  and  N_8 
REMARK    2  A    between atoms: C_10  and  S_12 
REMARK    3  A    between atoms: S_12  and  N_15 
REMARK    4  A    between atoms: N_15  and  C_16 
REMARK    5  A    between atoms: C_16  and  C_17 
REMARK    6  A    between atoms: C_17  and  C_18 
ROOT
HETATM    1  S   UNL     1     -39.794 -52.162  13.781  1.00  0.00     0.216 S 
HETATM    2  O   UNL     1     -40.504 -50.913  13.954  1.00  0.00    -0.211 OA
HETATM    3  O   UNL     1     -39.464 -52.981  14.929  1.00  0.00    -0.211 OA
ENDROOT
BRANCH   1   4
HETATM    4  C   UNL     1     -40.664 -53.209  12.624  1.00  0.00     0.160 C 
HETATM    5  C   UNL     1     -42.018 -52.681  12.164  1.00  0.00     0.149 C 
HETATM    6  N   UNL     1     -42.614 -53.609  13.096  1.00  0.00    -0.349 N 
HETATM    7  C   UNL     1     -43.764 -53.587  13.837  1.00  0.00     0.224 C 
HETATM    8  C   UNL     1     -41.398 -54.377  13.302  1.00  0.00     0.149 C 
HETATM    9  O   UNL     1     -44.035 -54.461  14.659  1.00  0.00    -0.273 OA
BRANCH   7  10
HETATM   10  C   UNL     1     -44.639 -52.366  13.603  1.00  0.00     0.078 C 
HETATM   11  C   UNL     1     -45.374 -51.954  14.887  1.00  0.00     0.014 C 
HETATM   12  C   UNL     1     -46.742 -51.433  14.446  1.00  0.00     0.001 C 
HETATM   13  C   UNL     1     -46.732 -51.470  12.925  1.00  0.00     0.001 C 
HETATM   14  C   UNL     1     -45.756 -52.585  12.590  1.00  0.00     0.014 C 
ENDBRANCH   7  10
ENDBRANCH   1   4
BRANCH   1  15
HETATM   15  N   UNL     1     -38.311 -51.711  13.048  1.00  0.00    -0.219 NA
HETATM   16  H   UNL     1     -38.406 -51.722  12.031  1.00  0.00     0.139 HD
BRANCH  15  17
HETATM   17  C   UNL     1     -37.798 -50.352  13.440  1.00  0.00     0.110 C 
BRANCH  17  18
HETATM   18  C   UNL     1     -37.686 -49.389  12.264  1.00  0.00     0.072 C 
BRANCH  18  19
HETATM   19  C   UNL     1     -39.025 -48.927  11.752  1.00  0.00     0.010 A 
HETATM   20  C   UNL     1     -39.408 -47.603  11.962  1.00  0.00     0.025 A 
HETATM   21  C   UNL     1     -40.654 -47.181  11.514  1.00  0.00     0.003 A 
HETATM   22  C   UNL     1     -41.476 -48.086  10.855  1.00  0.00     0.017 A 
HETATM   23  C   UNL     1     -41.010 -49.376  10.664  1.00  0.00     0.088 A 
HETATM   24  N   UNL     1     -39.805 -49.815  11.090  1.00  0.00    -0.369 N 
ATOM     25  HN  UNL     1     -39.496 -50.772  10.921  1.00  0.00     0.165 HD
ENDBRANCH  18  19
ENDBRANCH  17  18
ENDBRANCH  15  17
ENDBRANCH   1  15
TORSDOF 6
ENDMDL
MODEL 2
REMARK VINA RESULT:      -5.9      2.446      3.493
REMARK  6 active torsions:
REMARK  status: ('A' for Active; 'I' for Inactive)
REMARK    1  A    between atoms: C_2  and  C_3 
REMARK       I    between atoms: C_2  and  N_8 
REMARK    2  A    between atoms: C_10  and  S_12 
REMARK    3  A    between atoms: S_12  and  N_15 
REMARK    4  A    between atoms: N_15  and  C_16 
REMARK    5  A    between atoms: C_16  and  C_17 
REMARK    6  A    between atoms: C_17  and  C_18 
ROOT
HETATM    1  S   UNL     1     -40.805 -50.327  12.219  1.00  0.00     0.216 S 
HETATM    2  O   UNL     1     -40.570 -49.760  13.529  1.00  0.00    -0.211 OA
HETATM    3  O   UNL     1     -39.932 -49.996  11.111  1.00  0.00    -0.211 OA
ENDROOT
BRANCH   1   4
HETATM    4  C   UNL     1     -40.866 -52.110  12.321  1.00  0.00     0.160 C 
HETATM    5  C   UNL     1     -42.262 -52.716  12.240  1.00  0.00     0.149 C 
HETATM    6  N   UNL     1     -42.200 -52.867  13.674  1.00  0.00    -0.349 N 
HETATM    7  C   UNL     1     -43.146 -52.845  14.663  1.00  0.00     0.224 C 
HETATM    8  C   UNL     1     -40.768 -52.635  13.762  1.00  0.00     0.149 C 
HETATM    9  O   UNL     1     -42.852 -52.900  15.856  1.00  0.00    -0.273 OA
BRANCH   7  10
HETATM   10  C   UNL     1     -44.572 -52.686  14.164  1.00  0.00     0.078 C 
HETATM   11  C   UNL     1     -45.061 -51.240  14.326  1.00  0.00     0.014 C 
HETATM   12  C   UNL     1     -46.548 -51.327  14.670  1.00  0.00     0.001 C 
HETATM   13  C   UNL     1     -46.903 -52.806  14.609  1.00  0.00     0.001 C 
HETATM   14  C   UNL     1     -45.597 -53.511  14.932  1.00  0.00     0.014 C 
ENDBRANCH   7  10
ENDBRANCH   1   4
BRANCH   1  15
HETATM   15  N   UNL     1     -42.374 -49.785  11.794  1.00  0.00    -0.219 NA
HETATM   16  H   UNL     1     -43.081 -50.354  12.264  1.00  0.00     0.139 HD
BRANCH  15  17
HETATM   17  C   UNL     1     -42.659 -48.345  12.127  1.00  0.00     0.110 C 
BRANCH  17  18
HETATM   18  C   UNL     1     -42.375 -47.393  10.972  1.00  0.00     0.072 C 
BRANCH  18  19
HETATM   19  C   UNL     1     -43.274 -47.623   9.785  1.00  0.00     0.010 A 
HETATM   20  C   UNL     1     -44.655 -47.558   9.961  1.00  0.00     0.025 A 
HETATM   21  C   UNL     1     -45.486 -47.797   8.873  1.00  0.00     0.003 A 
HETATM   22  C   UNL     1     -44.917 -48.078   7.638  1.00  0.00     0.017 A 
HETATM   23  C   UNL     1     -43.536 -48.098   7.542  1.00  0.00     0.088 A 
HETATM   24  N   UNL     1     -42.703 -47.872   8.582  1.00  0.00    -0.369 N 
ATOM     25  HN  UNL     1     -41.690 -47.888   8.467  1.00  0.00     0.165 HD
ENDBRANCH  18  19
ENDBRANCH  17  18
ENDBRANCH  15  17
ENDBRANCH   1  15
TORSDOF 6
ENDMDL
MODEL 3
REMARK VINA RESULT:      -5.7      2.361      3.339
REMARK  6 active torsions:
REMARK  status: ('A' for Active; 'I' for Inactive)
REMARK    1  A    between atoms: C_2  and  C_3 
REMARK       I    between atoms: C_2  and  N_8 
REMARK    2  A    between atoms: C_10  and  S_12 
REMARK    3  A    between atoms: S_12  and  N_15 
REMARK    4  A    between atoms: N_15  and  C_16 
REMARK    5  A    between atoms: C_16  and  C_17 
REMARK    6  A    between atoms: C_17  and  C_18 
ROOT
HETATM    1  S   UNL     1     -40.899 -49.748  12.233  1.00  0.00     0.216 S 
HETATM    2  O   UNL     1     -41.166 -49.191  13.541  1.00  0.00    -0.211 OA
HETATM    3  O   UNL     1     -39.775 -49.276  11.451  1.00  0.00    -0.211 OA
ENDROOT
BRANCH   1   4
HETATM    4  C   UNL     1     -40.751 -51.526  12.339  1.00  0.00     0.160 C 
HETATM    5  C   UNL     1     -42.059 -52.294  12.185  1.00  0.00     0.149 C 
HETATM    6  N   UNL     1     -42.056 -52.441  13.621  1.00  0.00    -0.349 N 
HETATM    7  C   UNL     1     -43.050 -52.535  14.557  1.00  0.00     0.224 C 
HETATM    8  C   UNL     1     -40.669 -52.039  13.785  1.00  0.00     0.149 C 
HETATM    9  O   UNL     1     -42.817 -52.557  15.765  1.00  0.00    -0.273 OA
BRANCH   7  10
HETATM   10  C   UNL     1     -44.456 -52.547  13.981  1.00  0.00     0.078 C 
HETATM   11  C   UNL     1     -45.099 -51.153  14.052  1.00  0.00     0.014 C 
HETATM   12  C   UNL     1     -46.585 -51.382  14.326  1.00  0.00     0.001 C 
HETATM   13  C   UNL     1     -46.783 -52.891  14.315  1.00  0.00     0.001 C 
HETATM   14  C   UNL     1     -45.431 -53.442  14.735  1.00  0.00     0.014 C 
ENDBRANCH   7  10
ENDBRANCH   1   4
BRANCH   1  15
HETATM   15  N   UNL     1     -42.313 -49.405  11.327  1.00  0.00    -0.219 NA
HETATM   16  H   UNL     1     -42.948 -50.205  11.352  1.00  0.00     0.139 HD
BRANCH  15  17
HETATM   17  C   UNL     1     -43.086 -48.200  11.792  1.00  0.00     0.110 C 
BRANCH  17  18
HETATM   18  C   UNL     1     -43.194 -47.109  10.734  1.00  0.00     0.072 C 
BRANCH  18  19
HETATM   19  C   UNL     1     -42.049 -46.131  10.776  1.00  0.00     0.010 A 
HETATM   20  C   UNL     1     -42.286 -44.833  11.228  1.00  0.00     0.025 A 
HETATM   21  C   UNL     1     -41.236 -43.922  11.242  1.00  0.00     0.003 A 
HETATM   22  C   UNL     1     -39.978 -44.334  10.823  1.00  0.00     0.017 A 
HETATM   23  C   UNL     1     -39.822 -45.648  10.415  1.00  0.00     0.088 A 
HETATM   24  N   UNL     1     -40.823 -46.555  10.387  1.00  0.00    -0.369 N 
ATOM     25  HN  UNL     1     -40.662 -47.517  10.087  1.00  0.00     0.165 HD
ENDBRANCH  18  19
ENDBRANCH  17  18
ENDBRANCH  15  17
ENDBRANCH   1  15
TORSDOF 6
ENDMDL
MODEL 4
REMARK VINA RESULT:      -5.6      2.104      3.550
REMARK  6 active torsions:
REMARK  status: ('A' for Active; 'I' for Inactive)
REMARK    1  A    between atoms: C_2  and  C_3 
REMARK       I    between atoms: C_2  and  N_8 
REMARK    2  A    between atoms: C_10  and  S_12 
REMARK    3  A    between atoms: S_12  and  N_15 
REMARK    4  A    between atoms: N_15  and  C_16 
REMARK    5  A    between atoms: C_16  and  C_17 
REMARK    6  A    between atoms: C_17  and  C_18 
ROOT
HETATM    1  S   UNL     1     -42.646 -53.056  13.019  1.00  0.00     0.216 S 
HETATM    2  O   UNL     1     -42.645 -52.311  14.260  1.00  0.00    -0.211 OA
HETATM    3  O   UNL     1     -41.776 -54.202  12.852  1.00  0.00    -0.211 OA
ENDROOT
BRANCH   1   4
HETATM    4  C   UNL     1     -44.304 -53.597  12.628  1.00  0.00     0.160 C 
HETATM    5  C   UNL     1     -45.416 -52.656  13.076  1.00  0.00     0.149 C 
HETATM    6  N   UNL     1     -45.631 -53.558  14.183  1.00  0.00    -0.349 N 
HETATM    7  C   UNL     1     -46.066 -53.379  15.468  1.00  0.00     0.224 C 
HETATM    8  C   UNL     1     -44.847 -54.641  13.616  1.00  0.00     0.149 C 
HETATM    9  O   UNL     1     -46.083 -54.294  16.290  1.00  0.00    -0.273 OA
BRANCH   7  10
HETATM   10  C   UNL     1     -46.463 -51.951  15.805  1.00  0.00     0.078 C 
HETATM   11  C   UNL     1     -45.272 -51.160  16.366  1.00  0.00     0.014 C 
HETATM   12  C   UNL     1     -45.847 -50.213  17.419  1.00  0.00     0.001 C 
HETATM   13  C   UNL     1     -47.355 -50.410  17.378  1.00  0.00     0.001 C 
HETATM   14  C   UNL     1     -47.526 -51.839  16.891  1.00  0.00     0.014 C 
ENDBRANCH   7  10
ENDBRANCH   1   4
BRANCH   1  15
HETATM   15  N   UNL     1     -42.189 -51.907  11.832  1.00  0.00    -0.219 NA
HETATM   16  H   UNL     1     -42.863 -51.909  11.065  1.00  0.00     0.139 HD
BRANCH  15  17
HETATM   17  C   UNL     1     -42.076 -50.492  12.331  1.00  0.00     0.110 C 
BRANCH  17  18
HETATM   18  C   UNL     1     -40.997 -49.687  11.616  1.00  0.00     0.072 C 
BRANCH  18  19
HETATM   19  C   UNL     1     -39.602 -50.147  11.949  1.00  0.00     0.010 A 
HETATM   20  C   UNL     1     -39.362 -50.735  13.190  1.00  0.00     0.025 A 
HETATM   21  C   UNL     1     -38.070 -51.135  13.509  1.00  0.00     0.003 A 
HETATM   22  C   UNL     1     -37.058 -50.954  12.576  1.00  0.00     0.017 A 
HETATM   23  C   UNL     1     -37.384 -50.386  11.357  1.00  0.00     0.088 A 
HETATM   24  N   UNL     1     -38.630 -49.985  11.019  1.00  0.00    -0.369 N 
ATOM     25  HN  UNL     1     -38.829 -49.579  10.106  1.00  0.00     0.165 HD
ENDBRANCH  18  19
ENDBRANCH  17  18
ENDBRANCH  15  17
ENDBRANCH   1  15
TORSDOF 6
ENDMDL
MODEL 5
REMARK VINA RESULT:      -5.6      2.199      6.949
REMARK  6 active torsions:
REMARK  status: ('A' for Active; 'I' for Inactive)
REMARK    1  A    between atoms: C_2  and  C_3 
REMARK       I    between atoms: C_2  and  N_8 
REMARK    2  A    between atoms: C_10  and  S_12 
REMARK    3  A    between atoms: S_12  and  N_15 
REMARK    4  A    between atoms: N_15  and  C_16 
REMARK    5  A    between atoms: C_16  and  C_17 
REMARK    6  A    between atoms: C_17  and  C_18 
ROOT
HETATM    1  S   UNL     1     -42.787 -53.897  14.568  1.00  0.00     0.216 S 
HETATM    2  O   UNL     1     -41.510 -54.563  14.434  1.00  0.00    -0.211 OA
HETATM    3  O   UNL     1     -43.024 -52.982  15.665  1.00  0.00    -0.211 OA
ENDROOT
BRANCH   1   4
HETATM    4  C   UNL     1     -43.187 -53.022  13.062  1.00  0.00     0.160 C 
HETATM    5  C   UNL     1     -41.987 -52.561  12.243  1.00  0.00     0.149 C 
HETATM    6  N   UNL     1     -42.211 -51.245  12.793  1.00  0.00    -0.349 N 
HETATM    7  C   UNL     1     -41.380 -50.201  13.099  1.00  0.00     0.224 C 
HETATM    8  C   UNL     1     -43.540 -51.546  13.298  1.00  0.00     0.149 C 
HETATM    9  O   UNL     1     -41.782 -49.184  13.663  1.00  0.00    -0.273 OA
BRANCH   7  10
HETATM   10  C   UNL     1     -39.922 -50.434  12.741  1.00  0.00     0.078 C 
HETATM   11  C   UNL     1     -38.988 -49.893  13.834  1.00  0.00     0.014 C 
HETATM   12  C   UNL     1     -37.753 -49.355  13.111  1.00  0.00     0.001 C 
HETATM   13  C   UNL     1     -37.958 -49.677  11.638  1.00  0.00     0.001 C 
HETATM   14  C   UNL     1     -39.468 -49.714  11.477  1.00  0.00     0.014 C 
ENDBRANCH   7  10
ENDBRANCH   1   4
BRANCH   1  15
HETATM   15  N   UNL     1     -43.918 -55.174  14.734  1.00  0.00    -0.219 NA
HETATM   16  H   UNL     1     -44.295 -55.188  15.683  1.00  0.00     0.139 HD
BRANCH  15  17
HETATM   17  C   UNL     1     -45.086 -55.113  13.786  1.00  0.00     0.110 C 
BRANCH  17  18
HETATM   18  C   UNL     1     -46.416 -54.859  14.484  1.00  0.00     0.072 C 
BRANCH  18  19
HETATM   19  C   UNL     1     -46.449 -53.550  15.229  1.00  0.00     0.010 A 
HETATM   20  C   UNL     1     -46.912 -52.411  14.572  1.00  0.00     0.025 A 
HETATM   21  C   UNL     1     -46.919 -51.198  15.248  1.00  0.00     0.003 A 
HETATM   22  C   UNL     1     -46.479 -51.156  16.565  1.00  0.00     0.017 A 
HETATM   23  C   UNL     1     -46.059 -52.338  17.153  1.00  0.00     0.088 A 
HETATM   24  N   UNL     1     -46.040 -53.531  16.520  1.00  0.00    -0.369 N 
ATOM     25  HN  UNL     1     -45.731 -54.380  16.993  1.00  0.00     0.165 HD
ENDBRANCH  18  19
ENDBRANCH  17  18
ENDBRANCH  15  17
ENDBRANCH   1  15
TORSDOF 6
ENDMDL
MODEL 6
REMARK VINA RESULT:      -5.6      1.979      5.921
REMARK  6 active torsions:
REMARK  status: ('A' for Active; 'I' for Inactive)
REMARK    1  A    between atoms: C_2  and  C_3 
REMARK       I    between atoms: C_2  and  N_8 
REMARK    2  A    between atoms: C_10  and  S_12 
REMARK    3  A    between atoms: S_12  and  N_15 
REMARK    4  A    between atoms: N_15  and  C_16 
REMARK    5  A    between atoms: C_16  and  C_17 
REMARK    6  A    between atoms: C_17  and  C_18 
ROOT
HETATM    1  S   UNL     1     -38.435 -51.567  13.342  1.00  0.00     0.216 S 
HETATM    2  O   UNL     1     -37.152 -51.544  12.674  1.00  0.00    -0.211 OA
HETATM    3  O   UNL     1     -38.781 -52.664  14.223  1.00  0.00    -0.211 OA
ENDROOT
BRANCH   1   4
HETATM    4  C   UNL     1     -38.675 -50.058  14.267  1.00  0.00     0.160 C 
HETATM    5  C   UNL     1     -40.060 -49.434  14.141  1.00  0.00     0.149 C 
HETATM    6  N   UNL     1     -39.474 -48.498  13.212  1.00  0.00    -0.349 N 
HETATM    7  C   UNL     1     -39.959 -47.828  12.122  1.00  0.00     0.224 C 
HETATM    8  C   UNL     1     -38.101 -48.820  13.561  1.00  0.00     0.149 C 
HETATM    9  O   UNL     1     -39.241 -47.138  11.400  1.00  0.00    -0.273 OA
BRANCH   7  10
HETATM   10  C   UNL     1     -41.436 -48.060  11.849  1.00  0.00     0.078 C 
HETATM   11  C   UNL     1     -41.681 -48.410  10.374  1.00  0.00     0.014 C 
HETATM   12  C   UNL     1     -43.022 -47.777  10.002  1.00  0.00     0.001 C 
HETATM   13  C   UNL     1     -43.561 -47.159  11.284  1.00  0.00     0.001 C 
HETATM   14  C   UNL     1     -42.314 -46.838  12.090  1.00  0.00     0.014 C 
ENDBRANCH   7  10
ENDBRANCH   1   4
BRANCH   1  15
HETATM   15  N   UNL     1     -39.580 -51.574  12.067  1.00  0.00    -0.219 NA
HETATM   16  H   UNL     1     -39.115 -51.777  11.180  1.00  0.00     0.139 HD
BRANCH  15  17
HETATM   17  C   UNL     1     -40.701 -52.566  12.227  1.00  0.00     0.110 C 
BRANCH  17  18
HETATM   18  C   UNL     1     -42.079 -51.918  12.249  1.00  0.00     0.072 C 
BRANCH  18  19
HETATM   19  C   UNL     1     -43.150 -52.828  12.790  1.00  0.00     0.010 A 
HETATM   20  C   UNL     1     -42.791 -53.835  13.685  1.00  0.00     0.025 A 
HETATM   21  C   UNL     1     -43.773 -54.694  14.164  1.00  0.00     0.003 A 
HETATM   22  C   UNL     1     -45.086 -54.514  13.751  1.00  0.00     0.017 A 
HETATM   23  C   UNL     1     -45.363 -53.474  12.880  1.00  0.00     0.088 A 
HETATM   24  N   UNL     1     -44.430 -52.626  12.396  1.00  0.00    -0.369 N 
ATOM     25  HN  UNL     1     -44.678 -51.866  11.762  1.00  0.00     0.165 HD
ENDBRANCH  18  19
ENDBRANCH  17  18
ENDBRANCH  15  17
ENDBRANCH   1  15
TORSDOF 6
ENDMDL
MODEL 7
REMARK VINA RESULT:      -5.5      1.917      6.863
REMARK  6 active torsions:
REMARK  status: ('A' for Active; 'I' for Inactive)
REMARK    1  A    between atoms: C_2  and  C_3 
REMARK       I    between atoms: C_2  and  N_8 
REMARK    2  A    between atoms: C_10  and  S_12 
REMARK    3  A    between atoms: S_12  and  N_15 
REMARK    4  A    between atoms: N_15  and  C_16 
REMARK    5  A    between atoms: C_16  and  C_17 
REMARK    6  A    between atoms: C_17  and  C_18 
ROOT
HETATM    1  S   UNL     1     -42.409 -53.173  14.137  1.00  0.00     0.216 S 
HETATM    2  O   UNL     1     -43.046 -54.456  14.342  1.00  0.00    -0.211 OA
HETATM    3  O   UNL     1     -42.150 -52.297  15.261  1.00  0.00    -0.211 OA
ENDROOT
BRANCH   1   4
HETATM    4  C   UNL     1     -40.860 -53.386  13.272  1.00  0.00     0.160 C 
HETATM    5  C   UNL     1     -39.734 -52.463  13.724  1.00  0.00     0.149 C 
HETATM    6  N   UNL     1     -40.013 -51.670  12.551  1.00  0.00    -0.349 N 
HETATM    7  C   UNL     1     -39.907 -50.334  12.274  1.00  0.00     0.224 C 
HETATM    8  C   UNL     1     -40.830 -52.684  11.906  1.00  0.00     0.149 C 
HETATM    9  O   UNL     1     -40.302 -49.848  11.215  1.00  0.00    -0.273 OA
BRANCH   7  10
HETATM   10  C   UNL     1     -39.322 -49.503  13.403  1.00  0.00     0.078 C 
HETATM   11  C   UNL     1     -39.906 -48.082  13.410  1.00  0.00     0.014 C 
HETATM   12  C   UNL     1     -38.775 -47.157  13.856  1.00  0.00     0.001 C 
HETATM   13  C   UNL     1     -37.598 -48.065  14.182  1.00  0.00     0.001 C 
HETATM   14  C   UNL     1     -37.817 -49.283  13.301  1.00  0.00     0.014 C 
ENDBRANCH   7  10
ENDBRANCH   1   4
BRANCH   1  15
HETATM   15  N   UNL     1     -43.471 -52.333  13.086  1.00  0.00    -0.219 NA
HETATM   16  H   UNL     1     -42.943 -51.904  12.324  1.00  0.00     0.139 HD
BRANCH  15  17
HETATM   17  C   UNL     1     -44.550 -53.180  12.467  1.00  0.00     0.110 C 
BRANCH  17  18
HETATM   18  C   UNL     1     -45.957 -52.687  12.784  1.00  0.00     0.072 C 
BRANCH  18  19
HETATM   19  C   UNL     1     -46.218 -52.563  14.262  1.00  0.00     0.010 A 
HETATM   20  C   UNL     1     -46.863 -51.423  14.741  1.00  0.00     0.025 A 
HETATM   21  C   UNL     1     -47.081 -51.295  16.107  1.00  0.00     0.003 A 
HETATM   22  C   UNL     1     -46.665 -52.312  16.956  1.00  0.00     0.017 A 
HETATM   23  C   UNL     1     -46.055 -53.423  16.397  1.00  0.00     0.088 A 
HETATM   24  N   UNL     1     -45.828 -53.575  15.074  1.00  0.00    -0.369 N 
ATOM     25  HN  UNL     1     -45.383 -54.414  14.703  1.00  0.00     0.165 HD
ENDBRANCH  18  19
ENDBRANCH  17  18
ENDBRANCH  15  17
ENDBRANCH   1  15
TORSDOF 6
ENDMDL
MODEL 8
REMARK VINA RESULT:      -5.5      2.170      6.445
REMARK  6 active torsions:
REMARK  status: ('A' for Active; 'I' for Inactive)
REMARK    1  A    between atoms: C_2  and  C_3 
REMARK       I    between atoms: C_2  and  N_8 
REMARK    2  A    between atoms: C_10  and  S_12 
REMARK    3  A    between atoms: S_12  and  N_15 
REMARK    4  A    between atoms: N_15  and  C_16 
REMARK    5  A    between atoms: C_16  and  C_17 
REMARK    6  A    between atoms: C_17  and  C_18 
ROOT
HETATM    1  S   UNL     1     -41.061 -50.436  14.072  1.00  0.00     0.216 S 
HETATM    2  O   UNL     1     -40.699 -49.540  15.149  1.00  0.00    -0.211 OA
HETATM    3  O   UNL     1     -42.404 -50.424  13.530  1.00  0.00    -0.211 OA
ENDROOT
BRANCH   1   4
HETATM    4  C   UNL     1     -39.941 -50.228  12.695  1.00  0.00     0.160 C 
HETATM    5  C   UNL     1     -39.484 -48.796  12.442  1.00  0.00     0.149 C 
HETATM    6  N   UNL     1     -40.445 -48.759  11.365  1.00  0.00    -0.349 N 
HETATM    7  C   UNL     1     -41.199 -47.758  10.815  1.00  0.00     0.224 C 
HETATM    8  C   UNL     1     -40.655 -50.196  11.335  1.00  0.00     0.149 C 
HETATM    9  O   UNL     1     -42.045 -47.973   9.948  1.00  0.00    -0.273 OA
BRANCH   7  10
HETATM   10  C   UNL     1     -40.946 -46.382  11.408  1.00  0.00     0.078 C 
HETATM   11  C   UNL     1     -42.251 -45.582  11.534  1.00  0.00     0.014 C 
HETATM   12  C   UNL     1     -41.887 -44.124  11.258  1.00  0.00     0.001 C 
HETATM   13  C   UNL     1     -40.377 -44.100  11.069  1.00  0.00     0.001 C 
HETATM   14  C   UNL     1     -40.048 -45.492  10.557  1.00  0.00     0.014 C 
ENDBRANCH   7  10
ENDBRANCH   1   4
BRANCH   1  15
HETATM   15  N   UNL     1     -40.798 -52.003  14.714  1.00  0.00    -0.219 NA
HETATM   16  H   UNL     1     -41.688 -52.493  14.818  1.00  0.00     0.139 HD
BRANCH  15  17
HETATM   17  C   UNL     1     -39.892 -52.881  13.892  1.00  0.00     0.110 C 
BRANCH  17  18
HETATM   18  C   UNL     1     -40.549 -54.186  13.460  1.00  0.00     0.072 C 
BRANCH  18  19
HETATM   19  C   UNL     1     -42.053 -54.105  13.425  1.00  0.00     0.010 A 
HETATM   20  C   UNL     1     -42.788 -54.764  14.410  1.00  0.00     0.025 A 
HETATM   21  C   UNL     1     -44.175 -54.713  14.364  1.00  0.00     0.003 A 
HETATM   22  C   UNL     1     -44.791 -53.994  13.349  1.00  0.00     0.017 A 
HETATM   23  C   UNL     1     -43.989 -53.346  12.425  1.00  0.00     0.088 A 
HETATM   24  N   UNL     1     -42.638 -53.380  12.442  1.00  0.00    -0.369 N 
ATOM     25  HN  UNL     1     -42.084 -52.881  11.747  1.00  0.00     0.165 HD
ENDBRANCH  18  19
ENDBRANCH  17  18
ENDBRANCH  15  17
ENDBRANCH   1  15
TORSDOF 6
ENDMDL
MODEL 9
REMARK VINA RESULT:      -5.5      1.741      6.296
REMARK  6 active torsions:
REMARK  status: ('A' for Active; 'I' for Inactive)
REMARK    1  A    between atoms: C_2  and  C_3 
REMARK       I    between atoms: C_2  and  N_8 
REMARK    2  A    between atoms: C_10  and  S_12 
REMARK    3  A    between atoms: S_12  and  N_15 
REMARK    4  A    between atoms: N_15  and  C_16 
REMARK    5  A    between atoms: C_16  and  C_17 
REMARK    6  A    between atoms: C_17  and  C_18 
ROOT
HETATM    1  S   UNL     1     -40.598 -53.201  13.283  1.00  0.00     0.216 S 
HETATM    2  O   UNL     1     -40.659 -52.751  11.909  1.00  0.00    -0.211 OA
HETATM    3  O   UNL     1     -40.086 -54.518  13.601  1.00  0.00    -0.211 OA
ENDROOT
BRANCH   1   4
HETATM    4  C   UNL     1     -39.679 -52.031  14.273  1.00  0.00     0.160 C 
HETATM    5  C   UNL     1     -40.210 -50.602  14.246  1.00  0.00     0.149 C 
HETATM    6  N   UNL     1     -39.143 -50.302  13.320  1.00  0.00    -0.349 N 
HETATM    7  C   UNL     1     -39.022 -49.417  12.283  1.00  0.00     0.224 C 
HETATM    8  C   UNL     1     -38.404 -51.525  13.582  1.00  0.00     0.149 C 
HETATM    9  O   UNL     1     -38.036 -49.397  11.547  1.00  0.00    -0.273 OA
BRANCH   7  10
HETATM   10  C   UNL     1     -40.228 -48.514  12.084  1.00  0.00     0.078 C 
HETATM   11  C   UNL     1     -41.236 -49.138  11.107  1.00  0.00     0.014 C 
HETATM   12  C   UNL     1     -41.840 -47.976  10.318  1.00  0.00     0.001 C 
HETATM   13  C   UNL     1     -41.241 -46.711  10.914  1.00  0.00     0.001 C 
HETATM   14  C   UNL     1     -39.897 -47.163  11.461  1.00  0.00     0.014 C 
ENDBRANCH   7  10
ENDBRANCH   1   4
BRANCH   1  15
HETATM   15  N   UNL     1     -42.225 -53.158  13.819  1.00  0.00    -0.219 NA
HETATM   16  H   UNL     1     -42.850 -52.995  13.027  1.00  0.00     0.139 HD
BRANCH  15  17
HETATM   17  C   UNL     1     -42.696 -54.405  14.518  1.00  0.00     0.110 C 
BRANCH  17  18
HETATM   18  C   UNL     1     -44.145 -54.757  14.209  1.00  0.00     0.072 C 
BRANCH  18  19
HETATM   19  C   UNL     1     -45.043 -53.549  14.140  1.00  0.00     0.010 A 
HETATM   20  C   UNL     1     -45.642 -53.085  15.310  1.00  0.00     0.025 A 
HETATM   21  C   UNL     1     -46.492 -51.988  15.244  1.00  0.00     0.003 A 
HETATM   22  C   UNL     1     -46.708 -51.374  14.017  1.00  0.00     0.017 A 
HETATM   23  C   UNL     1     -46.055 -51.882  12.907  1.00  0.00     0.088 A 
HETATM   24  N   UNL     1     -45.225 -52.948  12.940  1.00  0.00    -0.369 N 
ATOM     25  HN  UNL     1     -44.757 -53.285  12.099  1.00  0.00     0.165 HD
ENDBRANCH  18  19
ENDBRANCH  17  18
ENDBRANCH  15  17
ENDBRANCH   1  15
TORSDOF 6
ENDMDL
