MODEL 1
REMARK VINA RESULT:      -7.2      0.000      0.000
REMARK  5 active torsions:
REMARK  status: ('A' for Active; 'I' for Inactive)
REMARK    1  A    between atoms: C_7  and  C_9 
REMARK    2  A    between atoms: C_9  and  O_10 
REMARK    3  A    between atoms: C_9  and  C_11 
REMARK    4  A    between atoms: C_11  and  N_12 
REMARK    5  A    between atoms: C_15  and  C_20 
ROOT
HETATM    1  N   UNL     1     -43.319 -47.161  10.646  1.00  0.00    -0.255 N 
HETATM    2  N   UNL     1     -44.413 -47.937  10.297  1.00  0.00    -0.291 N 
ATOM      3  HN  UNL     1     -44.573 -48.845  10.735  1.00  0.00     0.187 HD
HETATM    4  C   UNL     1     -45.234 -47.474   9.394  1.00  0.00     0.132 A 
HETATM    5  C   UNL     1     -45.037 -46.172   8.711  1.00  0.00     0.041 A 
HETATM    6  C   UNL     1     -43.982 -45.440   9.066  1.00  0.00     0.078 A 
HETATM    7  C   UNL     1     -43.035 -45.915  10.094  1.00  0.00     0.262 A 
HETATM    8  O   UNL     1     -42.066 -45.217  10.372  1.00  0.00    -0.267 OA
ENDROOT
BRANCH   1   9
HETATM    9  C   UNL     1     -42.391 -47.740  11.626  1.00  0.00     0.189 C 
BRANCH   9  10
HETATM   10  C   UNL     1     -41.222 -48.534  11.004  1.00  0.00     0.171 C 
BRANCH  10  11
HETATM   11  C   UNL     1     -40.872 -49.805  11.761  1.00  0.00    -0.022 A 
HETATM   12  C   UNL     1     -39.541 -50.130  12.098  1.00  0.00    -0.053 A 
HETATM   13  C   UNL     1     -39.282 -51.313  12.811  1.00  0.00     0.008 A 
HETATM   14  C   UNL     1     -38.380 -49.246  11.728  1.00  0.00     0.049 C 
HETATM   15  C   UNL     1     -40.320 -52.152  13.219  1.00  0.00     0.007 A 
HETATM   16  C   UNL     1     -41.643 -51.828  12.922  1.00  0.00    -0.061 A 
HETATM   17  C   UNL     1     -42.782 -52.686  13.383  1.00  0.00     0.048 C 
HETATM   18  C   UNL     1     -41.903 -50.671  12.181  1.00  0.00     0.017 A 
ENDBRANCH  10  11
BRANCH  10  19
HETATM   19  O   UNL     1     -41.482 -48.826   9.623  1.00  0.00    -0.389 OA
HETATM   20  H   UNL     1     -42.339 -49.297   9.621  1.00  0.00     0.210 HD
ENDBRANCH  10  19
ENDBRANCH   9  10
ENDBRANCH   1   9
BRANCH   4  21
HETATM   21  C   UNL     1     -46.477 -48.280   9.015  1.00  0.00     0.433 C 
HETATM   22  F   UNL     1     -46.680 -49.354   9.830  1.00  0.00    -0.165 F 
HETATM   23  F   UNL     1     -47.610 -47.535   9.073  1.00  0.00    -0.165 F 
HETATM   24  F   UNL     1     -46.393 -48.775   7.749  1.00  0.00    -0.165 F 
ENDBRANCH   4  21
TORSDOF 5
ENDMDL
MODEL 2
REMARK VINA RESULT:      -7.0      4.851      6.381
REMARK  5 active torsions:
REMARK  status: ('A' for Active; 'I' for Inactive)
REMARK    1  A    between atoms: C_7  and  C_9 
REMARK    2  A    between atoms: C_9  and  O_10 
REMARK    3  A    between atoms: C_9  and  C_11 
REMARK    4  A    between atoms: C_11  and  N_12 
REMARK    5  A    between atoms: C_15  and  C_20 
ROOT
HETATM    1  N   UNL     1     -41.048 -50.582  11.905  1.00  0.00    -0.255 N 
HETATM    2  N   UNL     1     -39.682 -50.794  11.819  1.00  0.00    -0.291 N 
ATOM      3  HN  UNL     1     -39.295 -51.738  11.846  1.00  0.00     0.187 HD
HETATM    4  C   UNL     1     -38.903 -49.753  11.701  1.00  0.00     0.132 A 
HETATM    5  C   UNL     1     -39.410 -48.360  11.679  1.00  0.00     0.041 A 
HETATM    6  C   UNL     1     -40.728 -48.179  11.756  1.00  0.00     0.078 A 
HETATM    7  C   UNL     1     -41.649 -49.326  11.875  1.00  0.00     0.262 A 
HETATM    8  O   UNL     1     -42.853 -49.110  11.966  1.00  0.00    -0.267 OA
ENDROOT
BRANCH   1   9
HETATM    9  C   UNL     1     -41.886 -51.774  12.089  1.00  0.00     0.189 C 
BRANCH   9  10
HETATM   10  C   UNL     1     -41.123 -53.017  12.592  1.00  0.00     0.171 C 
BRANCH  10  11
HETATM   11  C   UNL     1     -41.925 -53.887  13.546  1.00  0.00    -0.022 A 
HETATM   12  C   UNL     1     -41.352 -54.444  14.709  1.00  0.00    -0.053 A 
HETATM   13  C   UNL     1     -42.150 -55.228  15.560  1.00  0.00     0.008 A 
HETATM   14  C   UNL     1     -39.910 -54.220  15.080  1.00  0.00     0.049 C 
HETATM   15  C   UNL     1     -43.503 -55.437  15.291  1.00  0.00     0.007 A 
HETATM   16  C   UNL     1     -44.092 -54.867  14.164  1.00  0.00    -0.061 A 
HETATM   17  C   UNL     1     -45.551 -55.038  13.871  1.00  0.00     0.048 C 
HETATM   18  C   UNL     1     -43.293 -54.116  13.294  1.00  0.00     0.017 A 
ENDBRANCH  10  11
BRANCH  10  19
HETATM   19  O   UNL     1     -40.637 -53.796  11.489  1.00  0.00    -0.389 OA
HETATM   20  H   UNL     1     -41.352 -54.435  11.295  1.00  0.00     0.210 HD
ENDBRANCH  10  19
ENDBRANCH   9  10
ENDBRANCH   1   9
BRANCH   4  21
HETATM   21  C   UNL     1     -37.393 -49.949  11.559  1.00  0.00     0.433 C 
HETATM   22  F   UNL     1     -36.943 -49.696  10.298  1.00  0.00    -0.165 F 
HETATM   23  F   UNL     1     -36.689 -49.134  12.388  1.00  0.00    -0.165 F 
HETATM   24  F   UNL     1     -37.018 -51.225  11.848  1.00  0.00    -0.165 F 
ENDBRANCH   4  21
TORSDOF 5
ENDMDL
MODEL 3
REMARK VINA RESULT:      -7.0      2.115      2.963
REMARK  5 active torsions:
REMARK  status: ('A' for Active; 'I' for Inactive)
REMARK    1  A    between atoms: C_7  and  C_9 
REMARK    2  A    between atoms: C_9  and  O_10 
REMARK    3  A    between atoms: C_9  and  C_11 
REMARK    4  A    between atoms: C_11  and  N_12 
REMARK    5  A    between atoms: C_15  and  C_20 
ROOT
HETATM    1  N   UNL     1     -43.388 -47.262  10.996  1.00  0.00    -0.255 N 
HETATM    2  N   UNL     1     -44.605 -47.821  10.639  1.00  0.00    -0.291 N 
ATOM      3  HN  UNL     1     -45.158 -48.350  11.314  1.00  0.00     0.187 HD
HETATM    4  C   UNL     1     -45.025 -47.650   9.415  1.00  0.00     0.132 A 
HETATM    5  C   UNL     1     -44.253 -46.909   8.388  1.00  0.00     0.041 A 
HETATM    6  C   UNL     1     -43.089 -46.375   8.756  1.00  0.00     0.078 A 
HETATM    7  C   UNL     1     -42.580 -46.528  10.133  1.00  0.00     0.262 A 
HETATM    8  O   UNL     1     -41.493 -46.038  10.419  1.00  0.00    -0.267 OA
ENDROOT
BRANCH   1   9
HETATM    9  C   UNL     1     -42.926 -47.521  12.366  1.00  0.00     0.189 C 
BRANCH   9  10
HETATM   10  C   UNL     1     -42.487 -48.979  12.625  1.00  0.00     0.171 C 
BRANCH  10  11
HETATM   11  C   UNL     1     -43.454 -49.765  13.495  1.00  0.00    -0.022 A 
HETATM   12  C   UNL     1     -43.402 -49.712  14.904  1.00  0.00    -0.053 A 
HETATM   13  C   UNL     1     -44.333 -50.451  15.654  1.00  0.00     0.008 A 
HETATM   14  C   UNL     1     -42.386 -48.880  15.639  1.00  0.00     0.049 C 
HETATM   15  C   UNL     1     -45.325 -51.208  15.030  1.00  0.00     0.007 A 
HETATM   16  C   UNL     1     -45.410 -51.245  13.639  1.00  0.00    -0.061 A 
HETATM   17  C   UNL     1     -46.490 -52.014  12.940  1.00  0.00     0.048 C 
HETATM   18  C   UNL     1     -44.464 -50.540  12.888  1.00  0.00     0.017 A 
ENDBRANCH  10  11
BRANCH  10  19
HETATM   19  O   UNL     1     -42.250 -49.667  11.388  1.00  0.00    -0.389 OA
HETATM   20  H   UNL     1     -43.119 -49.692  10.941  1.00  0.00     0.210 HD
ENDBRANCH  10  19
ENDBRANCH   9  10
ENDBRANCH   1   9
BRANCH   4  21
HETATM   21  C   UNL     1     -46.383 -48.214   8.994  1.00  0.00     0.433 C 
HETATM   22  F   UNL     1     -46.395 -48.659   7.706  1.00  0.00    -0.165 F 
HETATM   23  F   UNL     1     -46.765 -49.264   9.766  1.00  0.00    -0.165 F 
HETATM   24  F   UNL     1     -47.369 -47.279   9.081  1.00  0.00    -0.165 F 
ENDBRANCH   4  21
TORSDOF 5
ENDMDL
MODEL 4
REMARK VINA RESULT:      -6.8      1.830      2.886
REMARK  5 active torsions:
REMARK  status: ('A' for Active; 'I' for Inactive)
REMARK    1  A    between atoms: C_7  and  C_9 
REMARK    2  A    between atoms: C_9  and  O_10 
REMARK    3  A    between atoms: C_9  and  C_11 
REMARK    4  A    between atoms: C_11  and  N_12 
REMARK    5  A    between atoms: C_15  and  C_20 
ROOT
HETATM    1  N   UNL     1     -43.030 -47.389   9.828  1.00  0.00    -0.255 N 
HETATM    2  N   UNL     1     -44.181 -48.120   9.583  1.00  0.00    -0.291 N 
ATOM      3  HN  UNL     1     -44.206 -49.128   9.738  1.00  0.00     0.187 HD
HETATM    4  C   UNL     1     -45.234 -47.483   9.148  1.00  0.00     0.132 A 
HETATM    5  C   UNL     1     -45.247 -46.023   8.884  1.00  0.00     0.041 A 
HETATM    6  C   UNL     1     -44.131 -45.340   9.134  1.00  0.00     0.078 A 
HETATM    7  C   UNL     1     -42.920 -46.014   9.641  1.00  0.00     0.262 A 
HETATM    8  O   UNL     1     -41.909 -45.347   9.833  1.00  0.00    -0.267 OA
ENDROOT
BRANCH   1   9
HETATM    9  C   UNL     1     -41.851 -48.150  10.265  1.00  0.00     0.189 C 
BRANCH   9  10
HETATM   10  C   UNL     1     -41.897 -48.603  11.739  1.00  0.00     0.171 C 
BRANCH  10  11
HETATM   11  C   UNL     1     -40.663 -48.217  12.540  1.00  0.00    -0.022 A 
HETATM   12  C   UNL     1     -39.647 -49.149  12.841  1.00  0.00    -0.053 A 
HETATM   13  C   UNL     1     -38.524 -48.728  13.572  1.00  0.00     0.008 A 
HETATM   14  C   UNL     1     -39.719 -50.586  12.396  1.00  0.00     0.049 C 
HETATM   15  C   UNL     1     -38.381 -47.399  13.975  1.00  0.00     0.007 A 
HETATM   16  C   UNL     1     -39.360 -46.460  13.657  1.00  0.00    -0.061 A 
HETATM   17  C   UNL     1     -39.215 -45.018  14.039  1.00  0.00     0.048 C 
HETATM   18  C   UNL     1     -40.498 -46.882  12.961  1.00  0.00     0.017 A 
ENDBRANCH  10  11
BRANCH  10  19
HETATM   19  O   UNL     1     -43.085 -48.122  12.384  1.00  0.00    -0.389 OA
HETATM   20  H   UNL     1     -42.972 -48.349  13.328  1.00  0.00     0.210 HD
ENDBRANCH  10  19
ENDBRANCH   9  10
ENDBRANCH   1   9
BRANCH   4  21
HETATM   21  C   UNL     1     -46.537 -48.247   8.908  1.00  0.00     0.433 C 
HETATM   22  F   UNL     1     -46.716 -49.275   9.784  1.00  0.00    -0.165 F 
HETATM   23  F   UNL     1     -47.630 -47.448   9.026  1.00  0.00    -0.165 F 
HETATM   24  F   UNL     1     -46.580 -48.796   7.664  1.00  0.00    -0.165 F 
ENDBRANCH   4  21
TORSDOF 5
ENDMDL
MODEL 5
REMARK VINA RESULT:      -6.8      1.102      2.252
REMARK  5 active torsions:
REMARK  status: ('A' for Active; 'I' for Inactive)
REMARK    1  A    between atoms: C_7  and  C_9 
REMARK    2  A    between atoms: C_9  and  O_10 
REMARK    3  A    between atoms: C_9  and  C_11 
REMARK    4  A    between atoms: C_11  and  N_12 
REMARK    5  A    between atoms: C_15  and  C_20 
ROOT
HETATM    1  N   UNL     1     -43.148 -47.353   9.887  1.00  0.00    -0.255 N 
HETATM    2  N   UNL     1     -44.282 -48.110   9.639  1.00  0.00    -0.291 N 
ATOM      3  HN  UNL     1     -44.295 -49.112   9.829  1.00  0.00     0.187 HD
HETATM    4  C   UNL     1     -45.333 -47.505   9.157  1.00  0.00     0.132 A 
HETATM    5  C   UNL     1     -45.362 -46.055   8.843  1.00  0.00     0.041 A 
HETATM    6  C   UNL     1     -44.263 -45.346   9.096  1.00  0.00     0.078 A 
HETATM    7  C   UNL     1     -43.055 -45.983   9.655  1.00  0.00     0.262 A 
HETATM    8  O   UNL     1     -42.059 -45.294   9.850  1.00  0.00    -0.267 OA
ENDROOT
BRANCH   1   9
HETATM    9  C   UNL     1     -41.970 -48.079  10.379  1.00  0.00     0.189 C 
BRANCH   9  10
HETATM   10  C   UNL     1     -42.138 -48.685  11.788  1.00  0.00     0.171 C 
BRANCH  10  11
HETATM   11  C   UNL     1     -40.967 -49.549  12.229  1.00  0.00    -0.022 A 
HETATM   12  C   UNL     1     -41.114 -50.568  13.194  1.00  0.00    -0.053 A 
HETATM   13  C   UNL     1     -39.997 -51.343  13.549  1.00  0.00     0.008 A 
HETATM   14  C   UNL     1     -42.434 -50.865  13.854  1.00  0.00     0.049 C 
HETATM   15  C   UNL     1     -38.756 -51.144  12.942  1.00  0.00     0.007 A 
HETATM   16  C   UNL     1     -38.603 -50.162  11.963  1.00  0.00    -0.061 A 
HETATM   17  C   UNL     1     -37.295 -49.953  11.262  1.00  0.00     0.048 C 
HETATM   18  C   UNL     1     -39.703 -49.364  11.632  1.00  0.00     0.017 A 
ENDBRANCH  10  11
BRANCH  10  19
HETATM   19  O   UNL     1     -42.398 -47.659  12.757  1.00  0.00    -0.389 OA
HETATM   20  H   UNL     1     -41.700 -47.765  13.433  1.00  0.00     0.210 HD
ENDBRANCH  10  19
ENDBRANCH   9  10
ENDBRANCH   1   9
BRANCH   4  21
HETATM   21  C   UNL     1     -46.618 -48.297   8.911  1.00  0.00     0.433 C 
HETATM   22  F   UNL     1     -46.773 -49.336   9.780  1.00  0.00    -0.165 F 
HETATM   23  F   UNL     1     -47.729 -47.526   9.035  1.00  0.00    -0.165 F 
HETATM   24  F   UNL     1     -46.649 -48.838   7.663  1.00  0.00    -0.165 F 
ENDBRANCH   4  21
TORSDOF 5
ENDMDL
MODEL 6
REMARK VINA RESULT:      -6.7      1.486      2.050
REMARK  5 active torsions:
REMARK  status: ('A' for Active; 'I' for Inactive)
REMARK    1  A    between atoms: C_7  and  C_9 
REMARK    2  A    between atoms: C_9  and  O_10 
REMARK    3  A    between atoms: C_9  and  C_11 
REMARK    4  A    between atoms: C_11  and  N_12 
REMARK    5  A    between atoms: C_15  and  C_20 
ROOT
HETATM    1  N   UNL     1     -41.999 -47.872  11.386  1.00  0.00    -0.255 N 
HETATM    2  N   UNL     1     -43.162 -48.147  10.685  1.00  0.00    -0.291 N 
ATOM      3  HN  UNL     1     -43.661 -49.026  10.821  1.00  0.00     0.187 HD
HETATM    4  C   UNL     1     -43.601 -47.249   9.845  1.00  0.00     0.132 A 
HETATM    5  C   UNL     1     -42.903 -45.965   9.592  1.00  0.00     0.041 A 
HETATM    6  C   UNL     1     -41.791 -45.719  10.283  1.00  0.00     0.078 A 
HETATM    7  C   UNL     1     -41.264 -46.697  11.255  1.00  0.00     0.262 A 
HETATM    8  O   UNL     1     -40.224 -46.437  11.850  1.00  0.00    -0.267 OA
ENDROOT
BRANCH   1   9
HETATM    9  C   UNL     1     -41.508 -48.928  12.281  1.00  0.00     0.189 C 
BRANCH   9  10
HETATM   10  C   UNL     1     -40.352 -49.770  11.699  1.00  0.00     0.171 C 
BRANCH  10  11
HETATM   11  C   UNL     1     -40.072 -51.048  12.472  1.00  0.00    -0.022 A 
HETATM   12  C   UNL     1     -38.877 -51.236  13.198  1.00  0.00    -0.053 A 
HETATM   13  C   UNL     1     -38.683 -52.434  13.905  1.00  0.00     0.008 A 
HETATM   14  C   UNL     1     -37.798 -50.187  13.251  1.00  0.00     0.049 C 
HETATM   15  C   UNL     1     -39.665 -53.426  13.928  1.00  0.00     0.007 A 
HETATM   16  C   UNL     1     -40.865 -53.242  13.243  1.00  0.00    -0.061 A 
HETATM   17  C   UNL     1     -41.955 -54.270  13.284  1.00  0.00     0.048 C 
HETATM   18  C   UNL     1     -41.048 -52.066  12.508  1.00  0.00     0.017 A 
ENDBRANCH  10  11
BRANCH  10  19
HETATM   19  O   UNL     1     -40.581 -50.060  10.313  1.00  0.00    -0.389 OA
HETATM   20  H   UNL     1     -41.544 -50.217  10.242  1.00  0.00     0.210 HD
ENDBRANCH  10  19
ENDBRANCH   9  10
ENDBRANCH   1   9
BRANCH   4  21
HETATM   21  C   UNL     1     -44.905 -47.497   9.084  1.00  0.00     0.433 C 
HETATM   22  F   UNL     1     -45.547 -46.343   8.747  1.00  0.00    -0.165 F 
HETATM   23  F   UNL     1     -44.702 -48.176   7.926  1.00  0.00    -0.165 F 
HETATM   24  F   UNL     1     -45.790 -48.224   9.819  1.00  0.00    -0.165 F 
ENDBRANCH   4  21
TORSDOF 5
ENDMDL
MODEL 7
REMARK VINA RESULT:      -6.7      1.987      3.225
REMARK  5 active torsions:
REMARK  status: ('A' for Active; 'I' for Inactive)
REMARK    1  A    between atoms: C_7  and  C_9 
REMARK    2  A    between atoms: C_9  and  O_10 
REMARK    3  A    between atoms: C_9  and  C_11 
REMARK    4  A    between atoms: C_11  and  N_12 
REMARK    5  A    between atoms: C_15  and  C_20 
ROOT
HETATM    1  N   UNL     1     -42.470 -48.058  11.992  1.00  0.00    -0.255 N 
HETATM    2  N   UNL     1     -43.567 -48.191  11.155  1.00  0.00    -0.291 N 
ATOM      3  HN  UNL     1     -44.284 -48.893  11.339  1.00  0.00     0.187 HD
HETATM    4  C   UNL     1     -43.656 -47.394  10.126  1.00  0.00     0.132 A 
HETATM    5  C   UNL     1     -42.631 -46.372   9.800  1.00  0.00     0.041 A 
HETATM    6  C   UNL     1     -41.589 -46.258  10.622  1.00  0.00     0.078 A 
HETATM    7  C   UNL     1     -41.452 -47.127  11.807  1.00  0.00     0.262 A 
HETATM    8  O   UNL     1     -40.464 -47.000  12.522  1.00  0.00    -0.267 OA
ENDROOT
BRANCH   1   9
HETATM    9  C   UNL     1     -42.378 -49.009  13.108  1.00  0.00     0.189 C 
BRANCH   9  10
HETATM   10  C   UNL     1     -41.998 -50.446  12.691  1.00  0.00     0.171 C 
BRANCH  10  11
HETATM   11  C   UNL     1     -43.063 -51.481  13.014  1.00  0.00    -0.022 A 
HETATM   12  C   UNL     1     -42.773 -52.862  13.058  1.00  0.00    -0.053 A 
HETATM   13  C   UNL     1     -43.797 -53.769  13.376  1.00  0.00     0.008 A 
HETATM   14  C   UNL     1     -41.394 -53.401  12.783  1.00  0.00     0.049 C 
HETATM   15  C   UNL     1     -45.085 -53.326  13.682  1.00  0.00     0.007 A 
HETATM   16  C   UNL     1     -45.379 -51.964  13.674  1.00  0.00    -0.061 A 
HETATM   17  C   UNL     1     -46.741 -51.455  14.039  1.00  0.00     0.048 C 
HETATM   18  C   UNL     1     -44.372 -51.059  13.322  1.00  0.00     0.017 A 
ENDBRANCH  10  11
BRANCH  10  19
HETATM   19  O   UNL     1     -41.651 -50.497  11.299  1.00  0.00    -0.389 OA
HETATM   20  H   UNL     1     -41.114 -49.695  11.141  1.00  0.00     0.210 HD
ENDBRANCH  10  19
ENDBRANCH   9  10
ENDBRANCH   1   9
BRANCH   4  21
HETATM   21  C   UNL     1     -44.873 -47.480   9.204  1.00  0.00     0.433 C 
HETATM   22  F   UNL     1     -44.596 -48.091   8.017  1.00  0.00    -0.165 F 
HETATM   23  F   UNL     1     -45.894 -48.178   9.765  1.00  0.00    -0.165 F 
HETATM   24  F   UNL     1     -45.361 -46.248   8.892  1.00  0.00    -0.165 F 
ENDBRANCH   4  21
TORSDOF 5
ENDMDL
MODEL 8
REMARK VINA RESULT:      -6.6      2.927      5.781
REMARK  5 active torsions:
REMARK  status: ('A' for Active; 'I' for Inactive)
REMARK    1  A    between atoms: C_7  and  C_9 
REMARK    2  A    between atoms: C_9  and  O_10 
REMARK    3  A    between atoms: C_9  and  C_11 
REMARK    4  A    between atoms: C_11  and  N_12 
REMARK    5  A    between atoms: C_15  and  C_20 
ROOT
HETATM    1  N   UNL     1     -42.530 -51.187  12.628  1.00  0.00    -0.255 N 
HETATM    2  N   UNL     1     -43.855 -50.944  12.953  1.00  0.00    -0.291 N 
ATOM      3  HN  UNL     1     -44.191 -49.993  13.108  1.00  0.00     0.187 HD
HETATM    4  C   UNL     1     -44.662 -51.965  13.054  1.00  0.00     0.132 A 
HETATM    5  C   UNL     1     -44.222 -53.368  12.861  1.00  0.00     0.041 A 
HETATM    6  C   UNL     1     -42.946 -53.578  12.542  1.00  0.00     0.078 A 
HETATM    7  C   UNL     1     -42.000 -52.454  12.401  1.00  0.00     0.262 A 
HETATM    8  O   UNL     1     -40.829 -52.698  12.129  1.00  0.00    -0.267 OA
ENDROOT
BRANCH   1   9
HETATM    9  C   UNL     1     -41.643 -50.018  12.575  1.00  0.00     0.189 C 
BRANCH   9  10
HETATM   10  C   UNL     1     -41.478 -49.407  11.168  1.00  0.00     0.171 C 
BRANCH  10  11
HETATM   11  C   UNL     1     -41.274 -47.900  11.172  1.00  0.00    -0.022 A 
HETATM   12  C   UNL     1     -42.007 -47.045  10.323  1.00  0.00    -0.053 A 
HETATM   13  C   UNL     1     -41.783 -45.659  10.384  1.00  0.00     0.008 A 
HETATM   14  C   UNL     1     -43.035 -47.565   9.353  1.00  0.00     0.049 C 
HETATM   15  C   UNL     1     -40.874 -45.113  11.292  1.00  0.00     0.007 A 
HETATM   16  C   UNL     1     -40.166 -45.942  12.160  1.00  0.00    -0.061 A 
HETATM   17  C   UNL     1     -39.215 -45.383  13.175  1.00  0.00     0.048 C 
HETATM   18  C   UNL     1     -40.358 -47.325  12.078  1.00  0.00     0.017 A 
ENDBRANCH  10  11
BRANCH  10  19
HETATM   19  O   UNL     1     -40.417 -50.056  10.452  1.00  0.00    -0.389 OA
HETATM   20  H   UNL     1     -39.664 -49.434  10.495  1.00  0.00     0.210 HD
ENDBRANCH  10  19
ENDBRANCH   9  10
ENDBRANCH   1   9
BRANCH   4  21
HETATM   21  C   UNL     1     -46.141 -51.734  13.368  1.00  0.00     0.433 C 
HETATM   22  F   UNL     1     -46.810 -52.890  13.643  1.00  0.00    -0.165 F 
HETATM   23  F   UNL     1     -46.317 -50.924  14.443  1.00  0.00    -0.165 F 
HETATM   24  F   UNL     1     -46.796 -51.156  12.325  1.00  0.00    -0.165 F 
ENDBRANCH   4  21
TORSDOF 5
ENDMDL
MODEL 9
REMARK VINA RESULT:      -6.6      3.790      5.716
REMARK  5 active torsions:
REMARK  status: ('A' for Active; 'I' for Inactive)
REMARK    1  A    between atoms: C_7  and  C_9 
REMARK    2  A    between atoms: C_9  and  O_10 
REMARK    3  A    between atoms: C_9  and  C_11 
REMARK    4  A    between atoms: C_11  and  N_12 
REMARK    5  A    between atoms: C_15  and  C_20 
ROOT
HETATM    1  N   UNL     1     -39.758 -51.203  12.884  1.00  0.00    -0.255 N 
HETATM    2  N   UNL     1     -40.862 -50.463  12.493  1.00  0.00    -0.291 N 
ATOM      3  HN  UNL     1     -41.804 -50.742  12.768  1.00  0.00     0.187 HD
HETATM    4  C   UNL     1     -40.664 -49.399  11.763  1.00  0.00     0.132 A 
HETATM    5  C   UNL     1     -39.319 -48.962  11.316  1.00  0.00     0.041 A 
HETATM    6  C   UNL     1     -38.271 -49.684  11.710  1.00  0.00     0.078 A 
HETATM    7  C   UNL     1     -38.444 -50.887  12.548  1.00  0.00     0.262 A 
HETATM    8  O   UNL     1     -37.452 -51.533  12.867  1.00  0.00    -0.267 OA
ENDROOT
BRANCH   1   9
HETATM    9  C   UNL     1     -40.026 -52.422  13.658  1.00  0.00     0.189 C 
BRANCH   9  10
HETATM   10  C   UNL     1     -40.748 -53.533  12.867  1.00  0.00     0.171 C 
BRANCH  10  11
HETATM   11  C   UNL     1     -42.169 -53.799  13.338  1.00  0.00    -0.022 A 
HETATM   12  C   UNL     1     -42.442 -54.568  14.490  1.00  0.00    -0.053 A 
HETATM   13  C   UNL     1     -43.776 -54.766  14.883  1.00  0.00     0.008 A 
HETATM   14  C   UNL     1     -41.348 -55.179  15.324  1.00  0.00     0.049 C 
HETATM   15  C   UNL     1     -44.831 -54.189  14.174  1.00  0.00     0.007 A 
HETATM   16  C   UNL     1     -44.577 -53.400  13.053  1.00  0.00    -0.061 A 
HETATM   17  C   UNL     1     -45.685 -52.733  12.297  1.00  0.00     0.048 C 
HETATM   18  C   UNL     1     -43.252 -53.230  12.637  1.00  0.00     0.017 A 
ENDBRANCH  10  11
BRANCH  10  19
HETATM   19  O   UNL     1     -40.729 -53.251  11.460  1.00  0.00    -0.389 OA
HETATM   20  H   UNL     1     -39.843 -52.877  11.288  1.00  0.00     0.210 HD
ENDBRANCH  10  19
ENDBRANCH   9  10
ENDBRANCH   1   9
BRANCH   4  21
HETATM   21  C   UNL     1     -41.853 -48.532  11.348  1.00  0.00     0.433 C 
HETATM   22  F   UNL     1     -41.771 -47.258  11.828  1.00  0.00    -0.165 F 
HETATM   23  F   UNL     1     -41.966 -48.426   9.999  1.00  0.00    -0.165 F 
HETATM   24  F   UNL     1     -43.031 -49.035  11.806  1.00  0.00    -0.165 F 
ENDBRANCH   4  21
TORSDOF 5
ENDMDL
