MODEL 1
REMARK VINA RESULT:      -5.9      0.000      0.000
REMARK  6 active torsions:
REMARK  status: ('A' for Active; 'I' for Inactive)
REMARK    1  A    between atoms: C_2  and  N_3 
REMARK       I    between atoms: N_6  and  C_9 
REMARK    2  A    between atoms: C_9  and  C_11 
REMARK    3  A    between atoms: C_11  and  N_13 
REMARK    4  A    between atoms: N_13  and  C_14 
REMARK    5  A    between atoms: C_14  and  C_16 
REMARK    6  A    between atoms: C_16  and  N_17 
ROOT
HETATM    1  C   UNL     1     -41.075 -48.198  11.505  1.00  0.00     0.308 C 
HETATM    2  C   UNL     1     -39.780 -47.482  11.897  1.00  0.00     0.053 C 
ENDROOT
BRANCH   1   3
HETATM    3  C   UNL     1     -40.847 -49.725  11.590  1.00  0.00     0.253 C 
HETATM    4  N   UNL     1     -41.846 -50.501  12.166  1.00  0.00    -0.347 N 
HETATM    5  C   UNL     1     -43.106 -50.010  12.730  1.00  0.00     0.156 C 
HETATM    6  C   UNL     1     -41.708 -51.963  12.193  1.00  0.00     0.156 C 
HETATM    7  C   UNL     1     -43.344 -50.596  14.137  1.00  0.00     0.292 C 
HETATM    8  N   UNL     1     -43.301 -52.074  14.197  1.00  0.00     0.091 N 
HETATM    9  C   UNL     1     -42.039 -52.546  13.583  1.00  0.00     0.292 C 
HETATM   10  O   UNL     1     -39.794 -50.223  11.181  1.00  0.00    -0.271 OA
BRANCH   8  11
HETATM   11  C   UNL     1     -44.524 -52.652  13.625  1.00  0.00     0.268 C 
HETATM   12  C   UNL     1     -44.391 -54.109  13.198  1.00  0.00     0.037 C 
ENDBRANCH   8  11
ENDBRANCH   1   3
BRANCH   1  13
HETATM   13  N   UNL     1     -41.466 -47.771  10.137  1.00  0.00     0.102 N 
HETATM   14  H   UNL     1     -41.536 -48.636   9.585  1.00  0.00     0.317 HD
BRANCH  13  15
HETATM   15  C   UNL     1     -42.785 -47.095  10.049  1.00  0.00     0.237 C 
HETATM   16  C   UNL     1     -42.692 -45.613  10.442  1.00  0.00     0.044 C 
BRANCH  15  17
HETATM   17  C   UNL     1     -43.359 -47.179   8.615  1.00  0.00     0.183 C 
BRANCH  17  18
HETATM   18  N   UNL     1     -44.725 -47.662   8.543  1.00  0.00    -0.302 N 
HETATM   19  C   UNL     1     -45.711 -47.444   9.465  1.00  0.00     0.111 A 
HETATM   20  C   UNL     1     -46.806 -48.146   9.026  1.00  0.00     0.037 A 
HETATM   21  C   UNL     1     -46.373 -48.776   7.843  1.00  0.00     0.108 A 
HETATM   22  N   UNL     1     -45.102 -48.491   7.547  1.00  0.00    -0.310 N 
ATOM     23  HN  UNL     1     -44.549 -48.821   6.756  1.00  0.00     0.186 HD
ENDBRANCH  17  18
ENDBRANCH  15  17
ENDBRANCH  13  15
ENDBRANCH   1  13
TORSDOF 6
ENDMDL
MODEL 2
REMARK VINA RESULT:      -5.7      1.606      2.232
REMARK  6 active torsions:
REMARK  status: ('A' for Active; 'I' for Inactive)
REMARK    1  A    between atoms: C_2  and  N_3 
REMARK       I    between atoms: N_6  and  C_9 
REMARK    2  A    between atoms: C_9  and  C_11 
REMARK    3  A    between atoms: C_11  and  N_13 
REMARK    4  A    between atoms: N_13  and  C_14 
REMARK    5  A    between atoms: C_14  and  C_16 
REMARK    6  A    between atoms: C_16  and  N_17 
ROOT
HETATM    1  C   UNL     1     -42.021 -49.018  11.119  1.00  0.00     0.308 C 
HETATM    2  C   UNL     1     -42.969 -48.328  12.103  1.00  0.00     0.053 C 
ENDROOT
BRANCH   1   3
HETATM    3  C   UNL     1     -40.713 -49.384  11.858  1.00  0.00     0.253 C 
HETATM    4  N   UNL     1     -40.593 -50.671  12.369  1.00  0.00    -0.347 N 
HETATM    5  C   UNL     1     -41.603 -51.729  12.297  1.00  0.00     0.156 C 
HETATM    6  C   UNL     1     -39.335 -51.086  13.005  1.00  0.00     0.156 C 
HETATM    7  C   UNL     1     -41.829 -52.368  13.682  1.00  0.00     0.292 C 
HETATM    8  N   UNL     1     -40.600 -52.882  14.326  1.00  0.00     0.091 N 
HETATM    9  C   UNL     1     -39.581 -51.806  14.347  1.00  0.00     0.292 C 
HETATM   10  O   UNL     1     -39.824 -48.541  12.007  1.00  0.00    -0.271 OA
BRANCH   8  11
HETATM   11  C   UNL     1     -40.167 -54.134  13.692  1.00  0.00     0.268 C 
HETATM   12  C   UNL     1     -39.009 -54.829  14.398  1.00  0.00     0.037 C 
ENDBRANCH   8  11
ENDBRANCH   1   3
BRANCH   1  13
HETATM   13  N   UNL     1     -41.774 -48.110   9.970  1.00  0.00     0.102 N 
HETATM   14  H   UNL     1     -41.957 -48.671   9.128  1.00  0.00     0.317 HD
BRANCH  13  15
HETATM   15  C   UNL     1     -42.672 -46.929   9.905  1.00  0.00     0.237 C 
HETATM   16  C   UNL     1     -41.902 -45.617  10.116  1.00  0.00     0.044 C 
BRANCH  15  17
HETATM   17  C   UNL     1     -43.393 -46.852   8.539  1.00  0.00     0.183 C 
BRANCH  17  18
HETATM   18  N   UNL     1     -44.715 -47.447   8.523  1.00  0.00    -0.302 N 
HETATM   19  C   UNL     1     -45.714 -47.227   9.431  1.00  0.00     0.111 A 
HETATM   20  C   UNL     1     -46.749 -48.051   9.068  1.00  0.00     0.037 A 
HETATM   21  C   UNL     1     -46.270 -48.750   7.942  1.00  0.00     0.108 A 
HETATM   22  N   UNL     1     -45.027 -48.391   7.610  1.00  0.00    -0.310 N 
ATOM     23  HN  UNL     1     -44.450 -48.746   6.847  1.00  0.00     0.186 HD
ENDBRANCH  17  18
ENDBRANCH  15  17
ENDBRANCH  13  15
ENDBRANCH   1  13
TORSDOF 6
ENDMDL
MODEL 3
REMARK VINA RESULT:      -5.7      1.628      2.421
REMARK  6 active torsions:
REMARK  status: ('A' for Active; 'I' for Inactive)
REMARK    1  A    between atoms: C_2  and  N_3 
REMARK       I    between atoms: N_6  and  C_9 
REMARK    2  A    between atoms: C_9  and  C_11 
REMARK    3  A    between atoms: C_11  and  N_13 
REMARK    4  A    between atoms: N_13  and  C_14 
REMARK    5  A    between atoms: C_14  and  C_16 
REMARK    6  A    between atoms: C_16  and  N_17 
ROOT
HETATM    1  C   UNL     1     -40.751 -50.596  12.235  1.00  0.00     0.308 C 
HETATM    2  C   UNL     1     -39.226 -50.719  12.298  1.00  0.00     0.053 C 
ENDROOT
BRANCH   1   3
HETATM    3  C   UNL     1     -41.368 -52.014  12.243  1.00  0.00     0.253 C 
HETATM    4  N   UNL     1     -42.635 -52.168  12.794  1.00  0.00    -0.347 N 
HETATM    5  C   UNL     1     -43.452 -51.111  13.397  1.00  0.00     0.156 C 
HETATM    6  C   UNL     1     -43.293 -53.481  12.749  1.00  0.00     0.156 C 
HETATM    7  C   UNL     1     -43.986 -51.549  14.776  1.00  0.00     0.292 C 
HETATM    8  N   UNL     1     -44.733 -52.826  14.765  1.00  0.00     0.091 N 
HETATM    9  C   UNL     1     -43.903 -53.865  14.113  1.00  0.00     0.292 C 
HETATM   10  O   UNL     1     -40.733 -52.974  11.798  1.00  0.00    -0.271 OA
BRANCH   8  11
HETATM   11  C   UNL     1     -46.067 -52.641  14.180  1.00  0.00     0.268 C 
HETATM   12  C   UNL     1     -46.854 -51.474  14.764  1.00  0.00     0.037 C 
ENDBRANCH   8  11
ENDBRANCH   1   3
BRANCH   1  13
HETATM   13  N   UNL     1     -41.122 -49.837  11.014  1.00  0.00     0.102 N 
HETATM   14  H   UNL     1     -41.641 -50.499  10.422  1.00  0.00     0.317 HD
BRANCH  13  15
HETATM   15  C   UNL     1     -42.019 -48.677  11.249  1.00  0.00     0.237 C 
HETATM   16  C   UNL     1     -41.567 -47.845  12.459  1.00  0.00     0.044 C 
BRANCH  15  17
HETATM   17  C   UNL     1     -42.064 -47.747  10.015  1.00  0.00     0.183 C 
BRANCH  17  18
HETATM   18  N   UNL     1     -43.398 -47.341   9.617  1.00  0.00    -0.302 N 
HETATM   19  C   UNL     1     -43.725 -46.218   8.908  1.00  0.00     0.111 A 
HETATM   20  C   UNL     1     -45.095 -46.201   8.830  1.00  0.00     0.037 A 
HETATM   21  C   UNL     1     -45.506 -47.344   9.544  1.00  0.00     0.108 A 
HETATM   22  N   UNL     1     -44.475 -48.039  10.033  1.00  0.00    -0.310 N 
ATOM     23  HN  UNL     1     -44.498 -48.894  10.588  1.00  0.00     0.186 HD
ENDBRANCH  17  18
ENDBRANCH  15  17
ENDBRANCH  13  15
ENDBRANCH   1  13
TORSDOF 6
ENDMDL
MODEL 4
REMARK VINA RESULT:      -5.5      3.053      4.252
REMARK  6 active torsions:
REMARK  status: ('A' for Active; 'I' for Inactive)
REMARK    1  A    between atoms: C_2  and  N_3 
REMARK       I    between atoms: N_6  and  C_9 
REMARK    2  A    between atoms: C_9  and  C_11 
REMARK    3  A    between atoms: C_11  and  N_13 
REMARK    4  A    between atoms: N_13  and  C_14 
REMARK    5  A    between atoms: C_14  and  C_16 
REMARK    6  A    between atoms: C_16  and  N_17 
ROOT
HETATM    1  C   UNL     1     -40.609 -50.898  12.376  1.00  0.00     0.308 C 
HETATM    2  C   UNL     1     -39.198 -51.071  12.945  1.00  0.00     0.053 C 
ENDROOT
BRANCH   1   3
HETATM    3  C   UNL     1     -41.309 -52.277  12.348  1.00  0.00     0.253 C 
HETATM    4  N   UNL     1     -42.602 -52.360  12.852  1.00  0.00    -0.347 N 
HETATM    5  C   UNL     1     -43.376 -51.261  13.435  1.00  0.00     0.156 C 
HETATM    6  C   UNL     1     -43.334 -53.631  12.770  1.00  0.00     0.156 C 
HETATM    7  C   UNL     1     -43.985 -51.677  14.790  1.00  0.00     0.292 C 
HETATM    8  N   UNL     1     -44.805 -52.907  14.739  1.00  0.00     0.091 N 
HETATM    9  C   UNL     1     -44.015 -53.989  14.107  1.00  0.00     0.292 C 
HETATM   10  O   UNL     1     -40.716 -53.269  11.916  1.00  0.00    -0.271 OA
BRANCH   8  11
HETATM   11  C   UNL     1     -46.104 -52.638  14.109  1.00  0.00     0.268 C 
HETATM   12  C   UNL     1     -46.851 -51.445  14.691  1.00  0.00     0.037 C 
ENDBRANCH   8  11
ENDBRANCH   1   3
BRANCH   1  13
HETATM   13  N   UNL     1     -40.513 -50.298  11.022  1.00  0.00     0.102 N 
HETATM   14  H   UNL     1     -41.209 -50.792  10.448  1.00  0.00     0.317 HD
BRANCH  13  15
HETATM   15  C   UNL     1     -40.847 -48.852  10.955  1.00  0.00     0.237 C 
HETATM   16  C   UNL     1     -42.277 -48.576  11.441  1.00  0.00     0.044 C 
BRANCH  15  17
HETATM   17  C   UNL     1     -39.874 -48.015  11.817  1.00  0.00     0.183 C 
BRANCH  17  18
HETATM   18  N   UNL     1     -39.885 -46.594  11.527  1.00  0.00    -0.302 N 
HETATM   19  C   UNL     1     -40.091 -45.585  12.427  1.00  0.00     0.111 A 
HETATM   20  C   UNL     1     -40.092 -44.421  11.701  1.00  0.00     0.037 A 
HETATM   21  C   UNL     1     -39.904 -44.832  10.367  1.00  0.00     0.108 A 
HETATM   22  N   UNL     1     -39.784 -46.158  10.254  1.00  0.00    -0.310 N 
ATOM     23  HN  UNL     1     -39.650 -46.709   9.406  1.00  0.00     0.186 HD
ENDBRANCH  17  18
ENDBRANCH  15  17
ENDBRANCH  13  15
ENDBRANCH   1  13
TORSDOF 6
ENDMDL
MODEL 5
REMARK VINA RESULT:      -5.4      2.427      4.101
REMARK  6 active torsions:
REMARK  status: ('A' for Active; 'I' for Inactive)
REMARK    1  A    between atoms: C_2  and  N_3 
REMARK       I    between atoms: N_6  and  C_9 
REMARK    2  A    between atoms: C_9  and  C_11 
REMARK    3  A    between atoms: C_11  and  N_13 
REMARK    4  A    between atoms: N_13  and  C_14 
REMARK    5  A    between atoms: C_14  and  C_16 
REMARK    6  A    between atoms: C_16  and  N_17 
ROOT
HETATM    1  C   UNL     1     -40.270 -52.105  13.998  1.00  0.00     0.308 C 
HETATM    2  C   UNL     1     -39.403 -52.908  14.971  1.00  0.00     0.053 C 
ENDROOT
BRANCH   1   3
HETATM    3  C   UNL     1     -41.236 -53.070  13.274  1.00  0.00     0.253 C 
HETATM    4  N   UNL     1     -42.600 -52.905  13.486  1.00  0.00    -0.347 N 
HETATM    5  C   UNL     1     -43.226 -51.906  14.355  1.00  0.00     0.156 C 
HETATM    6  C   UNL     1     -43.557 -53.747  12.755  1.00  0.00     0.156 C 
HETATM    7  C   UNL     1     -44.264 -52.563  15.289  1.00  0.00     0.292 C 
HETATM    8  N   UNL     1     -45.302 -53.351  14.589  1.00  0.00     0.091 N 
HETATM    9  C   UNL     1     -44.643 -54.323  13.686  1.00  0.00     0.292 C 
HETATM   10  O   UNL     1     -40.796 -53.973  12.557  1.00  0.00    -0.271 OA
BRANCH   8  11
HETATM   11  C   UNL     1     -46.277 -52.465  13.941  1.00  0.00     0.268 C 
HETATM   12  C   UNL     1     -46.885 -51.417  14.864  1.00  0.00     0.037 C 
ENDBRANCH   8  11
ENDBRANCH   1   3
BRANCH   1  13
HETATM   13  N   UNL     1     -39.385 -51.388  13.045  1.00  0.00     0.102 N 
HETATM   14  H   UNL     1     -39.410 -51.937  12.175  1.00  0.00     0.317 HD
BRANCH  13  15
HETATM   15  C   UNL     1     -39.826 -50.013  12.698  1.00  0.00     0.237 C 
HETATM   16  C   UNL     1     -38.682 -48.997  12.835  1.00  0.00     0.044 C 
BRANCH  15  17
HETATM   17  C   UNL     1     -40.359 -49.947  11.248  1.00  0.00     0.183 C 
BRANCH  17  18
HETATM   18  N   UNL     1     -41.458 -49.021  11.053  1.00  0.00    -0.302 N 
HETATM   19  C   UNL     1     -42.460 -48.754  11.945  1.00  0.00     0.111 A 
HETATM   20  C   UNL     1     -43.312 -47.884  11.313  1.00  0.00     0.037 A 
HETATM   21  C   UNL     1     -42.752 -47.704  10.033  1.00  0.00     0.108 A 
HETATM   22  N   UNL     1     -41.625 -48.402   9.866  1.00  0.00    -0.310 N 
ATOM     23  HN  UNL     1     -41.033 -48.454   9.037  1.00  0.00     0.186 HD
ENDBRANCH  17  18
ENDBRANCH  15  17
ENDBRANCH  13  15
ENDBRANCH   1  13
TORSDOF 6
ENDMDL
MODEL 6
REMARK VINA RESULT:      -5.4      1.561      2.017
REMARK  6 active torsions:
REMARK  status: ('A' for Active; 'I' for Inactive)
REMARK    1  A    between atoms: C_2  and  N_3 
REMARK       I    between atoms: N_6  and  C_9 
REMARK    2  A    between atoms: C_9  and  C_11 
REMARK    3  A    between atoms: C_11  and  N_13 
REMARK    4  A    between atoms: N_13  and  C_14 
REMARK    5  A    between atoms: C_14  and  C_16 
REMARK    6  A    between atoms: C_16  and  N_17 
ROOT
HETATM    1  C   UNL     1     -40.609 -48.047  11.985  1.00  0.00     0.308 C 
HETATM    2  C   UNL     1     -39.581 -47.472  12.963  1.00  0.00     0.053 C 
ENDROOT
BRANCH   1   3
HETATM    3  C   UNL     1     -40.281 -49.537  11.734  1.00  0.00     0.253 C 
HETATM    4  N   UNL     1     -41.268 -50.476  12.014  1.00  0.00    -0.347 N 
HETATM    5  C   UNL     1     -42.602 -50.196  12.551  1.00  0.00     0.156 C 
HETATM    6  C   UNL     1     -41.029 -51.893  11.712  1.00  0.00     0.156 C 
HETATM    7  C   UNL     1     -42.914 -51.112  13.752  1.00  0.00     0.292 C 
HETATM    8  N   UNL     1     -42.771 -52.557  13.470  1.00  0.00     0.091 N 
HETATM    9  C   UNL     1     -41.432 -52.806  12.889  1.00  0.00     0.292 C 
HETATM   10  O   UNL     1     -39.166 -49.871  11.325  1.00  0.00    -0.271 OA
BRANCH   8  11
HETATM   11  C   UNL     1     -43.898 -53.042  12.662  1.00  0.00     0.268 C 
HETATM   12  C   UNL     1     -44.584 -54.283  13.219  1.00  0.00     0.037 C 
ENDBRANCH   8  11
ENDBRANCH   1   3
BRANCH   1  13
HETATM   13  N   UNL     1     -40.576 -47.253  10.731  1.00  0.00     0.102 N 
HETATM   14  H   UNL     1     -41.435 -47.500  10.222  1.00  0.00     0.317 HD
BRANCH  13  15
HETATM   15  C   UNL     1     -40.599 -45.780  10.924  1.00  0.00     0.237 C 
HETATM   16  C   UNL     1     -39.620 -45.067   9.980  1.00  0.00     0.044 C 
BRANCH  15  17
HETATM   17  C   UNL     1     -42.014 -45.208  10.674  1.00  0.00     0.183 C 
BRANCH  17  18
HETATM   18  N   UNL     1     -42.944 -46.145  10.075  1.00  0.00    -0.302 N 
HETATM   19  C   UNL     1     -43.148 -46.340   8.737  1.00  0.00     0.111 A 
HETATM   20  C   UNL     1     -44.164 -47.257   8.636  1.00  0.00     0.037 A 
HETATM   21  C   UNL     1     -44.525 -47.538   9.968  1.00  0.00     0.108 A 
HETATM   22  N   UNL     1     -43.789 -46.856  10.851  1.00  0.00    -0.310 N 
ATOM     23  HN  UNL     1     -43.852 -46.870  11.868  1.00  0.00     0.186 HD
ENDBRANCH  17  18
ENDBRANCH  15  17
ENDBRANCH  13  15
ENDBRANCH   1  13
TORSDOF 6
ENDMDL
MODEL 7
REMARK VINA RESULT:      -5.2      2.677      3.822
REMARK  6 active torsions:
REMARK  status: ('A' for Active; 'I' for Inactive)
REMARK    1  A    between atoms: C_2  and  N_3 
REMARK       I    between atoms: N_6  and  C_9 
REMARK    2  A    between atoms: C_9  and  C_11 
REMARK    3  A    between atoms: C_11  and  N_13 
REMARK    4  A    between atoms: N_13  and  C_14 
REMARK    5  A    between atoms: C_14  and  C_16 
REMARK    6  A    between atoms: C_16  and  N_17 
ROOT
HETATM    1  C   UNL     1     -38.544 -49.901  12.603  1.00  0.00     0.308 C 
HETATM    2  C   UNL     1     -37.387 -50.542  11.832  1.00  0.00     0.053 C 
ENDROOT
BRANCH   1   3
HETATM    3  C   UNL     1     -39.848 -50.665  12.276  1.00  0.00     0.253 C 
HETATM    4  N   UNL     1     -40.216 -51.712  13.114  1.00  0.00    -0.347 N 
HETATM    5  C   UNL     1     -39.472 -52.187  14.284  1.00  0.00     0.156 C 
HETATM    6  C   UNL     1     -41.488 -52.411  12.888  1.00  0.00     0.156 C 
HETATM    7  C   UNL     1     -39.301 -53.719  14.241  1.00  0.00     0.292 C 
HETATM    8  N   UNL     1     -40.567 -54.472  14.102  1.00  0.00     0.091 N 
HETATM    9  C   UNL     1     -41.318 -53.944  12.940  1.00  0.00     0.292 C 
HETATM   10  O   UNL     1     -40.516 -50.365  11.283  1.00  0.00    -0.271 OA
BRANCH   8  11
HETATM   11  C   UNL     1     -41.309 -54.476  15.370  1.00  0.00     0.268 C 
HETATM   12  C   UNL     1     -42.699 -55.094  15.283  1.00  0.00     0.037 C 
ENDBRANCH   8  11
ENDBRANCH   1   3
BRANCH   1  13
HETATM   13  N   UNL     1     -38.634 -48.467  12.231  1.00  0.00     0.102 N 
HETATM   14  H   UNL     1     -39.051 -48.449  11.291  1.00  0.00     0.317 HD
BRANCH  13  15
HETATM   15  C   UNL     1     -39.513 -47.649  13.106  1.00  0.00     0.237 C 
HETATM   16  C   UNL     1     -38.719 -46.969  14.232  1.00  0.00     0.044 C 
BRANCH  15  17
HETATM   17  C   UNL     1     -40.240 -46.551  12.297  1.00  0.00     0.183 C 
BRANCH  17  18
HETATM   18  N   UNL     1     -41.399 -47.016  11.560  1.00  0.00    -0.302 N 
HETATM   19  C   UNL     1     -42.650 -47.230  12.070  1.00  0.00     0.111 A 
HETATM   20  C   UNL     1     -43.401 -47.736  11.039  1.00  0.00     0.037 A 
HETATM   21  C   UNL     1     -42.508 -47.814   9.953  1.00  0.00     0.108 A 
HETATM   22  N   UNL     1     -41.283 -47.383  10.267  1.00  0.00    -0.310 N 
ATOM     23  HN  UNL     1     -40.456 -47.342   9.671  1.00  0.00     0.186 HD
ENDBRANCH  17  18
ENDBRANCH  15  17
ENDBRANCH  13  15
ENDBRANCH   1  13
TORSDOF 6
ENDMDL
MODEL 8
REMARK VINA RESULT:      -5.1      3.377      6.387
REMARK  6 active torsions:
REMARK  status: ('A' for Active; 'I' for Inactive)
REMARK    1  A    between atoms: C_2  and  N_3 
REMARK       I    between atoms: N_6  and  C_9 
REMARK    2  A    between atoms: C_9  and  C_11 
REMARK    3  A    between atoms: C_11  and  N_13 
REMARK    4  A    between atoms: N_13  and  C_14 
REMARK    5  A    between atoms: C_14  and  C_16 
REMARK    6  A    between atoms: C_16  and  N_17 
ROOT
HETATM    1  C   UNL     1     -41.568 -52.887  13.099  1.00  0.00     0.308 C 
HETATM    2  C   UNL     1     -40.932 -54.268  12.918  1.00  0.00     0.053 C 
ENDROOT
BRANCH   1   3
HETATM    3  C   UNL     1     -40.521 -51.931  13.715  1.00  0.00     0.253 C 
HETATM    4  N   UNL     1     -40.426 -50.646  13.193  1.00  0.00    -0.347 N 
HETATM    5  C   UNL     1     -41.215 -50.102  12.085  1.00  0.00     0.156 C 
HETATM    6  C   UNL     1     -39.503 -49.680  13.803  1.00  0.00     0.156 C 
HETATM    7  C   UNL     1     -40.303 -49.422  11.043  1.00  0.00     0.292 C 
HETATM    8  N   UNL     1     -39.415 -48.377  11.598  1.00  0.00     0.091 N 
HETATM    9  C   UNL     1     -38.662 -48.941  12.742  1.00  0.00     0.292 C 
HETATM   10  O   UNL     1     -39.780 -52.318  14.623  1.00  0.00    -0.271 OA
BRANCH   8  11
HETATM   11  C   UNL     1     -40.175 -47.156  11.896  1.00  0.00     0.268 C 
HETATM   12  C   UNL     1     -40.137 -46.105  10.794  1.00  0.00     0.037 C 
ENDBRANCH   8  11
ENDBRANCH   1   3
BRANCH   1  13
HETATM   13  N   UNL     1     -42.772 -53.020  13.957  1.00  0.00     0.102 N 
HETATM   14  H   UNL     1     -43.495 -52.439  13.514  1.00  0.00     0.317 HD
BRANCH  13  15
HETATM   15  C   UNL     1     -43.322 -54.396  14.051  1.00  0.00     0.237 C 
HETATM   16  C   UNL     1     -43.410 -54.875  15.508  1.00  0.00     0.044 C 
BRANCH  15  17
HETATM   17  C   UNL     1     -44.736 -54.475  13.431  1.00  0.00     0.183 C 
BRANCH  17  18
HETATM   18  N   UNL     1     -45.460 -53.219  13.425  1.00  0.00    -0.302 N 
HETATM   19  C   UNL     1     -46.109 -52.653  14.488  1.00  0.00     0.111 A 
HETATM   20  C   UNL     1     -46.712 -51.518  14.007  1.00  0.00     0.037 A 
HETATM   21  C   UNL     1     -46.390 -51.497  12.636  1.00  0.00     0.108 A 
HETATM   22  N   UNL     1     -45.633 -52.536  12.274  1.00  0.00    -0.310 N 
ATOM     23  HN  UNL     1     -45.271 -52.760  11.347  1.00  0.00     0.186 HD
ENDBRANCH  17  18
ENDBRANCH  15  17
ENDBRANCH  13  15
ENDBRANCH   1  13
TORSDOF 6
ENDMDL
MODEL 9
REMARK VINA RESULT:      -5.0      3.403      6.394
REMARK  6 active torsions:
REMARK  status: ('A' for Active; 'I' for Inactive)
REMARK    1  A    between atoms: C_2  and  N_3 
REMARK       I    between atoms: N_6  and  C_9 
REMARK    2  A    between atoms: C_9  and  C_11 
REMARK    3  A    between atoms: C_11  and  N_13 
REMARK    4  A    between atoms: N_13  and  C_14 
REMARK    5  A    between atoms: C_14  and  C_16 
REMARK    6  A    between atoms: C_16  and  N_17 
ROOT
HETATM    1  C   UNL     1     -42.706 -49.896  13.205  1.00  0.00     0.308 C 
HETATM    2  C   UNL     1     -42.825 -48.446  12.729  1.00  0.00     0.053 C 
ENDROOT
BRANCH   1   3
HETATM    3  C   UNL     1     -41.383 -50.491  12.669  1.00  0.00     0.253 C 
HETATM    4  N   UNL     1     -40.252 -50.391  13.471  1.00  0.00    -0.347 N 
HETATM    5  C   UNL     1     -40.178 -49.750  14.787  1.00  0.00     0.156 C 
HETATM    6  C   UNL     1     -38.995 -51.015  13.037  1.00  0.00     0.156 C 
HETATM    7  C   UNL     1     -38.984 -48.776  14.857  1.00  0.00     0.292 C 
HETATM    8  N   UNL     1     -37.680 -49.383  14.512  1.00  0.00     0.091 N 
HETATM    9  C   UNL     1     -37.794 -50.060  13.199  1.00  0.00     0.292 C 
HETATM   10  O   UNL     1     -41.341 -51.010  11.550  1.00  0.00    -0.271 OA
BRANCH   8  11
HETATM   11  C   UNL     1     -37.197 -50.233  15.608  1.00  0.00     0.268 C 
HETATM   12  C   UNL     1     -35.891 -49.767  16.238  1.00  0.00     0.037 C 
ENDBRANCH   8  11
ENDBRANCH   1   3
BRANCH   1  13
HETATM   13  N   UNL     1     -43.889 -50.657  12.731  1.00  0.00     0.102 N 
HETATM   14  H   UNL     1     -43.558 -51.218  11.935  1.00  0.00     0.317 HD
BRANCH  13  15
HETATM   15  C   UNL     1     -44.457 -51.607  13.721  1.00  0.00     0.237 C 
HETATM   16  C   UNL     1     -45.971 -51.412  13.894  1.00  0.00     0.044 C 
BRANCH  15  17
HETATM   17  C   UNL     1     -44.205 -53.072  13.296  1.00  0.00     0.183 C 
BRANCH  17  18
HETATM   18  N   UNL     1     -42.848 -53.535  13.511  1.00  0.00    -0.302 N 
HETATM   19  C   UNL     1     -42.165 -53.520  14.696  1.00  0.00     0.111 A 
HETATM   20  C   UNL     1     -40.901 -53.976  14.414  1.00  0.00     0.037 A 
HETATM   21  C   UNL     1     -40.911 -54.217  13.026  1.00  0.00     0.108 A 
HETATM   22  N   UNL     1     -42.093 -53.942  12.468  1.00  0.00    -0.310 N 
ATOM     23  HN  UNL     1     -42.362 -54.022  11.488  1.00  0.00     0.186 HD
ENDBRANCH  17  18
ENDBRANCH  15  17
ENDBRANCH  13  15
ENDBRANCH   1  13
TORSDOF 6
ENDMDL
