MODEL 1
REMARK VINA RESULT:      -6.8      0.000      0.000
REMARK  4 active torsions:
REMARK  status: ('A' for Active; 'I' for Inactive)
REMARK    1  A    between atoms: C_4  and  N_5 
REMARK       I    between atoms: N_5  and  C_6 
REMARK       I    between atoms: C_6  and  N_8 
REMARK    2  A    between atoms: N_8  and  C_9 
REMARK    3  A    between atoms: C_9  and  C_10 
REMARK    4  A    between atoms: C_10  and  N_11 
ROOT
HETATM    1  N   UNL     1     -41.482 -47.623  10.274  1.00  0.00    -0.293 N 
HETATM    2  C   UNL     1     -40.873 -48.619  10.979  1.00  0.00     0.321 C 
HETATM    3  O   UNL     1     -39.791 -48.408  11.522  1.00  0.00    -0.247 OA
HETATM    4  N   UNL     1     -41.527 -49.807  11.057  1.00  0.00    -0.341 N 
HETATM    5  H   UNL     1     -40.963 -46.760  10.246  1.00  0.00     0.172 HD
HETATM    6  H   UNL     1     -42.317 -49.926  10.430  1.00  0.00     0.164 HD
ENDROOT
BRANCH   4   7
HETATM    7  C   UNL     1     -40.968 -50.966  11.712  1.00  0.00     0.144 C 
BRANCH   7   8
HETATM    8  C   UNL     1     -41.480 -51.105  13.147  1.00  0.00     0.145 C 
BRANCH   8   9
HETATM    9  N   UNL     1     -42.851 -51.612  13.234  1.00  0.00    -0.351 N 
HETATM   10  C   UNL     1     -43.083 -52.927  12.637  1.00  0.00     0.126 C 
HETATM   11  C   UNL     1     -44.008 -53.825  13.438  1.00  0.00     0.020 C 
HETATM   12  C   UNL     1     -45.483 -53.603  13.129  1.00  0.00     0.002 C 
HETATM   13  C   UNL     1     -45.890 -52.148  12.907  1.00  0.00     0.009 C 
HETATM   14  C   UNL     1     -45.224 -51.184  13.869  1.00  0.00     0.103 C 
HETATM   15  C   UNL     1     -43.859 -50.678  13.439  1.00  0.00     0.219 C 
HETATM   16  O   UNL     1     -43.644 -49.464  13.403  1.00  0.00    -0.273 OA
ENDBRANCH   8   9
ENDBRANCH   7   8
ENDBRANCH   4   7
BRANCH   1  17
HETATM   17  C   UNL     1     -42.702 -47.670   9.623  1.00  0.00     0.132 A 
HETATM   18  C   UNL     1     -43.947 -47.380  10.227  1.00  0.00     0.084 A 
HETATM   19  C   UNL     1     -44.863 -47.566   9.220  1.00  0.00     0.076 A 
HETATM   20  C   UNL     1     -46.328 -47.457   9.108  1.00  0.00     0.079 C 
HETATM   21  O   UNL     1     -44.216 -47.936   8.088  1.00  0.00    -0.241 OA
HETATM   22  N   UNL     1     -42.864 -48.000   8.339  1.00  0.00    -0.245 N 
ATOM     23  HN  UNL     1     -42.131 -48.250   7.676  1.00  0.00     0.196 HD
ENDBRANCH   1  17
TORSDOF 4
ENDMDL
MODEL 2
REMARK VINA RESULT:      -6.8      1.674      2.396
REMARK  4 active torsions:
REMARK  status: ('A' for Active; 'I' for Inactive)
REMARK    1  A    between atoms: C_4  and  N_5 
REMARK       I    between atoms: N_5  and  C_6 
REMARK       I    between atoms: C_6  and  N_8 
REMARK    2  A    between atoms: N_8  and  C_9 
REMARK    3  A    between atoms: C_9  and  C_10 
REMARK    4  A    between atoms: C_10  and  N_11 
ROOT
HETATM    1  N   UNL     1     -41.950 -46.883  10.026  1.00  0.00    -0.293 N 
HETATM    2  C   UNL     1     -41.025 -47.658  10.661  1.00  0.00     0.321 C 
HETATM    3  O   UNL     1     -40.074 -47.130  11.230  1.00  0.00    -0.247 OA
HETATM    4  N   UNL     1     -41.230 -49.001  10.642  1.00  0.00    -0.341 N 
HETATM    5  H   UNL     1     -41.760 -45.895  10.070  1.00  0.00     0.172 HD
HETATM    6  H   UNL     1     -41.941 -49.338   9.998  1.00  0.00     0.164 HD
ENDROOT
BRANCH   4   7
HETATM    7  C   UNL     1     -40.296 -49.943  11.213  1.00  0.00     0.144 C 
BRANCH   7   8
HETATM    8  C   UNL     1     -40.636 -50.260  12.670  1.00  0.00     0.145 C 
BRANCH   8   9
HETATM    9  N   UNL     1     -41.237 -51.582  12.859  1.00  0.00    -0.351 N 
HETATM   10  C   UNL     1     -42.656 -51.592  13.217  1.00  0.00     0.126 C 
HETATM   11  C   UNL     1     -43.468 -52.677  12.534  1.00  0.00     0.020 C 
HETATM   12  C   UNL     1     -43.437 -54.010  13.271  1.00  0.00     0.002 C 
HETATM   13  C   UNL     1     -42.090 -54.384  13.885  1.00  0.00     0.009 C 
HETATM   14  C   UNL     1     -40.910 -54.050  12.994  1.00  0.00     0.103 C 
HETATM   15  C   UNL     1     -40.373 -52.636  13.128  1.00  0.00     0.219 C 
HETATM   16  O   UNL     1     -39.173 -52.459  13.350  1.00  0.00    -0.273 OA
ENDBRANCH   8   9
ENDBRANCH   7   8
ENDBRANCH   4   7
BRANCH   1  17
HETATM   17  C   UNL     1     -43.090 -47.298   9.360  1.00  0.00     0.132 A 
HETATM   18  C   UNL     1     -44.378 -47.369   9.938  1.00  0.00     0.084 A 
HETATM   19  C   UNL     1     -45.179 -47.837   8.924  1.00  0.00     0.076 A 
HETATM   20  C   UNL     1     -46.609 -48.161   8.789  1.00  0.00     0.079 C 
HETATM   21  O   UNL     1     -44.428 -48.028   7.811  1.00  0.00    -0.241 OA
HETATM   22  N   UNL     1     -43.122 -47.690   8.084  1.00  0.00    -0.245 N 
ATOM     23  HN  UNL     1     -42.334 -47.731   7.438  1.00  0.00     0.196 HD
ENDBRANCH   1  17
TORSDOF 4
ENDMDL
MODEL 3
REMARK VINA RESULT:      -6.8      1.403      1.968
REMARK  4 active torsions:
REMARK  status: ('A' for Active; 'I' for Inactive)
REMARK    1  A    between atoms: C_4  and  N_5 
REMARK       I    between atoms: N_5  and  C_6 
REMARK       I    between atoms: C_6  and  N_8 
REMARK    2  A    between atoms: N_8  and  C_9 
REMARK    3  A    between atoms: C_9  and  C_10 
REMARK    4  A    between atoms: C_10  and  N_11 
ROOT
HETATM    1  N   UNL     1     -41.514 -47.967  10.240  1.00  0.00    -0.293 N 
HETATM    2  C   UNL     1     -41.171 -48.882  11.191  1.00  0.00     0.321 C 
HETATM    3  O   UNL     1     -40.047 -48.858  11.684  1.00  0.00    -0.247 OA
HETATM    4  N   UNL     1     -42.127 -49.775  11.559  1.00  0.00    -0.341 N 
HETATM    5  H   UNL     1     -40.776 -47.323  10.002  1.00  0.00     0.172 HD
HETATM    6  H   UNL     1     -42.952 -49.819  10.967  1.00  0.00     0.164 HD
ENDROOT
BRANCH   4   7
HETATM    7  C   UNL     1     -41.881 -50.839  12.503  1.00  0.00     0.144 C 
BRANCH   7   8
HETATM    8  C   UNL     1     -42.981 -51.901  12.454  1.00  0.00     0.145 C 
BRANCH   8   9
HETATM    9  N   UNL     1     -44.067 -51.665  13.408  1.00  0.00    -0.351 N 
HETATM   10  C   UNL     1     -43.660 -51.425  14.792  1.00  0.00     0.126 C 
HETATM   11  C   UNL     1     -44.453 -50.343  15.501  1.00  0.00     0.020 C 
HETATM   12  C   UNL     1     -45.739 -50.855  16.138  1.00  0.00     0.002 C 
HETATM   13  C   UNL     1     -46.496 -51.902  15.324  1.00  0.00     0.009 C 
HETATM   14  C   UNL     1     -46.522 -51.605  13.838  1.00  0.00     0.103 C 
HETATM   15  C   UNL     1     -45.330 -52.120  13.051  1.00  0.00     0.219 C 
HETATM   16  O   UNL     1     -45.517 -52.822  12.054  1.00  0.00    -0.273 OA
ENDBRANCH   8   9
ENDBRANCH   7   8
ENDBRANCH   4   7
BRANCH   1  17
HETATM   17  C   UNL     1     -42.731 -47.828   9.597  1.00  0.00     0.132 A 
HETATM   18  C   UNL     1     -43.921 -47.378  10.216  1.00  0.00     0.084 A 
HETATM   19  C   UNL     1     -44.858 -47.412   9.212  1.00  0.00     0.076 A 
HETATM   20  C   UNL     1     -46.293 -47.095   9.113  1.00  0.00     0.079 C 
HETATM   21  O   UNL     1     -44.274 -47.846   8.068  1.00  0.00    -0.241 OA
HETATM   22  N   UNL     1     -42.944 -48.105   8.308  1.00  0.00    -0.245 N 
ATOM     23  HN  UNL     1     -42.256 -48.442   7.635  1.00  0.00     0.196 HD
ENDBRANCH   1  17
TORSDOF 4
ENDMDL
MODEL 4
REMARK VINA RESULT:      -6.3      2.263      3.595
REMARK  4 active torsions:
REMARK  status: ('A' for Active; 'I' for Inactive)
REMARK    1  A    between atoms: C_4  and  N_5 
REMARK       I    between atoms: N_5  and  C_6 
REMARK       I    between atoms: C_6  and  N_8 
REMARK    2  A    between atoms: N_8  and  C_9 
REMARK    3  A    between atoms: C_9  and  C_10 
REMARK    4  A    between atoms: C_10  and  N_11 
ROOT
HETATM    1  N   UNL     1     -39.816 -51.235  12.193  1.00  0.00    -0.293 N 
HETATM    2  C   UNL     1     -40.247 -52.383  12.791  1.00  0.00     0.321 C 
HETATM    3  O   UNL     1     -39.429 -53.174  13.254  1.00  0.00    -0.247 OA
HETATM    4  N   UNL     1     -41.590 -52.576  12.856  1.00  0.00    -0.341 N 
HETATM    5  H   UNL     1     -38.814 -51.133  12.172  1.00  0.00     0.172 HD
HETATM    6  H   UNL     1     -42.161 -51.955  12.290  1.00  0.00     0.164 HD
ENDROOT
BRANCH   4   7
HETATM    7  C   UNL     1     -42.182 -53.776  13.398  1.00  0.00     0.144 C 
BRANCH   7   8
HETATM    8  C   UNL     1     -43.653 -53.908  13.001  1.00  0.00     0.145 C 
BRANCH   8   9
HETATM    9  N   UNL     1     -44.535 -52.967  13.695  1.00  0.00    -0.351 N 
HETATM   10  C   UNL     1     -44.399 -52.921  15.151  1.00  0.00     0.126 C 
HETATM   11  C   UNL     1     -44.478 -51.527  15.745  1.00  0.00     0.020 C 
HETATM   12  C   UNL     1     -45.904 -51.068  16.024  1.00  0.00     0.002 C 
HETATM   13  C   UNL     1     -46.936 -51.474  14.975  1.00  0.00     0.009 C 
HETATM   14  C   UNL     1     -46.427 -51.350  13.552  1.00  0.00     0.103 C 
HETATM   15  C   UNL     1     -45.680 -52.560  13.021  1.00  0.00     0.219 C 
HETATM   16  O   UNL     1     -46.028 -53.070  11.953  1.00  0.00    -0.273 OA
ENDBRANCH   8   9
ENDBRANCH   7   8
ENDBRANCH   4   7
BRANCH   1  17
HETATM   17  C   UNL     1     -40.585 -50.226  11.643  1.00  0.00     0.132 A 
HETATM   18  C   UNL     1     -41.511 -49.435  12.363  1.00  0.00     0.084 A 
HETATM   19  C   UNL     1     -42.039 -48.588  11.420  1.00  0.00     0.076 A 
HETATM   20  C   UNL     1     -43.044 -47.511  11.430  1.00  0.00     0.079 C 
HETATM   21  O   UNL     1     -41.468 -48.845  10.217  1.00  0.00    -0.241 OA
HETATM   22  N   UNL     1     -40.559 -49.868  10.356  1.00  0.00    -0.245 N 
ATOM     23  HN  UNL     1     -39.979 -50.273   9.622  1.00  0.00     0.196 HD
ENDBRANCH   1  17
TORSDOF 4
ENDMDL
MODEL 5
REMARK VINA RESULT:      -6.0      2.729      3.711
REMARK  4 active torsions:
REMARK  status: ('A' for Active; 'I' for Inactive)
REMARK    1  A    between atoms: C_4  and  N_5 
REMARK       I    between atoms: N_5  and  C_6 
REMARK       I    between atoms: C_6  and  N_8 
REMARK    2  A    between atoms: N_8  and  C_9 
REMARK    3  A    between atoms: C_9  and  C_10 
REMARK    4  A    between atoms: C_10  and  N_11 
ROOT
HETATM    1  N   UNL     1     -38.260 -50.145  11.513  1.00  0.00    -0.293 N 
HETATM    2  C   UNL     1     -38.070 -51.076  12.491  1.00  0.00     0.321 C 
HETATM    3  O   UNL     1     -36.984 -51.643  12.592  1.00  0.00    -0.247 OA
HETATM    4  N   UNL     1     -39.113 -51.312  13.329  1.00  0.00    -0.341 N 
HETATM    5  H   UNL     1     -37.458 -50.001  10.920  1.00  0.00     0.172 HD
HETATM    6  H   UNL     1     -40.010 -50.925  13.048  1.00  0.00     0.164 HD
ENDROOT
BRANCH   4   7
HETATM    7  C   UNL     1     -39.074 -52.319  14.363  1.00  0.00     0.144 C 
BRANCH   7   8
HETATM    8  C   UNL     1     -39.658 -53.647  13.879  1.00  0.00     0.145 C 
BRANCH   8   9
HETATM    9  N   UNL     1     -41.120 -53.650  13.793  1.00  0.00    -0.351 N 
HETATM   10  C   UNL     1     -41.808 -54.607  14.659  1.00  0.00     0.126 C 
HETATM   11  C   UNL     1     -43.073 -54.073  15.305  1.00  0.00     0.020 C 
HETATM   12  C   UNL     1     -44.309 -54.224  14.427  1.00  0.00     0.002 C 
HETATM   13  C   UNL     1     -44.085 -53.971  12.938  1.00  0.00     0.009 C 
HETATM   14  C   UNL     1     -43.169 -52.795  12.659  1.00  0.00     0.103 C 
HETATM   15  C   UNL     1     -41.686 -53.118  12.641  1.00  0.00     0.219 C 
HETATM   16  O   UNL     1     -41.004 -52.792  11.666  1.00  0.00    -0.273 OA
ENDBRANCH   8   9
ENDBRANCH   7   8
ENDBRANCH   4   7
BRANCH   1  17
HETATM   17  C   UNL     1     -39.396 -49.395  11.267  1.00  0.00     0.132 A 
HETATM   18  C   UNL     1     -39.620 -48.089  11.760  1.00  0.00     0.084 A 
HETATM   19  C   UNL     1     -40.863 -47.754  11.278  1.00  0.00     0.076 A 
HETATM   20  C   UNL     1     -41.740 -46.576  11.383  1.00  0.00     0.079 C 
HETATM   21  O   UNL     1     -41.350 -48.783  10.542  1.00  0.00    -0.241 OA
HETATM   22  N   UNL     1     -40.433 -49.809  10.534  1.00  0.00    -0.245 N 
ATOM     23  HN  UNL     1     -40.527 -50.708  10.062  1.00  0.00     0.196 HD
ENDBRANCH   1  17
TORSDOF 4
ENDMDL
MODEL 6
REMARK VINA RESULT:      -5.9      2.756      6.385
REMARK  4 active torsions:
REMARK  status: ('A' for Active; 'I' for Inactive)
REMARK    1  A    between atoms: C_4  and  N_5 
REMARK       I    between atoms: N_5  and  C_6 
REMARK       I    between atoms: C_6  and  N_8 
REMARK    2  A    between atoms: N_8  and  C_9 
REMARK    3  A    between atoms: C_9  and  C_10 
REMARK    4  A    between atoms: C_10  and  N_11 
ROOT
HETATM    1  N   UNL     1     -41.773 -52.436  12.655  1.00  0.00    -0.293 N 
HETATM    2  C   UNL     1     -40.962 -51.468  12.139  1.00  0.00     0.321 C 
HETATM    3  O   UNL     1     -39.742 -51.605  12.185  1.00  0.00    -0.247 OA
HETATM    4  N   UNL     1     -41.570 -50.392  11.574  1.00  0.00    -0.341 N 
HETATM    5  H   UNL     1     -41.279 -53.215  13.059  1.00  0.00     0.172 HD
HETATM    6  H   UNL     1     -42.566 -50.297  11.749  1.00  0.00     0.164 HD
ENDROOT
BRANCH   4   7
HETATM    7  C   UNL     1     -40.836 -49.264  11.053  1.00  0.00     0.144 C 
BRANCH   7   8
HETATM    8  C   UNL     1     -41.673 -47.984  11.082  1.00  0.00     0.145 C 
BRANCH   8   9
HETATM    9  N   UNL     1     -40.929 -46.806  11.531  1.00  0.00    -0.351 N 
HETATM   10  C   UNL     1     -40.625 -46.750  12.961  1.00  0.00     0.126 C 
HETATM   11  C   UNL     1     -39.238 -46.229  13.287  1.00  0.00     0.020 C 
HETATM   12  C   UNL     1     -39.169 -44.710  13.378  1.00  0.00     0.002 C 
HETATM   13  C   UNL     1     -40.008 -43.957  12.348  1.00  0.00     0.009 C 
HETATM   14  C   UNL     1     -39.962 -44.578  10.966  1.00  0.00     0.103 C 
HETATM   15  C   UNL     1     -40.974 -45.682  10.716  1.00  0.00     0.219 C 
HETATM   16  O   UNL     1     -41.719 -45.613   9.735  1.00  0.00    -0.273 OA
ENDBRANCH   8   9
ENDBRANCH   7   8
ENDBRANCH   4   7
BRANCH   1  17
HETATM   17  C   UNL     1     -43.156 -52.464  12.670  1.00  0.00     0.132 A 
HETATM   18  C   UNL     1     -43.968 -51.651  13.494  1.00  0.00     0.084 A 
HETATM   19  C   UNL     1     -45.252 -52.026  13.181  1.00  0.00     0.076 A 
HETATM   20  C   UNL     1     -46.595 -51.627  13.633  1.00  0.00     0.079 C 
HETATM   21  O   UNL     1     -45.217 -52.993  12.231  1.00  0.00    -0.241 OA
HETATM   22  N   UNL     1     -43.906 -53.266  11.911  1.00  0.00    -0.245 N 
ATOM     23  HN  UNL     1     -43.574 -53.946  11.228  1.00  0.00     0.196 HD
ENDBRANCH   1  17
TORSDOF 4
ENDMDL
MODEL 7
REMARK VINA RESULT:      -5.6      3.588      5.002
REMARK  4 active torsions:
REMARK  status: ('A' for Active; 'I' for Inactive)
REMARK    1  A    between atoms: C_4  and  N_5 
REMARK       I    between atoms: N_5  and  C_6 
REMARK       I    between atoms: C_6  and  N_8 
REMARK    2  A    between atoms: N_8  and  C_9 
REMARK    3  A    between atoms: C_9  and  C_10 
REMARK    4  A    between atoms: C_10  and  N_11 
ROOT
HETATM    1  N   UNL     1     -40.733 -51.033  11.578  1.00  0.00    -0.293 N 
HETATM    2  C   UNL     1     -41.263 -52.189  12.070  1.00  0.00     0.321 C 
HETATM    3  O   UNL     1     -42.258 -52.678  11.542  1.00  0.00    -0.247 OA
HETATM    4  N   UNL     1     -40.629 -52.755  13.131  1.00  0.00    -0.341 N 
HETATM    5  H   UNL     1     -41.233 -50.653  10.791  1.00  0.00     0.172 HD
HETATM    6  H   UNL     1     -39.932 -52.180  13.596  1.00  0.00     0.164 HD
ENDROOT
BRANCH   4   7
HETATM    7  C   UNL     1     -41.120 -53.939  13.794  1.00  0.00     0.144 C 
BRANCH   7   8
HETATM    8  C   UNL     1     -42.012 -53.589  14.986  1.00  0.00     0.145 C 
BRANCH   8   9
HETATM    9  N   UNL     1     -43.421 -53.409  14.632  1.00  0.00    -0.351 N 
HETATM   10  C   UNL     1     -43.951 -52.054  14.793  1.00  0.00     0.126 C 
HETATM   11  C   UNL     1     -44.887 -51.611  13.684  1.00  0.00     0.020 C 
HETATM   12  C   UNL     1     -46.334 -52.030  13.911  1.00  0.00     0.002 C 
HETATM   13  C   UNL     1     -46.522 -53.421  14.513  1.00  0.00     0.009 C 
HETATM   14  C   UNL     1     -45.576 -54.457  13.940  1.00  0.00     0.103 C 
HETATM   15  C   UNL     1     -44.220 -54.545  14.620  1.00  0.00     0.219 C 
HETATM   16  O   UNL     1     -43.815 -55.636  15.030  1.00  0.00    -0.273 OA
ENDBRANCH   8   9
ENDBRANCH   7   8
ENDBRANCH   4   7
BRANCH   1  17
HETATM   17  C   UNL     1     -39.612 -50.357  12.025  1.00  0.00     0.132 A 
HETATM   18  C   UNL     1     -39.589 -49.484  13.138  1.00  0.00     0.084 A 
HETATM   19  C   UNL     1     -38.290 -49.043  13.196  1.00  0.00     0.076 A 
HETATM   20  C   UNL     1     -37.536 -48.127  14.069  1.00  0.00     0.079 C 
HETATM   21  O   UNL     1     -37.578 -49.613  12.193  1.00  0.00    -0.241 OA
HETATM   22  N   UNL     1     -38.404 -50.435  11.461  1.00  0.00    -0.245 N 
ATOM     23  HN  UNL     1     -38.145 -50.994  10.649  1.00  0.00     0.196 HD
ENDBRANCH   1  17
TORSDOF 4
ENDMDL
MODEL 8
REMARK VINA RESULT:      -5.6      2.141      3.802
REMARK  4 active torsions:
REMARK  status: ('A' for Active; 'I' for Inactive)
REMARK    1  A    between atoms: C_4  and  N_5 
REMARK       I    between atoms: N_5  and  C_6 
REMARK       I    between atoms: C_6  and  N_8 
REMARK    2  A    between atoms: N_8  and  C_9 
REMARK    3  A    between atoms: C_9  and  C_10 
REMARK    4  A    between atoms: C_10  and  N_11 
ROOT
HETATM    1  N   UNL     1     -43.069 -49.130  13.481  1.00  0.00    -0.293 N 
HETATM    2  C   UNL     1     -43.848 -50.194  13.826  1.00  0.00     0.321 C 
HETATM    3  O   UNL     1     -43.965 -50.507  15.008  1.00  0.00    -0.247 OA
HETATM    4  N   UNL     1     -44.479 -50.849  12.816  1.00  0.00    -0.341 N 
HETATM    5  H   UNL     1     -42.625 -48.673  14.262  1.00  0.00     0.172 HD
HETATM    6  H   UNL     1     -44.173 -50.621  11.874  1.00  0.00     0.164 HD
ENDROOT
BRANCH   4   7
HETATM    7  C   UNL     1     -45.278 -52.032  13.030  1.00  0.00     0.144 C 
BRANCH   7   8
HETATM    8  C   UNL     1     -44.586 -53.285  12.491  1.00  0.00     0.145 C 
BRANCH   8   9
HETATM    9  N   UNL     1     -43.421 -53.696  13.276  1.00  0.00    -0.351 N 
HETATM   10  C   UNL     1     -43.686 -54.056  14.669  1.00  0.00     0.126 C 
HETATM   11  C   UNL     1     -42.908 -55.260  15.166  1.00  0.00     0.020 C 
HETATM   12  C   UNL     1     -41.520 -54.910  15.689  1.00  0.00     0.002 C 
HETATM   13  C   UNL     1     -40.778 -53.836  14.897  1.00  0.00     0.009 C 
HETATM   14  C   UNL     1     -40.945 -53.972  13.396  1.00  0.00     0.103 C 
HETATM   15  C   UNL     1     -42.174 -53.294  12.816  1.00  0.00     0.219 C 
HETATM   16  O   UNL     1     -42.045 -52.503  11.877  1.00  0.00    -0.273 OA
ENDBRANCH   8   9
ENDBRANCH   7   8
ENDBRANCH   4   7
BRANCH   1  17
HETATM   17  C   UNL     1     -42.841 -48.621  12.215  1.00  0.00     0.132 A 
HETATM   18  C   UNL     1     -43.382 -47.410  11.724  1.00  0.00     0.084 A 
HETATM   19  C   UNL     1     -42.903 -47.320  10.440  1.00  0.00     0.076 A 
HETATM   20  C   UNL     1     -43.045 -46.353   9.338  1.00  0.00     0.079 C 
HETATM   21  O   UNL     1     -42.123 -48.397  10.176  1.00  0.00    -0.241 OA
HETATM   22  N   UNL     1     -42.084 -49.211  11.286  1.00  0.00    -0.245 N 
ATOM     23  HN  UNL     1     -41.576 -50.090  11.380  1.00  0.00     0.196 HD
ENDBRANCH   1  17
TORSDOF 4
ENDMDL
MODEL 9
REMARK VINA RESULT:      -5.4      1.703      2.328
REMARK  4 active torsions:
REMARK  status: ('A' for Active; 'I' for Inactive)
REMARK    1  A    between atoms: C_4  and  N_5 
REMARK       I    between atoms: N_5  and  C_6 
REMARK       I    between atoms: C_6  and  N_8 
REMARK    2  A    between atoms: N_8  and  C_9 
REMARK    3  A    between atoms: C_9  and  C_10 
REMARK    4  A    between atoms: C_10  and  N_11 
ROOT
HETATM    1  N   UNL     1     -40.405 -47.768  11.559  1.00  0.00    -0.293 N 
HETATM    2  C   UNL     1     -40.474 -48.445  12.741  1.00  0.00     0.321 C 
HETATM    3  O   UNL     1     -39.478 -48.527  13.456  1.00  0.00    -0.247 OA
HETATM    4  N   UNL     1     -41.676 -48.984  13.073  1.00  0.00    -0.341 N 
HETATM    5  H   UNL     1     -39.497 -47.382  11.356  1.00  0.00     0.172 HD
HETATM    6  H   UNL     1     -42.375 -49.010  12.336  1.00  0.00     0.164 HD
ENDROOT
BRANCH   4   7
HETATM    7  C   UNL     1     -41.873 -49.783  14.259  1.00  0.00     0.144 C 
BRANCH   7   8
HETATM    8  C   UNL     1     -41.756 -51.278  13.957  1.00  0.00     0.145 C 
BRANCH   8   9
HETATM    9  N   UNL     1     -43.036 -51.915  13.642  1.00  0.00    -0.351 N 
HETATM   10  C   UNL     1     -44.224 -51.270  14.201  1.00  0.00     0.126 C 
HETATM   11  C   UNL     1     -45.415 -51.227  13.261  1.00  0.00     0.020 C 
HETATM   12  C   UNL     1     -46.272 -52.487  13.312  1.00  0.00     0.002 C 
HETATM   13  C   UNL     1     -45.498 -53.795  13.451  1.00  0.00     0.009 C 
HETATM   14  C   UNL     1     -44.238 -53.841  12.609  1.00  0.00     0.103 C 
HETATM   15  C   UNL     1     -42.999 -53.251  13.261  1.00  0.00     0.219 C 
HETATM   16  O   UNL     1     -41.967 -53.923  13.324  1.00  0.00    -0.273 OA
ENDBRANCH   8   9
ENDBRANCH   7   8
ENDBRANCH   4   7
BRANCH   1  17
HETATM   17  C   UNL     1     -41.421 -47.553  10.645  1.00  0.00     0.132 A 
HETATM   18  C   UNL     1     -42.233 -46.395  10.602  1.00  0.00     0.084 A 
HETATM   19  C   UNL     1     -43.096 -46.626   9.558  1.00  0.00     0.076 A 
HETATM   20  C   UNL     1     -44.205 -45.881   8.937  1.00  0.00     0.079 C 
HETATM   21  O   UNL     1     -42.822 -47.834   9.008  1.00  0.00    -0.241 OA
HETATM   22  N   UNL     1     -41.774 -48.413   9.687  1.00  0.00    -0.245 N 
ATOM     23  HN  UNL     1     -41.350 -49.321   9.496  1.00  0.00     0.196 HD
ENDBRANCH   1  17
TORSDOF 4
ENDMDL
