MODEL 1
REMARK VINA RESULT:      -6.7      0.000      0.000
REMARK  6 active torsions:
REMARK  status: ('A' for Active; 'I' for Inactive)
REMARK    1  A    between atoms: O_2  and  C_3 
REMARK    2  A    between atoms: C_6  and  O_7 
REMARK    3  A    between atoms: C_9  and  C_11 
REMARK    4  A    between atoms: C_11  and  O_12 
REMARK    5  A    between atoms: C_11  and  C_13 
REMARK    6  A    between atoms: C_13  and  N_14 
ROOT
HETATM    1  C   UNL     1     -40.519 -53.245  12.931  1.00  0.00     0.172 C 
ENDROOT
BRANCH   1   2
HETATM    2  C   UNL     1     -41.878 -53.793  13.362  1.00  0.00     0.008 A 
HETATM    3  C   UNL     1     -42.037 -54.559  14.534  1.00  0.00     0.077 A 
HETATM    4  C   UNL     1     -43.311 -54.982  14.926  1.00  0.00     0.040 A 
HETATM    5  C   UNL     1     -44.441 -54.636  14.178  1.00  0.00     0.039 A 
HETATM    6  C   UNL     1     -44.308 -53.871  13.024  1.00  0.00     0.069 A 
HETATM    7  C   UNL     1     -43.031 -53.455  12.621  1.00  0.00     0.049 A 
BRANCH   3   8
HETATM    8  O   UNL     1     -40.892 -54.792  15.252  1.00  0.00    -0.355 OA
HETATM    9  C   UNL     1     -40.841 -54.304  16.587  1.00  0.00     0.210 C 
ENDBRANCH   3   8
BRANCH   6  10
HETATM   10  O   UNL     1     -45.341 -53.429  12.243  1.00  0.00    -0.356 OA
HETATM   11  C   UNL     1     -46.157 -52.394  12.784  1.00  0.00     0.210 C 
ENDBRANCH   6  10
ENDBRANCH   1   2
BRANCH   1  12
HETATM   12  O   UNL     1     -40.555 -53.049  11.513  1.00  0.00    -0.389 OA
HETATM   13  H   UNL     1     -39.634 -52.917  11.226  1.00  0.00     0.210 HD
ENDBRANCH   1  12
BRANCH   1  14
HETATM   14  C   UNL     1     -40.100 -51.941  13.641  1.00  0.00     0.167 C 
BRANCH  14  15
HETATM   15  N   UNL     1     -40.018 -50.793  12.743  1.00  0.00    -0.332 N 
HETATM   16  C   UNL     1     -38.906 -50.358  12.044  1.00  0.00     0.080 A 
HETATM   17  C   UNL     1     -37.538 -50.929  12.136  1.00  0.00     0.089 C 
HETATM   18  N   UNL     1     -39.215 -49.346  11.255  1.00  0.00    -0.344 N 
HETATM   19  C   UNL     1     -40.546 -49.105  11.449  1.00  0.00     0.060 A 
ATOM     20  HN  UNL     1     -38.587 -48.844  10.627  1.00  0.00     0.167 HD
HETATM   21  C   UNL     1     -41.367 -48.140  10.854  1.00  0.00     0.032 A 
HETATM   22  C   UNL     1     -41.082 -49.995  12.377  1.00  0.00     0.062 A 
HETATM   23  C   UNL     1     -42.718 -48.096  11.207  1.00  0.00     0.002 A 
HETATM   24  C   UNL     1     -43.239 -48.993  12.139  1.00  0.00     0.002 A 
HETATM   25  C   UNL     1     -42.433 -49.965  12.747  1.00  0.00     0.032 A 
ENDBRANCH  14  15
ENDBRANCH   1  14
TORSDOF 6
ENDMDL
MODEL 2
REMARK VINA RESULT:      -6.5      2.407      3.875
REMARK  6 active torsions:
REMARK  status: ('A' for Active; 'I' for Inactive)
REMARK    1  A    between atoms: O_2  and  C_3 
REMARK    2  A    between atoms: C_6  and  O_7 
REMARK    3  A    between atoms: C_9  and  C_11 
REMARK    4  A    between atoms: C_11  and  O_12 
REMARK    5  A    between atoms: C_11  and  C_13 
REMARK    6  A    between atoms: C_13  and  N_14 
ROOT
HETATM    1  C   UNL     1     -40.909 -50.009  11.746  1.00  0.00     0.172 C 
ENDROOT
BRANCH   1   2
HETATM    2  C   UNL     1     -41.309 -51.399  12.237  1.00  0.00     0.008 A 
HETATM    3  C   UNL     1     -40.353 -52.349  12.651  1.00  0.00     0.077 A 
HETATM    4  C   UNL     1     -40.768 -53.584  13.158  1.00  0.00     0.040 A 
HETATM    5  C   UNL     1     -42.129 -53.885  13.282  1.00  0.00     0.039 A 
HETATM    6  C   UNL     1     -43.089 -52.958  12.890  1.00  0.00     0.069 A 
HETATM    7  C   UNL     1     -42.677 -51.724  12.369  1.00  0.00     0.049 A 
BRANCH   3   8
HETATM    8  O   UNL     1     -39.044 -51.949  12.569  1.00  0.00    -0.355 OA
HETATM    9  C   UNL     1     -38.377 -51.623  13.783  1.00  0.00     0.210 C 
ENDBRANCH   3   8
BRANCH   6  10
HETATM   10  O   UNL     1     -44.442 -53.120  13.011  1.00  0.00    -0.356 OA
HETATM   11  C   UNL     1     -44.904 -54.424  13.350  1.00  0.00     0.210 C 
ENDBRANCH   6  10
ENDBRANCH   1   2
BRANCH   1  12
HETATM   12  O   UNL     1     -40.434 -50.140  10.401  1.00  0.00    -0.389 OA
HETATM   13  H   UNL     1     -41.161 -49.853   9.819  1.00  0.00     0.210 HD
ENDBRANCH   1  12
BRANCH   1  14
HETATM   14  C   UNL     1     -42.034 -48.956  11.816  1.00  0.00     0.167 C 
BRANCH  14  15
HETATM   15  N   UNL     1     -41.654 -47.663  11.255  1.00  0.00    -0.332 N 
HETATM   16  C   UNL     1     -42.140 -47.080  10.099  1.00  0.00     0.080 A 
HETATM   17  C   UNL     1     -43.093 -47.699   9.142  1.00  0.00     0.089 C 
HETATM   18  N   UNL     1     -41.644 -45.866   9.943  1.00  0.00    -0.344 N 
HETATM   19  C   UNL     1     -40.812 -45.656  11.006  1.00  0.00     0.060 A 
ATOM     20  HN  UNL     1     -41.843 -45.216   9.182  1.00  0.00     0.167 HD
HETATM   21  C   UNL     1     -40.043 -44.529  11.317  1.00  0.00     0.032 A 
HETATM   22  C   UNL     1     -40.794 -46.764  11.850  1.00  0.00     0.062 A 
HETATM   23  C   UNL     1     -39.270 -44.543  12.482  1.00  0.00     0.002 A 
HETATM   24  C   UNL     1     -39.262 -45.661  13.316  1.00  0.00     0.002 A 
HETATM   25  C   UNL     1     -40.024 -46.798  13.020  1.00  0.00     0.032 A 
ENDBRANCH  14  15
ENDBRANCH   1  14
TORSDOF 6
ENDMDL
MODEL 3
REMARK VINA RESULT:      -6.4      1.535      2.875
REMARK  6 active torsions:
REMARK  status: ('A' for Active; 'I' for Inactive)
REMARK    1  A    between atoms: O_2  and  C_3 
REMARK    2  A    between atoms: C_6  and  O_7 
REMARK    3  A    between atoms: C_9  and  C_11 
REMARK    4  A    between atoms: C_11  and  O_12 
REMARK    5  A    between atoms: C_11  and  C_13 
REMARK    6  A    between atoms: C_13  and  N_14 
ROOT
HETATM    1  C   UNL     1     -41.127 -52.727  12.592  1.00  0.00     0.172 C 
ENDROOT
BRANCH   1   2
HETATM    2  C   UNL     1     -42.394 -53.443  13.056  1.00  0.00     0.008 A 
HETATM    3  C   UNL     1     -42.380 -54.374  14.115  1.00  0.00     0.077 A 
HETATM    4  C   UNL     1     -43.576 -54.954  14.551  1.00  0.00     0.040 A 
HETATM    5  C   UNL     1     -44.796 -54.606  13.963  1.00  0.00     0.039 A 
HETATM    6  C   UNL     1     -44.833 -53.681  12.924  1.00  0.00     0.069 A 
HETATM    7  C   UNL     1     -43.636 -53.107  12.475  1.00  0.00     0.049 A 
BRANCH   3   8
HETATM    8  O   UNL     1     -41.156 -54.605  14.689  1.00  0.00    -0.355 OA
HETATM    9  C   UNL     1     -41.129 -54.942  16.070  1.00  0.00     0.210 C 
ENDBRANCH   3   8
BRANCH   6  10
HETATM   10  O   UNL     1     -45.967 -53.226  12.309  1.00  0.00    -0.356 OA
HETATM   11  C   UNL     1     -46.430 -51.934  12.691  1.00  0.00     0.210 C 
ENDBRANCH   6  10
ENDBRANCH   1   2
BRANCH   1  12
HETATM   12  O   UNL     1     -40.450 -53.589  11.669  1.00  0.00    -0.389 OA
HETATM   13  H   UNL     1     -40.730 -53.316  10.777  1.00  0.00     0.210 HD
ENDBRANCH   1  12
BRANCH   1  14
HETATM   14  C   UNL     1     -41.370 -51.344  11.954  1.00  0.00     0.167 C 
BRANCH  14  15
HETATM   15  N   UNL     1     -41.067 -50.231  12.849  1.00  0.00    -0.332 N 
HETATM   16  C   UNL     1     -41.953 -49.552  13.665  1.00  0.00     0.080 A 
HETATM   17  C   UNL     1     -43.421 -49.766  13.728  1.00  0.00     0.089 C 
HETATM   18  N   UNL     1     -41.318 -48.664  14.408  1.00  0.00    -0.344 N 
HETATM   19  C   UNL     1     -39.999 -48.755  14.066  1.00  0.00     0.060 A 
ATOM     20  HN  UNL     1     -41.730 -48.037  15.099  1.00  0.00     0.167 HD
HETATM   21  C   UNL     1     -38.905 -48.035  14.560  1.00  0.00     0.032 A 
HETATM   22  C   UNL     1     -39.805 -49.729  13.089  1.00  0.00     0.062 A 
HETATM   23  C   UNL     1     -37.632 -48.318  14.058  1.00  0.00     0.002 A 
HETATM   24  C   UNL     1     -37.454 -49.295  13.079  1.00  0.00     0.002 A 
HETATM   25  C   UNL     1     -38.537 -50.024  12.571  1.00  0.00     0.032 A 
ENDBRANCH  14  15
ENDBRANCH   1  14
TORSDOF 6
ENDMDL
MODEL 4
REMARK VINA RESULT:      -6.2      2.510      5.203
REMARK  6 active torsions:
REMARK  status: ('A' for Active; 'I' for Inactive)
REMARK    1  A    between atoms: O_2  and  C_3 
REMARK    2  A    between atoms: C_6  and  O_7 
REMARK    3  A    between atoms: C_9  and  C_11 
REMARK    4  A    between atoms: C_11  and  O_12 
REMARK    5  A    between atoms: C_11  and  C_13 
REMARK    6  A    between atoms: C_13  and  N_14 
ROOT
HETATM    1  C   UNL     1     -41.423 -52.821  12.455  1.00  0.00     0.172 C 
ENDROOT
BRANCH   1   2
HETATM    2  C   UNL     1     -40.482 -51.911  13.242  1.00  0.00     0.008 A 
HETATM    3  C   UNL     1     -39.277 -52.385  13.800  1.00  0.00     0.077 A 
HETATM    4  C   UNL     1     -38.413 -51.501  14.452  1.00  0.00     0.040 A 
HETATM    5  C   UNL     1     -38.717 -50.138  14.541  1.00  0.00     0.039 A 
HETATM    6  C   UNL     1     -39.895 -49.647  13.987  1.00  0.00     0.069 A 
HETATM    7  C   UNL     1     -40.770 -50.532  13.343  1.00  0.00     0.049 A 
BRANCH   3   8
HETATM    8  O   UNL     1     -39.015 -53.717  13.604  1.00  0.00    -0.355 OA
HETATM    9  C   UNL     1     -38.919 -54.546  14.756  1.00  0.00     0.210 C 
ENDBRANCH   3   8
BRANCH   6  10
HETATM   10  O   UNL     1     -40.272 -48.333  13.967  1.00  0.00    -0.356 OA
HETATM   11  C   UNL     1     -40.591 -47.776  12.695  1.00  0.00     0.210 C 
ENDBRANCH   6  10
ENDBRANCH   1   2
BRANCH   1  12
HETATM   12  O   UNL     1     -40.644 -53.508  11.468  1.00  0.00    -0.389 OA
HETATM   13  H   UNL     1     -39.932 -53.970  11.947  1.00  0.00     0.210 HD
ENDBRANCH   1  12
BRANCH   1  14
HETATM   14  C   UNL     1     -42.206 -53.832  13.318  1.00  0.00     0.167 C 
BRANCH  14  15
HETATM   15  N   UNL     1     -43.175 -53.203  14.211  1.00  0.00    -0.332 N 
HETATM   16  C   UNL     1     -43.014 -52.929  15.557  1.00  0.00     0.080 A 
HETATM   17  C   UNL     1     -41.842 -53.302  16.390  1.00  0.00     0.089 C 
HETATM   18  N   UNL     1     -44.057 -52.271  16.029  1.00  0.00    -0.344 N 
HETATM   19  C   UNL     1     -44.919 -52.122  14.980  1.00  0.00     0.060 A 
ATOM     20  HN  UNL     1     -44.192 -51.940  16.985  1.00  0.00     0.167 HD
HETATM   21  C   UNL     1     -46.171 -51.496  14.945  1.00  0.00     0.032 A 
HETATM   22  C   UNL     1     -44.398 -52.697  13.823  1.00  0.00     0.062 A 
HETATM   23  C   UNL     1     -46.870 -51.459  13.736  1.00  0.00     0.002 A 
HETATM   24  C   UNL     1     -46.335 -52.039  12.586  1.00  0.00     0.002 A 
HETATM   25  C   UNL     1     -45.085 -52.672  12.602  1.00  0.00     0.032 A 
ENDBRANCH  14  15
ENDBRANCH   1  14
TORSDOF 6
ENDMDL
MODEL 5
REMARK VINA RESULT:      -6.1      2.723      6.655
REMARK  6 active torsions:
REMARK  status: ('A' for Active; 'I' for Inactive)
REMARK    1  A    between atoms: O_2  and  C_3 
REMARK    2  A    between atoms: C_6  and  O_7 
REMARK    3  A    between atoms: C_9  and  C_11 
REMARK    4  A    between atoms: C_11  and  O_12 
REMARK    5  A    between atoms: C_11  and  C_13 
REMARK    6  A    between atoms: C_13  and  N_14 
ROOT
HETATM    1  C   UNL     1     -41.553 -50.190  11.967  1.00  0.00     0.172 C 
ENDROOT
BRANCH   1   2
HETATM    2  C   UNL     1     -40.901 -48.810  12.020  1.00  0.00     0.008 A 
HETATM    3  C   UNL     1     -41.099 -47.851  11.006  1.00  0.00     0.077 A 
HETATM    4  C   UNL     1     -40.537 -46.576  11.130  1.00  0.00     0.040 A 
HETATM    5  C   UNL     1     -39.795 -46.229  12.263  1.00  0.00     0.039 A 
HETATM    6  C   UNL     1     -39.597 -47.157  13.281  1.00  0.00     0.069 A 
HETATM    7  C   UNL     1     -40.147 -48.440  13.154  1.00  0.00     0.049 A 
BRANCH   3   8
HETATM    8  O   UNL     1     -41.901 -48.243   9.964  1.00  0.00    -0.355 OA
HETATM    9  C   UNL     1     -43.111 -47.524   9.758  1.00  0.00     0.210 C 
ENDBRANCH   3   8
BRANCH   6  10
HETATM   10  O   UNL     1     -38.935 -46.917  14.453  1.00  0.00    -0.356 OA
HETATM   11  C   UNL     1     -37.641 -47.496  14.590  1.00  0.00     0.210 C 
ENDBRANCH   6  10
ENDBRANCH   1   2
BRANCH   1  12
HETATM   12  O   UNL     1     -40.834 -50.978  11.010  1.00  0.00    -0.389 OA
HETATM   13  H   UNL     1     -41.190 -51.883  11.070  1.00  0.00     0.210 HD
ENDBRANCH   1  12
BRANCH   1  14
HETATM   14  C   UNL     1     -41.617 -50.922  13.323  1.00  0.00     0.167 C 
BRANCH  14  15
HETATM   15  N   UNL     1     -42.498 -52.086  13.313  1.00  0.00    -0.332 N 
HETATM   16  C   UNL     1     -42.125 -53.414  13.217  1.00  0.00     0.080 A 
HETATM   17  C   UNL     1     -40.743 -53.921  13.016  1.00  0.00     0.089 C 
HETATM   18  N   UNL     1     -43.176 -54.205  13.334  1.00  0.00    -0.344 N 
HETATM   19  C   UNL     1     -44.255 -53.383  13.497  1.00  0.00     0.060 A 
ATOM     20  HN  UNL     1     -43.181 -55.225  13.308  1.00  0.00     0.167 HD
HETATM   21  C   UNL     1     -45.604 -53.716  13.666  1.00  0.00     0.032 A 
HETATM   22  C   UNL     1     -43.866 -52.045  13.488  1.00  0.00     0.062 A 
HETATM   23  C   UNL     1     -46.535 -52.688  13.828  1.00  0.00     0.002 A 
HETATM   24  C   UNL     1     -46.130 -51.353  13.817  1.00  0.00     0.002 A 
HETATM   25  C   UNL     1     -44.785 -51.000  13.646  1.00  0.00     0.032 A 
ENDBRANCH  14  15
ENDBRANCH   1  14
TORSDOF 6
ENDMDL
MODEL 6
REMARK VINA RESULT:      -6.1      2.402      5.314
REMARK  6 active torsions:
REMARK  status: ('A' for Active; 'I' for Inactive)
REMARK    1  A    between atoms: O_2  and  C_3 
REMARK    2  A    between atoms: C_6  and  O_7 
REMARK    3  A    between atoms: C_9  and  C_11 
REMARK    4  A    between atoms: C_11  and  O_12 
REMARK    5  A    between atoms: C_11  and  C_13 
REMARK    6  A    between atoms: C_13  and  N_14 
ROOT
HETATM    1  C   UNL     1     -41.353 -52.130  12.097  1.00  0.00     0.172 C 
ENDROOT
BRANCH   1   2
HETATM    2  C   UNL     1     -40.769 -50.721  12.015  1.00  0.00     0.008 A 
HETATM    3  C   UNL     1     -39.405 -50.463  12.259  1.00  0.00     0.077 A 
HETATM    4  C   UNL     1     -38.900 -49.167  12.104  1.00  0.00     0.040 A 
HETATM    5  C   UNL     1     -39.730 -48.122  11.687  1.00  0.00     0.039 A 
HETATM    6  C   UNL     1     -41.077 -48.357  11.429  1.00  0.00     0.069 A 
HETATM    7  C   UNL     1     -41.589 -49.652  11.595  1.00  0.00     0.049 A 
BRANCH   3   8
HETATM    8  O   UNL     1     -38.642 -51.553  12.590  1.00  0.00    -0.355 OA
HETATM    9  C   UNL     1     -37.296 -51.321  12.984  1.00  0.00     0.210 C 
ENDBRANCH   3   8
BRANCH   6  10
HETATM   10  O   UNL     1     -41.969 -47.429  10.969  1.00  0.00    -0.356 OA
HETATM   11  C   UNL     1     -43.347 -47.791  11.005  1.00  0.00     0.210 C 
ENDBRANCH   6  10
ENDBRANCH   1   2
BRANCH   1  12
HETATM   12  O   UNL     1     -40.500 -53.002  11.345  1.00  0.00    -0.389 OA
HETATM   13  H   UNL     1     -39.858 -53.375  11.974  1.00  0.00     0.210 HD
ENDBRANCH   1  12
BRANCH   1  14
HETATM   14  C   UNL     1     -41.533 -52.666  13.532  1.00  0.00     0.167 C 
BRANCH  14  15
HETATM   15  N   UNL     1     -42.640 -52.041  14.250  1.00  0.00    -0.332 N 
HETATM   16  C   UNL     1     -42.557 -51.202  15.346  1.00  0.00     0.080 A 
HETATM   17  C   UNL     1     -41.314 -50.834  16.072  1.00  0.00     0.089 C 
HETATM   18  N   UNL     1     -43.751 -50.747  15.679  1.00  0.00    -0.344 N 
HETATM   19  C   UNL     1     -44.631 -51.306  14.796  1.00  0.00     0.060 A 
ATOM     20  HN  UNL     1     -43.972 -50.107  16.442  1.00  0.00     0.167 HD
HETATM   21  C   UNL     1     -46.019 -51.149  14.711  1.00  0.00     0.032 A 
HETATM   22  C   UNL     1     -43.968 -52.125  13.885  1.00  0.00     0.062 A 
HETATM   23  C   UNL     1     -46.712 -51.821  13.701  1.00  0.00     0.002 A 
HETATM   24  C   UNL     1     -46.033 -52.639  12.796  1.00  0.00     0.002 A 
HETATM   25  C   UNL     1     -44.645 -52.810  12.867  1.00  0.00     0.032 A 
ENDBRANCH  14  15
ENDBRANCH   1  14
TORSDOF 6
ENDMDL
MODEL 7
REMARK VINA RESULT:      -5.9      3.058      6.268
REMARK  6 active torsions:
REMARK  status: ('A' for Active; 'I' for Inactive)
REMARK    1  A    between atoms: O_2  and  C_3 
REMARK    2  A    between atoms: C_6  and  O_7 
REMARK    3  A    between atoms: C_9  and  C_11 
REMARK    4  A    between atoms: C_11  and  O_12 
REMARK    5  A    between atoms: C_11  and  C_13 
REMARK    6  A    between atoms: C_13  and  N_14 
ROOT
HETATM    1  C   UNL     1     -43.423 -53.174  13.148  1.00  0.00     0.172 C 
ENDROOT
BRANCH   1   2
HETATM    2  C   UNL     1     -42.144 -53.743  13.759  1.00  0.00     0.008 A 
HETATM    3  C   UNL     1     -40.866 -53.382  13.286  1.00  0.00     0.077 A 
HETATM    4  C   UNL     1     -39.721 -53.875  13.921  1.00  0.00     0.040 A 
HETATM    5  C   UNL     1     -39.826 -54.708  15.039  1.00  0.00     0.039 A 
HETATM    6  C   UNL     1     -41.078 -55.067  15.529  1.00  0.00     0.069 A 
HETATM    7  C   UNL     1     -42.228 -54.586  14.888  1.00  0.00     0.049 A 
BRANCH   3   8
HETATM    8  O   UNL     1     -40.847 -52.502  12.235  1.00  0.00    -0.355 OA
HETATM    9  C   UNL     1     -40.226 -51.240  12.443  1.00  0.00     0.210 C 
ENDBRANCH   3   8
BRANCH   6  10
HETATM   10  O   UNL     1     -41.304 -55.830  16.641  1.00  0.00    -0.356 OA
HETATM   11  C   UNL     1     -40.321 -56.813  16.955  1.00  0.00     0.210 C 
ENDBRANCH   6  10
ENDBRANCH   1   2
BRANCH   1  12
HETATM   12  O   UNL     1     -43.323 -53.303  11.725  1.00  0.00    -0.389 OA
HETATM   13  H   UNL     1     -43.342 -54.257  11.529  1.00  0.00     0.210 HD
ENDBRANCH   1  12
BRANCH   1  14
HETATM   14  C   UNL     1     -44.723 -53.831  13.655  1.00  0.00     0.167 C 
BRANCH  14  15
HETATM   15  N   UNL     1     -45.597 -52.908  14.374  1.00  0.00    -0.332 N 
HETATM   16  C   UNL     1     -46.417 -51.938  13.827  1.00  0.00     0.080 A 
HETATM   17  C   UNL     1     -46.508 -51.581  12.388  1.00  0.00     0.089 C 
HETATM   18  N   UNL     1     -47.137 -51.351  14.764  1.00  0.00    -0.344 N 
HETATM   19  C   UNL     1     -46.775 -51.936  15.945  1.00  0.00     0.060 A 
ATOM     20  HN  UNL     1     -47.826 -50.609  14.634  1.00  0.00     0.167 HD
HETATM   21  C   UNL     1     -47.241 -51.679  17.239  1.00  0.00     0.032 A 
HETATM   22  C   UNL     1     -45.809 -52.918  15.737  1.00  0.00     0.062 A 
HETATM   23  C   UNL     1     -46.723 -52.425  18.301  1.00  0.00     0.002 A 
HETATM   24  C   UNL     1     -45.755 -53.404  18.076  1.00  0.00     0.002 A 
HETATM   25  C   UNL     1     -45.275 -53.674  16.788  1.00  0.00     0.032 A 
ENDBRANCH  14  15
ENDBRANCH   1  14
TORSDOF 6
ENDMDL
MODEL 8
REMARK VINA RESULT:      -5.9      2.958      6.948
REMARK  6 active torsions:
REMARK  status: ('A' for Active; 'I' for Inactive)
REMARK    1  A    between atoms: O_2  and  C_3 
REMARK    2  A    between atoms: C_6  and  O_7 
REMARK    3  A    between atoms: C_9  and  C_11 
REMARK    4  A    between atoms: C_11  and  O_12 
REMARK    5  A    between atoms: C_11  and  C_13 
REMARK    6  A    between atoms: C_13  and  N_14 
ROOT
HETATM    1  C   UNL     1     -41.164 -49.279  11.454  1.00  0.00     0.172 C 
ENDROOT
BRANCH   1   2
HETATM    2  C   UNL     1     -41.069 -47.783  11.159  1.00  0.00     0.008 A 
HETATM    3  C   UNL     1     -41.925 -47.148  10.236  1.00  0.00     0.077 A 
HETATM    4  C   UNL     1     -41.848 -45.764  10.048  1.00  0.00     0.040 A 
HETATM    5  C   UNL     1     -40.943 -44.992  10.784  1.00  0.00     0.039 A 
HETATM    6  C   UNL     1     -40.097 -45.597  11.709  1.00  0.00     0.069 A 
HETATM    7  C   UNL     1     -40.162 -46.985  11.890  1.00  0.00     0.049 A 
BRANCH   3   8
HETATM    8  O   UNL     1     -42.835 -47.961   9.610  1.00  0.00    -0.355 OA
HETATM    9  C   UNL     1     -43.568 -47.415   8.521  1.00  0.00     0.210 C 
ENDBRANCH   3   8
BRANCH   6  10
HETATM   10  O   UNL     1     -39.212 -44.942  12.519  1.00  0.00    -0.356 OA
HETATM   11  C   UNL     1     -39.550 -43.609  12.894  1.00  0.00     0.210 C 
ENDBRANCH   6  10
ENDBRANCH   1   2
BRANCH   1  12
HETATM   12  O   UNL     1     -40.384 -49.969  10.470  1.00  0.00    -0.389 OA
HETATM   13  H   UNL     1     -39.539 -50.198  10.896  1.00  0.00     0.210 HD
ENDBRANCH   1  12
BRANCH   1  14
HETATM   14  C   UNL     1     -40.715 -49.682  12.873  1.00  0.00     0.167 C 
BRANCH  14  15
HETATM   15  N   UNL     1     -40.677 -51.126  13.080  1.00  0.00    -0.332 N 
HETATM   16  C   UNL     1     -39.563 -51.903  13.343  1.00  0.00     0.080 A 
HETATM   17  C   UNL     1     -38.157 -51.428  13.382  1.00  0.00     0.089 C 
HETATM   18  N   UNL     1     -39.909 -53.157  13.568  1.00  0.00    -0.344 N 
HETATM   19  C   UNL     1     -41.269 -53.206  13.439  1.00  0.00     0.060 A 
ATOM     20  HN  UNL     1     -39.287 -53.934  13.793  1.00  0.00     0.167 HD
HETATM   21  C   UNL     1     -42.132 -54.298  13.579  1.00  0.00     0.032 A 
HETATM   22  C   UNL     1     -41.784 -51.948  13.132  1.00  0.00     0.062 A 
HETATM   23  C   UNL     1     -43.505 -54.097  13.409  1.00  0.00     0.002 A 
HETATM   24  C   UNL     1     -44.005 -52.831  13.102  1.00  0.00     0.002 A 
HETATM   25  C   UNL     1     -43.156 -51.727  12.956  1.00  0.00     0.032 A 
ENDBRANCH  14  15
ENDBRANCH   1  14
TORSDOF 6
ENDMDL
MODEL 9
REMARK VINA RESULT:      -5.9      2.462      6.436
REMARK  6 active torsions:
REMARK  status: ('A' for Active; 'I' for Inactive)
REMARK    1  A    between atoms: O_2  and  C_3 
REMARK    2  A    between atoms: C_6  and  O_7 
REMARK    3  A    between atoms: C_9  and  C_11 
REMARK    4  A    between atoms: C_11  and  O_12 
REMARK    5  A    between atoms: C_11  and  C_13 
REMARK    6  A    between atoms: C_13  and  N_14 
ROOT
HETATM    1  C   UNL     1     -41.445 -51.666  12.278  1.00  0.00     0.172 C 
ENDROOT
BRANCH   1   2
HETATM    2  C   UNL     1     -40.176 -50.822  12.378  1.00  0.00     0.008 A 
HETATM    3  C   UNL     1     -39.941 -49.723  11.527  1.00  0.00     0.077 A 
HETATM    4  C   UNL     1     -38.798 -48.936  11.699  1.00  0.00     0.040 A 
HETATM    5  C   UNL     1     -37.888 -49.212  12.725  1.00  0.00     0.039 A 
HETATM    6  C   UNL     1     -38.107 -50.284  13.584  1.00  0.00     0.069 A 
HETATM    7  C   UNL     1     -39.245 -51.084  13.406  1.00  0.00     0.049 A 
BRANCH   3   8
HETATM    8  O   UNL     1     -40.917 -49.473  10.596  1.00  0.00    -0.355 OA
HETATM    9  C   UNL     1     -41.594 -48.225  10.670  1.00  0.00     0.210 C 
ENDBRANCH   3   8
BRANCH   6  10
HETATM   10  O   UNL     1     -37.318 -50.619  14.650  1.00  0.00    -0.356 OA
HETATM   11  C   UNL     1     -37.826 -50.312  15.945  1.00  0.00     0.210 C 
ENDBRANCH   6  10
ENDBRANCH   1   2
BRANCH   1  12
HETATM   12  O   UNL     1     -41.305 -52.534  11.147  1.00  0.00    -0.389 OA
HETATM   13  H   UNL     1     -42.004 -53.208  11.225  1.00  0.00     0.210 HD
ENDBRANCH   1  12
BRANCH   1  14
HETATM   14  C   UNL     1     -41.771 -52.485  13.544  1.00  0.00     0.167 C 
BRANCH  14  15
HETATM   15  N   UNL     1     -43.118 -52.251  14.055  1.00  0.00    -0.332 N 
HETATM   16  C   UNL     1     -43.647 -51.052  14.495  1.00  0.00     0.080 A 
HETATM   17  C   UNL     1     -42.913 -49.766  14.618  1.00  0.00     0.089 C 
HETATM   18  N   UNL     1     -44.925 -51.187  14.800  1.00  0.00    -0.344 N 
HETATM   19  C   UNL     1     -45.235 -52.497  14.566  1.00  0.00     0.060 A 
ATOM     20  HN  UNL     1     -45.555 -50.460  15.140  1.00  0.00     0.167 HD
HETATM   21  C   UNL     1     -46.458 -53.160  14.727  1.00  0.00     0.032 A 
HETATM   22  C   UNL     1     -44.124 -53.195  14.099  1.00  0.00     0.062 A 
HETATM   23  C   UNL     1     -46.534 -54.518  14.408  1.00  0.00     0.002 A 
HETATM   24  C   UNL     1     -45.412 -55.202  13.941  1.00  0.00     0.002 A 
HETATM   25  C   UNL     1     -44.179 -54.557  13.775  1.00  0.00     0.032 A 
ENDBRANCH  14  15
ENDBRANCH   1  14
TORSDOF 6
ENDMDL
