MODEL 1
REMARK VINA RESULT:      -5.8      0.000      0.000
REMARK  7 active torsions:
REMARK  status: ('A' for Active; 'I' for Inactive)
REMARK    1  A    between atoms: O_2  and  C_3 
REMARK    2  A    between atoms: C_3  and  C_4 
REMARK    3  A    between atoms: C_4  and  N_5 
REMARK    4  A    between atoms: C_8  and  C_13 
REMARK       I    between atoms: C_13  and  N_15 
REMARK    5  A    between atoms: N_15  and  C_16 
REMARK    6  A    between atoms: C_16  and  C_17 
REMARK    7  A    between atoms: C_16  and  C_20 
ROOT
HETATM    1  N   UNL     1     -42.872 -47.530  10.271  1.00  0.00    -0.255 N 
HETATM    2  N   UNL     1     -43.131 -48.689  11.002  1.00  0.00    -0.290 N 
ATOM      3  HN  UNL     1     -43.342 -49.574  10.543  1.00  0.00     0.187 HD
HETATM    4  C   UNL     1     -43.090 -48.584  12.295  1.00  0.00     0.116 A 
HETATM    5  C   UNL     1     -42.847 -47.326  13.033  1.00  0.00     0.042 A 
HETATM    6  C   UNL     1     -42.563 -46.244  12.312  1.00  0.00     0.078 A 
HETATM    7  C   UNL     1     -42.547 -46.301  10.838  1.00  0.00     0.262 A 
HETATM    8  O   UNL     1     -42.290 -45.275  10.214  1.00  0.00    -0.267 OA
ENDROOT
BRANCH   4   9
HETATM    9  C   UNL     1     -43.310 -49.814  13.172  1.00  0.00     0.269 C 
HETATM   10  O   UNL     1     -43.187 -49.703  14.385  1.00  0.00    -0.266 OA
HETATM   11  N   UNL     1     -43.666 -50.971  12.516  1.00  0.00    -0.350 N 
HETATM   12  H   UNL     1     -43.723 -50.959  11.507  1.00  0.00     0.163 HD
BRANCH  11  13
HETATM   13  C   UNL     1     -43.971 -52.182  13.251  1.00  0.00     0.093 C 
BRANCH  13  14
HETATM   14  C   UNL     1     -45.408 -52.559  12.987  1.00  0.00     0.009 A 
HETATM   15  C   UNL     1     -46.481 -51.500  12.890  1.00  0.00     0.007 A 
HETATM   16  C   UNL     1     -46.438 -52.407  14.087  1.00  0.00     0.007 A 
ENDBRANCH  13  14
BRANCH  13  17
HETATM   17  C   UNL     1     -43.034 -53.316  12.915  1.00  0.00     0.009 A 
HETATM   18  C   UNL     1     -42.301 -54.040  14.021  1.00  0.00     0.007 A 
HETATM   19  C   UNL     1     -41.527 -53.251  13.004  1.00  0.00     0.007 A 
ENDBRANCH  13  17
ENDBRANCH  11  13
ENDBRANCH   4   9
BRANCH   1  20
HETATM   20  C   UNL     1     -43.072 -47.622   8.826  1.00  0.00     0.178 C 
BRANCH  20  21
HETATM   21  C   UNL     1     -44.552 -47.794   8.503  1.00  0.00     0.189 C 
BRANCH  21  22
HETATM   22  O   UNL     1     -45.362 -47.363   9.597  1.00  0.00    -0.394 OA
HETATM   23  C   UNL     1     -46.701 -47.137   9.174  1.00  0.00     0.201 C 
ENDBRANCH  21  22
ENDBRANCH  20  21
ENDBRANCH   1  20
TORSDOF 7
ENDMDL
MODEL 2
REMARK VINA RESULT:      -5.3      2.009      6.453
REMARK  7 active torsions:
REMARK  status: ('A' for Active; 'I' for Inactive)
REMARK    1  A    between atoms: O_2  and  C_3 
REMARK    2  A    between atoms: C_3  and  C_4 
REMARK    3  A    between atoms: C_4  and  N_5 
REMARK    4  A    between atoms: C_8  and  C_13 
REMARK       I    between atoms: C_13  and  N_15 
REMARK    5  A    between atoms: N_15  and  C_16 
REMARK    6  A    between atoms: C_16  and  C_17 
REMARK    7  A    between atoms: C_16  and  C_20 
ROOT
HETATM    1  N   UNL     1     -41.894 -52.176  12.701  1.00  0.00    -0.255 N 
HETATM    2  N   UNL     1     -42.691 -51.067  12.423  1.00  0.00    -0.290 N 
ATOM      3  HN  UNL     1     -43.709 -51.115  12.465  1.00  0.00     0.187 HD
HETATM    4  C   UNL     1     -42.073 -49.969  12.109  1.00  0.00     0.116 A 
HETATM    5  C   UNL     1     -40.608 -49.833  11.974  1.00  0.00     0.042 A 
HETATM    6  C   UNL     1     -39.868 -50.896  12.283  1.00  0.00     0.078 A 
HETATM    7  C   UNL     1     -40.502 -52.164  12.692  1.00  0.00     0.262 A 
HETATM    8  O   UNL     1     -39.781 -53.122  12.958  1.00  0.00    -0.267 OA
ENDROOT
BRANCH   4   9
HETATM    9  C   UNL     1     -42.866 -48.692  11.841  1.00  0.00     0.269 C 
HETATM   10  O   UNL     1     -43.252 -48.026  12.792  1.00  0.00    -0.266 OA
HETATM   11  N   UNL     1     -43.064 -48.368  10.517  1.00  0.00    -0.350 N 
HETATM   12  H   UNL     1     -42.718 -48.998   9.805  1.00  0.00     0.163 HD
BRANCH  11  13
HETATM   13  C   UNL     1     -43.738 -47.142  10.141  1.00  0.00     0.093 C 
BRANCH  13  14
HETATM   14  C   UNL     1     -42.701 -46.115   9.761  1.00  0.00     0.009 A 
HETATM   15  C   UNL     1     -41.398 -46.014  10.518  1.00  0.00     0.007 A 
HETATM   16  C   UNL     1     -42.435 -44.940  10.678  1.00  0.00     0.007 A 
ENDBRANCH  13  14
BRANCH  13  17
HETATM   17  C   UNL     1     -44.741 -47.347   9.033  1.00  0.00     0.009 A 
HETATM   18  C   UNL     1     -46.082 -46.652   9.092  1.00  0.00     0.007 A 
HETATM   19  C   UNL     1     -46.015 -48.152   9.154  1.00  0.00     0.007 A 
ENDBRANCH  13  17
ENDBRANCH  11  13
ENDBRANCH   4   9
BRANCH   1  20
HETATM   20  C   UNL     1     -42.599 -53.441  12.900  1.00  0.00     0.178 C 
BRANCH  20  21
HETATM   21  C   UNL     1     -44.060 -53.309  12.483  1.00  0.00     0.189 C 
BRANCH  21  22
HETATM   22  O   UNL     1     -44.848 -52.796  13.558  1.00  0.00    -0.394 OA
HETATM   23  C   UNL     1     -45.845 -53.735  13.943  1.00  0.00     0.201 C 
ENDBRANCH  21  22
ENDBRANCH  20  21
ENDBRANCH   1  20
TORSDOF 7
ENDMDL
MODEL 3
REMARK VINA RESULT:      -5.3      3.599      6.934
REMARK  7 active torsions:
REMARK  status: ('A' for Active; 'I' for Inactive)
REMARK    1  A    between atoms: O_2  and  C_3 
REMARK    2  A    between atoms: C_3  and  C_4 
REMARK    3  A    between atoms: C_4  and  N_5 
REMARK    4  A    between atoms: C_8  and  C_13 
REMARK       I    between atoms: C_13  and  N_15 
REMARK    5  A    between atoms: N_15  and  C_16 
REMARK    6  A    between atoms: C_16  and  C_17 
REMARK    7  A    between atoms: C_16  and  C_20 
ROOT
HETATM    1  N   UNL     1     -43.406 -54.530  14.305  1.00  0.00    -0.255 N 
HETATM    2  N   UNL     1     -42.838 -53.700  13.341  1.00  0.00    -0.290 N 
ATOM      3  HN  UNL     1     -43.386 -53.325  12.567  1.00  0.00     0.187 HD
HETATM    4  C   UNL     1     -41.575 -53.428  13.476  1.00  0.00     0.116 A 
HETATM    5  C   UNL     1     -40.703 -53.976  14.536  1.00  0.00     0.042 A 
HETATM    6  C   UNL     1     -41.279 -54.733  15.466  1.00  0.00     0.078 A 
HETATM    7  C   UNL     1     -42.719 -55.046  15.400  1.00  0.00     0.262 A 
HETATM    8  O   UNL     1     -43.206 -55.758  16.274  1.00  0.00    -0.267 OA
ENDROOT
BRANCH   4   9
HETATM    9  C   UNL     1     -40.883 -52.485  12.495  1.00  0.00     0.269 C 
HETATM   10  O   UNL     1     -40.674 -52.871  11.353  1.00  0.00    -0.266 OA
HETATM   11  N   UNL     1     -40.567 -51.233  12.977  1.00  0.00    -0.350 N 
HETATM   12  H   UNL     1     -40.768 -51.021  13.945  1.00  0.00     0.163 HD
BRANCH  11  13
HETATM   13  C   UNL     1     -39.975 -50.230  12.116  1.00  0.00     0.093 C 
BRANCH  13  14
HETATM   14  C   UNL     1     -40.833 -48.990  12.157  1.00  0.00     0.009 A 
HETATM   15  C   UNL     1     -42.330 -49.078  11.972  1.00  0.00     0.007 A 
HETATM   16  C   UNL     1     -41.481 -48.482  10.886  1.00  0.00     0.007 A 
ENDBRANCH  13  14
BRANCH  13  17
HETATM   17  C   UNL     1     -38.545 -49.921  12.483  1.00  0.00     0.009 A 
HETATM   18  C   UNL     1     -37.455 -50.056  11.444  1.00  0.00     0.007 A 
HETATM   19  C   UNL     1     -37.451 -50.951  12.651  1.00  0.00     0.007 A 
ENDBRANCH  13  17
ENDBRANCH  11  13
ENDBRANCH   4   9
BRANCH   1  20
HETATM   20  C   UNL     1     -44.783 -54.954  14.058  1.00  0.00     0.178 C 
BRANCH  20  21
HETATM   21  C   UNL     1     -45.684 -53.742  13.847  1.00  0.00     0.189 C 
BRANCH  21  22
HETATM   22  O   UNL     1     -45.701 -53.358  12.472  1.00  0.00    -0.394 OA
HETATM   23  C   UNL     1     -46.402 -52.133  12.299  1.00  0.00     0.201 C 
ENDBRANCH  21  22
ENDBRANCH  20  21
ENDBRANCH   1  20
TORSDOF 7
ENDMDL
MODEL 4
REMARK VINA RESULT:      -5.2      1.681      2.553
REMARK  7 active torsions:
REMARK  status: ('A' for Active; 'I' for Inactive)
REMARK    1  A    between atoms: O_2  and  C_3 
REMARK    2  A    between atoms: C_3  and  C_4 
REMARK    3  A    between atoms: C_4  and  N_5 
REMARK    4  A    between atoms: C_8  and  C_13 
REMARK       I    between atoms: C_13  and  N_15 
REMARK    5  A    between atoms: N_15  and  C_16 
REMARK    6  A    between atoms: C_16  and  C_17 
REMARK    7  A    between atoms: C_16  and  C_20 
ROOT
HETATM    1  N   UNL     1     -42.616 -47.051  10.217  1.00  0.00    -0.255 N 
HETATM    2  N   UNL     1     -43.057 -48.211  10.851  1.00  0.00    -0.290 N 
ATOM      3  HN  UNL     1     -43.918 -48.680  10.571  1.00  0.00     0.187 HD
HETATM    4  C   UNL     1     -42.318 -48.666  11.817  1.00  0.00     0.116 A 
HETATM    5  C   UNL     1     -41.089 -48.015  12.318  1.00  0.00     0.042 A 
HETATM    6  C   UNL     1     -40.668 -46.931  11.670  1.00  0.00     0.078 A 
HETATM    7  C   UNL     1     -41.434 -46.386  10.533  1.00  0.00     0.262 A 
HETATM    8  O   UNL     1     -41.013 -45.378   9.971  1.00  0.00    -0.267 OA
ENDROOT
BRANCH   4   9
HETATM    9  C   UNL     1     -42.699 -49.960  12.532  1.00  0.00     0.269 C 
HETATM   10  O   UNL     1     -41.982 -50.942  12.397  1.00  0.00    -0.266 OA
HETATM   11  N   UNL     1     -43.832 -49.910  13.315  1.00  0.00    -0.350 N 
HETATM   12  H   UNL     1     -44.364 -49.050  13.344  1.00  0.00     0.163 HD
BRANCH  11  13
HETATM   13  C   UNL     1     -44.250 -51.055  14.097  1.00  0.00     0.093 C 
BRANCH  13  14
HETATM   14  C   UNL     1     -43.953 -50.782  15.551  1.00  0.00     0.009 A 
HETATM   15  C   UNL     1     -42.600 -50.267  15.982  1.00  0.00     0.007 A 
HETATM   16  C   UNL     1     -42.994 -51.680  16.303  1.00  0.00     0.007 A 
ENDBRANCH  13  14
BRANCH  13  17
HETATM   17  C   UNL     1     -45.703 -51.402  13.888  1.00  0.00     0.009 A 
HETATM   18  C   UNL     1     -46.083 -52.758  13.338  1.00  0.00     0.007 A 
HETATM   19  C   UNL     1     -46.381 -51.519  12.542  1.00  0.00     0.007 A 
ENDBRANCH  13  17
ENDBRANCH  11  13
ENDBRANCH   4   9
BRANCH   1  20
HETATM   20  C   UNL     1     -43.530 -46.464   9.240  1.00  0.00     0.178 C 
BRANCH  20  21
HETATM   21  C   UNL     1     -44.504 -47.517   8.722  1.00  0.00     0.189 C 
BRANCH  21  22
HETATM   22  O   UNL     1     -45.589 -47.693   9.633  1.00  0.00    -0.394 OA
HETATM   23  C   UNL     1     -46.809 -47.243   9.055  1.00  0.00     0.201 C 
ENDBRANCH  21  22
ENDBRANCH  20  21
ENDBRANCH   1  20
TORSDOF 7
ENDMDL
MODEL 5
REMARK VINA RESULT:      -5.1      2.380      6.439
REMARK  7 active torsions:
REMARK  status: ('A' for Active; 'I' for Inactive)
REMARK    1  A    between atoms: O_2  and  C_3 
REMARK    2  A    between atoms: C_3  and  C_4 
REMARK    3  A    between atoms: C_4  and  N_5 
REMARK    4  A    between atoms: C_8  and  C_13 
REMARK       I    between atoms: C_13  and  N_15 
REMARK    5  A    between atoms: N_15  and  C_16 
REMARK    6  A    between atoms: C_16  and  C_17 
REMARK    7  A    between atoms: C_16  and  C_20 
ROOT
HETATM    1  N   UNL     1     -42.801 -52.847  12.778  1.00  0.00    -0.255 N 
HETATM    2  N   UNL     1     -42.573 -51.747  11.954  1.00  0.00    -0.290 N 
ATOM      3  HN  UNL     1     -43.258 -51.446  11.261  1.00  0.00     0.187 HD
HETATM    4  C   UNL     1     -41.445 -51.123  12.112  1.00  0.00     0.116 A 
HETATM    5  C   UNL     1     -40.381 -51.529  13.053  1.00  0.00     0.042 A 
HETATM    6  C   UNL     1     -40.639 -52.559  13.856  1.00  0.00     0.078 A 
HETATM    7  C   UNL     1     -41.920 -53.285  13.763  1.00  0.00     0.262 A 
HETATM    8  O   UNL     1     -42.111 -54.236  14.516  1.00  0.00    -0.267 OA
ENDROOT
BRANCH   4   9
HETATM    9  C   UNL     1     -41.136 -49.876  11.288  1.00  0.00     0.269 C 
HETATM   10  O   UNL     1     -40.015 -49.746  10.812  1.00  0.00    -0.266 OA
HETATM   11  N   UNL     1     -42.175 -48.988  11.116  1.00  0.00    -0.350 N 
HETATM   12  H   UNL     1     -43.059 -49.182  11.568  1.00  0.00     0.163 HD
BRANCH  11  13
HETATM   13  C   UNL     1     -42.020 -47.806  10.293  1.00  0.00     0.093 C 
BRANCH  13  14
HETATM   14  C   UNL     1     -43.314 -47.554   9.559  1.00  0.00     0.009 A 
HETATM   15  C   UNL     1     -43.422 -47.800   8.073  1.00  0.00     0.007 A 
HETATM   16  C   UNL     1     -43.415 -46.392   8.594  1.00  0.00     0.007 A 
ENDBRANCH  13  14
BRANCH  13  17
HETATM   17  C   UNL     1     -41.592 -46.597  11.087  1.00  0.00     0.009 A 
HETATM   18  C   UNL     1     -40.291 -45.902  10.759  1.00  0.00     0.007 A 
HETATM   19  C   UNL     1     -40.463 -46.574  12.091  1.00  0.00     0.007 A 
ENDBRANCH  13  17
ENDBRANCH  11  13
ENDBRANCH   4   9
BRANCH   1  20
HETATM   20  C   UNL     1     -43.999 -53.632  12.488  1.00  0.00     0.178 C 
BRANCH  20  21
HETATM   21  C   UNL     1     -45.221 -53.004  13.151  1.00  0.00     0.189 C 
BRANCH  21  22
HETATM   22  O   UNL     1     -45.061 -51.590  13.267  1.00  0.00    -0.394 OA
HETATM   23  C   UNL     1     -45.359 -51.158  14.589  1.00  0.00     0.201 C 
ENDBRANCH  21  22
ENDBRANCH  20  21
ENDBRANCH   1  20
TORSDOF 7
ENDMDL
MODEL 6
REMARK VINA RESULT:      -5.1      2.864      6.976
REMARK  7 active torsions:
REMARK  status: ('A' for Active; 'I' for Inactive)
REMARK    1  A    between atoms: O_2  and  C_3 
REMARK    2  A    between atoms: C_3  and  C_4 
REMARK    3  A    between atoms: C_4  and  N_5 
REMARK    4  A    between atoms: C_8  and  C_13 
REMARK       I    between atoms: C_13  and  N_15 
REMARK    5  A    between atoms: N_15  and  C_16 
REMARK    6  A    between atoms: C_16  and  C_17 
REMARK    7  A    between atoms: C_16  and  C_20 
ROOT
HETATM    1  N   UNL     1     -40.134 -51.885  13.395  1.00  0.00    -0.255 N 
HETATM    2  N   UNL     1     -40.655 -50.617  13.146  1.00  0.00    -0.290 N 
ATOM      3  HN  UNL     1     -40.118 -49.771  13.337  1.00  0.00     0.187 HD
HETATM    4  C   UNL     1     -41.858 -50.565  12.660  1.00  0.00     0.116 A 
HETATM    5  C   UNL     1     -42.719 -51.739  12.409  1.00  0.00     0.042 A 
HETATM    6  C   UNL     1     -42.184 -52.940  12.617  1.00  0.00     0.078 A 
HETATM    7  C   UNL     1     -40.805 -53.075  13.125  1.00  0.00     0.262 A 
HETATM    8  O   UNL     1     -40.357 -54.203  13.313  1.00  0.00    -0.267 OA
ENDROOT
BRANCH   4   9
HETATM    9  C   UNL     1     -42.487 -49.218  12.309  1.00  0.00     0.269 C 
HETATM   10  O   UNL     1     -43.083 -48.600  13.181  1.00  0.00    -0.266 OA
HETATM   11  N   UNL     1     -42.305 -48.782  11.015  1.00  0.00    -0.350 N 
HETATM   12  H   UNL     1     -41.810 -49.380  10.367  1.00  0.00     0.163 HD
BRANCH  11  13
HETATM   13  C   UNL     1     -42.793 -47.487  10.588  1.00  0.00     0.093 C 
BRANCH  13  14
HETATM   14  C   UNL     1     -41.612 -46.593  10.305  1.00  0.00     0.009 A 
HETATM   15  C   UNL     1     -40.332 -46.728  11.097  1.00  0.00     0.007 A 
HETATM   16  C   UNL     1     -41.215 -45.532  11.309  1.00  0.00     0.007 A 
ENDBRANCH  13  14
BRANCH  13  17
HETATM   17  C   UNL     1     -43.713 -47.579   9.395  1.00  0.00     0.009 A 
HETATM   18  C   UNL     1     -44.535 -46.379   8.984  1.00  0.00     0.007 A 
HETATM   19  C   UNL     1     -45.222 -47.626   9.465  1.00  0.00     0.007 A 
ENDBRANCH  13  17
ENDBRANCH  11  13
ENDBRANCH   4   9
BRANCH   1  20
HETATM   20  C   UNL     1     -38.846 -51.929  14.083  1.00  0.00     0.178 C 
BRANCH  20  21
HETATM   21  C   UNL     1     -37.835 -51.029  13.380  1.00  0.00     0.189 C 
BRANCH  21  22
HETATM   22  O   UNL     1     -38.001 -51.094  11.963  1.00  0.00    -0.394 OA
HETATM   23  C   UNL     1     -37.524 -49.905  11.346  1.00  0.00     0.201 C 
ENDBRANCH  21  22
ENDBRANCH  20  21
ENDBRANCH   1  20
TORSDOF 7
ENDMDL
MODEL 7
REMARK VINA RESULT:      -5.0      3.361      6.425
REMARK  7 active torsions:
REMARK  status: ('A' for Active; 'I' for Inactive)
REMARK    1  A    between atoms: O_2  and  C_3 
REMARK    2  A    between atoms: C_3  and  C_4 
REMARK    3  A    between atoms: C_4  and  N_5 
REMARK    4  A    between atoms: C_8  and  C_13 
REMARK       I    between atoms: C_13  and  N_15 
REMARK    5  A    between atoms: N_15  and  C_16 
REMARK    6  A    between atoms: C_16  and  C_17 
REMARK    7  A    between atoms: C_16  and  C_20 
ROOT
HETATM    1  N   UNL     1     -44.101 -52.804  12.959  1.00  0.00    -0.255 N 
HETATM    2  N   UNL     1     -43.372 -51.696  12.530  1.00  0.00    -0.290 N 
ATOM      3  HN  UNL     1     -43.821 -50.909  12.063  1.00  0.00     0.187 HD
HETATM    4  C   UNL     1     -42.094 -51.716  12.755  1.00  0.00     0.116 A 
HETATM    5  C   UNL     1     -41.363 -52.841  13.376  1.00  0.00     0.042 A 
HETATM    6  C   UNL     1     -42.087 -53.870  13.812  1.00  0.00     0.078 A 
HETATM    7  C   UNL     1     -43.551 -53.893  13.630  1.00  0.00     0.262 A 
HETATM    8  O   UNL     1     -44.178 -54.867  14.039  1.00  0.00    -0.267 OA
ENDROOT
BRANCH   4   9
HETATM    9  C   UNL     1     -41.227 -50.521  12.366  1.00  0.00     0.269 C 
HETATM   10  O   UNL     1     -41.581 -49.815  11.432  1.00  0.00    -0.266 OA
HETATM   11  N   UNL     1     -40.102 -50.312  13.133  1.00  0.00    -0.350 N 
HETATM   12  H   UNL     1     -39.890 -50.968  13.874  1.00  0.00     0.163 HD
BRANCH  11  13
HETATM   13  C   UNL     1     -39.244 -49.168  12.904  1.00  0.00     0.093 C 
BRANCH  13  14
HETATM   14  C   UNL     1     -39.336 -48.246  14.095  1.00  0.00     0.009 A 
HETATM   15  C   UNL     1     -40.656 -47.635  14.501  1.00  0.00     0.007 A 
HETATM   16  C   UNL     1     -39.595 -46.770  13.884  1.00  0.00     0.007 A 
ENDBRANCH  13  14
BRANCH  13  17
HETATM   17  C   UNL     1     -37.815 -49.561  12.621  1.00  0.00     0.009 A 
HETATM   18  C   UNL     1     -37.386 -49.875  11.207  1.00  0.00     0.007 A 
HETATM   19  C   UNL     1     -37.356 -50.953  12.253  1.00  0.00     0.007 A 
ENDBRANCH  13  17
ENDBRANCH  11  13
ENDBRANCH   4   9
BRANCH   1  20
HETATM   20  C   UNL     1     -45.508 -52.842  12.564  1.00  0.00     0.178 C 
BRANCH  20  21
HETATM   21  C   UNL     1     -46.200 -51.535  12.937  1.00  0.00     0.189 C 
BRANCH  21  22
HETATM   22  O   UNL     1     -45.864 -51.147  14.269  1.00  0.00    -0.394 OA
HETATM   23  C   UNL     1     -46.903 -51.503  15.174  1.00  0.00     0.201 C 
ENDBRANCH  21  22
ENDBRANCH  20  21
ENDBRANCH   1  20
TORSDOF 7
ENDMDL
MODEL 8
REMARK VINA RESULT:      -5.0      3.190      6.547
REMARK  7 active torsions:
REMARK  status: ('A' for Active; 'I' for Inactive)
REMARK    1  A    between atoms: O_2  and  C_3 
REMARK    2  A    between atoms: C_3  and  C_4 
REMARK    3  A    between atoms: C_4  and  N_5 
REMARK    4  A    between atoms: C_8  and  C_13 
REMARK       I    between atoms: C_13  and  N_15 
REMARK    5  A    between atoms: N_15  and  C_16 
REMARK    6  A    between atoms: C_16  and  C_17 
REMARK    7  A    between atoms: C_16  and  C_20 
ROOT
HETATM    1  N   UNL     1     -44.935 -53.011  13.571  1.00  0.00    -0.255 N 
HETATM    2  N   UNL     1     -44.004 -52.283  12.832  1.00  0.00    -0.290 N 
ATOM      3  HN  UNL     1     -44.275 -51.463  12.290  1.00  0.00     0.187 HD
HETATM    4  C   UNL     1     -42.775 -52.700  12.870  1.00  0.00     0.116 A 
HETATM    5  C   UNL     1     -42.314 -53.908  13.586  1.00  0.00     0.042 A 
HETATM    6  C   UNL     1     -43.215 -54.562  14.316  1.00  0.00     0.078 A 
HETATM    7  C   UNL     1     -44.621 -54.117  14.356  1.00  0.00     0.262 A 
HETATM    8  O   UNL     1     -45.420 -54.758  15.034  1.00  0.00    -0.267 OA
ENDROOT
BRANCH   4   9
HETATM    9  C   UNL     1     -41.681 -51.932  12.132  1.00  0.00     0.269 C 
HETATM   10  O   UNL     1     -40.999 -52.523  11.305  1.00  0.00    -0.266 OA
HETATM   11  N   UNL     1     -41.563 -50.595  12.443  1.00  0.00    -0.350 N 
HETATM   12  H   UNL     1     -42.166 -50.207  13.157  1.00  0.00     0.163 HD
BRANCH  11  13
HETATM   13  C   UNL     1     -40.610 -49.749  11.754  1.00  0.00     0.093 C 
BRANCH  13  14
HETATM   14  C   UNL     1     -41.238 -48.397  11.525  1.00  0.00     0.009 A 
HETATM   15  C   UNL     1     -42.739 -48.248  11.427  1.00  0.00     0.007 A 
HETATM   16  C   UNL     1     -41.893 -48.089  10.195  1.00  0.00     0.007 A 
ENDBRANCH  13  14
BRANCH  13  17
HETATM   17  C   UNL     1     -39.300 -49.629  12.494  1.00  0.00     0.009 A 
HETATM   18  C   UNL     1     -37.995 -49.742  11.739  1.00  0.00     0.007 A 
HETATM   19  C   UNL     1     -38.353 -50.774  12.772  1.00  0.00     0.007 A 
ENDBRANCH  13  17
ENDBRANCH  11  13
ENDBRANCH   4   9
BRANCH   1  20
HETATM   20  C   UNL     1     -46.335 -52.628  13.399  1.00  0.00     0.178 C 
BRANCH  20  21
HETATM   21  C   UNL     1     -46.705 -51.514  14.373  1.00  0.00     0.189 C 
BRANCH  21  22
HETATM   22  O   UNL     1     -47.392 -52.042  15.507  1.00  0.00    -0.394 OA
HETATM   23  C   UNL     1     -47.163 -51.234  16.655  1.00  0.00     0.201 C 
ENDBRANCH  21  22
ENDBRANCH  20  21
ENDBRANCH   1  20
TORSDOF 7
ENDMDL
MODEL 9
REMARK VINA RESULT:      -5.0      4.273      8.514
REMARK  7 active torsions:
REMARK  status: ('A' for Active; 'I' for Inactive)
REMARK    1  A    between atoms: O_2  and  C_3 
REMARK    2  A    between atoms: C_3  and  C_4 
REMARK    3  A    between atoms: C_4  and  N_5 
REMARK    4  A    between atoms: C_8  and  C_13 
REMARK       I    between atoms: C_13  and  N_15 
REMARK    5  A    between atoms: N_15  and  C_16 
REMARK    6  A    between atoms: C_16  and  C_17 
REMARK    7  A    between atoms: C_16  and  C_20 
ROOT
HETATM    1  N   UNL     1     -41.110 -54.698  15.742  1.00  0.00    -0.255 N 
HETATM    2  N   UNL     1     -40.537 -53.830  14.814  1.00  0.00    -0.290 N 
ATOM      3  HN  UNL     1     -39.577 -53.499  14.912  1.00  0.00     0.187 HD
HETATM    4  C   UNL     1     -41.286 -53.464  13.818  1.00  0.00     0.116 A 
HETATM    5  C   UNL     1     -42.699 -53.855  13.636  1.00  0.00     0.042 A 
HETATM    6  C   UNL     1     -43.210 -54.715  14.514  1.00  0.00     0.078 A 
HETATM    7  C   UNL     1     -42.401 -55.209  15.645  1.00  0.00     0.262 A 
HETATM    8  O   UNL     1     -42.917 -55.994  16.436  1.00  0.00    -0.267 OA
ENDROOT
BRANCH   4   9
HETATM    9  C   UNL     1     -40.723 -52.556  12.727  1.00  0.00     0.269 C 
HETATM   10  O   UNL     1     -40.677 -52.973  11.577  1.00  0.00    -0.266 OA
HETATM   11  N   UNL     1     -40.326 -51.299  13.128  1.00  0.00    -0.350 N 
HETATM   12  H   UNL     1     -40.390 -51.060  14.109  1.00  0.00     0.163 HD
BRANCH  11  13
HETATM   13  C   UNL     1     -39.845 -50.326  12.169  1.00  0.00     0.093 C 
BRANCH  13  14
HETATM   14  C   UNL     1     -40.734 -49.109  12.226  1.00  0.00     0.009 A 
HETATM   15  C   UNL     1     -42.234 -49.239  12.105  1.00  0.00     0.007 A 
HETATM   16  C   UNL     1     -41.446 -48.640  10.975  1.00  0.00     0.007 A 
ENDBRANCH  13  14
BRANCH  13  17
HETATM   17  C   UNL     1     -38.397 -49.962  12.389  1.00  0.00     0.009 A 
HETATM   18  C   UNL     1     -37.408 -50.086  11.252  1.00  0.00     0.007 A 
HETATM   19  C   UNL     1     -37.257 -50.951  12.471  1.00  0.00     0.007 A 
ENDBRANCH  13  17
ENDBRANCH  11  13
ENDBRANCH   4   9
BRANCH   1  20
HETATM   20  C   UNL     1     -40.315 -54.980  16.935  1.00  0.00     0.178 C 
BRANCH  20  21
HETATM   21  C   UNL     1     -39.111 -55.848  16.580  1.00  0.00     0.189 C 
BRANCH  21  22
HETATM   22  O   UNL     1     -39.414 -57.231  16.760  1.00  0.00    -0.394 OA
HETATM   23  C   UNL     1     -40.022 -57.453  18.027  1.00  0.00     0.201 C 
ENDBRANCH  21  22
ENDBRANCH  20  21
ENDBRANCH   1  20
TORSDOF 7
ENDMDL
