MODEL 1
REMARK VINA RESULT:      -6.9      0.000      0.000
REMARK  5 active torsions:
REMARK  status: ('A' for Active; 'I' for Inactive)
REMARK    1  A    between atoms: N_4  and  C_5 
REMARK    2  A    between atoms: C_5  and  C_6 
REMARK    3  A    between atoms: C_6  and  C_7 
REMARK    4  A    between atoms: C_7  and  N_8 
REMARK       I    between atoms: N_8  and  C_9 
REMARK       I    between atoms: C_9  and  N_11 
REMARK    5  A    between atoms: N_11  and  C_12 
ROOT
HETATM    1  N   UNL     1     -42.326 -48.674  10.621  1.00  0.00    -0.343 N 
HETATM    2  C   UNL     1     -42.046 -47.443  10.124  1.00  0.00     0.321 C 
HETATM    3  O   UNL     1     -41.069 -46.780  10.461  1.00  0.00    -0.247 OA
HETATM    4  N   UNL     1     -42.936 -46.948   9.211  1.00  0.00    -0.295 N 
HETATM    5  H   UNL     1     -43.143 -49.120  10.208  1.00  0.00     0.164 HD
HETATM    6  H   UNL     1     -42.699 -46.022   8.890  1.00  0.00     0.172 HD
ENDROOT
BRANCH   1   7
HETATM    7  C   UNL     1     -41.538 -49.376  11.595  1.00  0.00     0.126 C 
BRANCH   7   8
HETATM    8  C   UNL     1     -42.386 -49.881  12.762  1.00  0.00     0.050 C 
BRANCH   8   9
HETATM    9  C   UNL     1     -42.465 -51.417  12.816  1.00  0.00     0.274 C 
BRANCH   9  10
HETATM   10  N   UNL     1     -43.837 -51.947  12.702  1.00  0.00     0.093 N 
HETATM   11  C   UNL     1     -44.822 -51.110  13.419  1.00  0.00     0.303 C 
HETATM   12  C   UNL     1     -46.247 -51.694  13.340  1.00  0.00     0.146 C 
HETATM   13  C   UNL     1     -46.839 -51.617  11.933  1.00  0.00     0.041 C 
HETATM   14  O   UNL     1     -46.286 -53.032  13.859  1.00  0.00    -0.378 OA
HETATM   15  C   UNL     1     -45.335 -53.899  13.217  1.00  0.00     0.146 C 
HETATM   16  C   UNL     1     -43.905 -53.314  13.275  1.00  0.00     0.303 C 
HETATM   17  C   UNL     1     -45.408 -55.245  13.928  1.00  0.00     0.041 C 
ENDBRANCH   9  10
ENDBRANCH   8   9
ENDBRANCH   7   8
ENDBRANCH   1   7
BRANCH   4  18
HETATM   18  C   UNL     1     -44.112 -47.544   8.734  1.00  0.00     0.108 A 
HETATM   19  C   UNL     1     -45.249 -47.483   9.526  1.00  0.00     0.049 A 
HETATM   20  C   UNL     1     -46.416 -48.101   9.074  1.00  0.00     0.005 A 
HETATM   21  C   UNL     1     -46.414 -48.756   7.845  1.00  0.00     0.017 A 
HETATM   22  C   UNL     1     -45.244 -48.758   7.114  1.00  0.00     0.089 A 
HETATM   23  N   UNL     1     -44.105 -48.165   7.530  1.00  0.00    -0.352 N 
ATOM     24  HN  UNL     1     -43.263 -48.185   6.955  1.00  0.00     0.166 HD
ENDBRANCH   4  18
TORSDOF 5
ENDMDL
MODEL 2
REMARK VINA RESULT:      -6.8      1.219      2.144
REMARK  5 active torsions:
REMARK  status: ('A' for Active; 'I' for Inactive)
REMARK    1  A    between atoms: N_4  and  C_5 
REMARK    2  A    between atoms: C_5  and  C_6 
REMARK    3  A    between atoms: C_6  and  C_7 
REMARK    4  A    between atoms: C_7  and  N_8 
REMARK       I    between atoms: N_8  and  C_9 
REMARK       I    between atoms: C_9  and  N_11 
REMARK    5  A    between atoms: N_11  and  C_12 
ROOT
HETATM    1  N   UNL     1     -41.811 -49.446  11.352  1.00  0.00    -0.343 N 
HETATM    2  C   UNL     1     -41.060 -48.378  10.982  1.00  0.00     0.321 C 
HETATM    3  O   UNL     1     -39.956 -48.127  11.454  1.00  0.00    -0.247 OA
HETATM    4  N   UNL     1     -41.612 -47.557  10.037  1.00  0.00    -0.295 N 
HETATM    5  H   UNL     1     -42.682 -49.550  10.836  1.00  0.00     0.164 HD
HETATM    6  H   UNL     1     -41.029 -46.766   9.813  1.00  0.00     0.172 HD
ENDROOT
BRANCH   1   7
HETATM    7  C   UNL     1     -41.434 -50.426  12.333  1.00  0.00     0.126 C 
BRANCH   7   8
HETATM    8  C   UNL     1     -42.249 -50.291  13.620  1.00  0.00     0.050 C 
BRANCH   8   9
HETATM    9  C   UNL     1     -42.332 -51.610  14.409  1.00  0.00     0.274 C 
BRANCH   9  10
HETATM   10  N   UNL     1     -43.536 -52.407  14.109  1.00  0.00     0.093 N 
HETATM   11  C   UNL     1     -43.243 -53.554  13.225  1.00  0.00     0.303 C 
HETATM   12  C   UNL     1     -44.513 -54.356  12.873  1.00  0.00     0.146 C 
HETATM   13  C   UNL     1     -45.085 -55.112  14.072  1.00  0.00     0.041 C 
HETATM   14  O   UNL     1     -45.500 -53.515  12.258  1.00  0.00    -0.378 OA
HETATM   15  C   UNL     1     -45.820 -52.365  13.059  1.00  0.00     0.146 C 
HETATM   16  C   UNL     1     -44.551 -51.562  13.432  1.00  0.00     0.303 C 
HETATM   17  C   UNL     1     -46.790 -51.512  12.249  1.00  0.00     0.041 C 
ENDBRANCH   9  10
ENDBRANCH   8   9
ENDBRANCH   7   8
ENDBRANCH   1   7
BRANCH   4  18
HETATM   18  C   UNL     1     -42.862 -47.668   9.412  1.00  0.00     0.108 A 
HETATM   19  C   UNL     1     -43.997 -47.379  10.155  1.00  0.00     0.049 A 
HETATM   20  C   UNL     1     -45.247 -47.518   9.553  1.00  0.00     0.005 A 
HETATM   21  C   UNL     1     -45.327 -47.936   8.227  1.00  0.00     0.017 A 
HETATM   22  C   UNL     1     -44.150 -48.190   7.556  1.00  0.00     0.089 A 
HETATM   23  N   UNL     1     -42.929 -48.061   8.118  1.00  0.00    -0.352 N 
ATOM     24  HN  UNL     1     -42.082 -48.253   7.583  1.00  0.00     0.166 HD
ENDBRANCH   4  18
TORSDOF 5
ENDMDL
MODEL 3
REMARK VINA RESULT:      -6.4      2.150      2.882
REMARK  5 active torsions:
REMARK  status: ('A' for Active; 'I' for Inactive)
REMARK    1  A    between atoms: N_4  and  C_5 
REMARK    2  A    between atoms: C_5  and  C_6 
REMARK    3  A    between atoms: C_6  and  C_7 
REMARK    4  A    between atoms: C_7  and  N_8 
REMARK       I    between atoms: N_8  and  C_9 
REMARK       I    between atoms: C_9  and  N_11 
REMARK    5  A    between atoms: N_11  and  C_12 
ROOT
HETATM    1  N   UNL     1     -41.290 -49.595  11.114  1.00  0.00    -0.343 N 
HETATM    2  C   UNL     1     -40.714 -48.369  11.032  1.00  0.00     0.321 C 
HETATM    3  O   UNL     1     -39.649 -48.081  11.569  1.00  0.00    -0.247 OA
HETATM    4  N   UNL     1     -41.402 -47.432  10.311  1.00  0.00    -0.295 N 
HETATM    5  H   UNL     1     -42.147 -49.697  10.575  1.00  0.00     0.164 HD
HETATM    6  H   UNL     1     -40.948 -46.532  10.299  1.00  0.00     0.172 HD
ENDROOT
BRANCH   1   7
HETATM    7  C   UNL     1     -40.750 -50.720  11.827  1.00  0.00     0.126 C 
BRANCH   7   8
HETATM    8  C   UNL     1     -41.778 -51.840  11.991  1.00  0.00     0.050 C 
BRANCH   8   9
HETATM    9  C   UNL     1     -41.219 -53.048  12.764  1.00  0.00     0.274 C 
BRANCH   9  10
HETATM   10  N   UNL     1     -42.091 -53.507  13.862  1.00  0.00     0.093 N 
HETATM   11  C   UNL     1     -41.456 -54.564  14.677  1.00  0.00     0.303 C 
HETATM   12  C   UNL     1     -42.391 -55.076  15.792  1.00  0.00     0.146 C 
HETATM   13  C   UNL     1     -42.631 -54.036  16.885  1.00  0.00     0.041 C 
HETATM   14  O   UNL     1     -43.625 -55.566  15.247  1.00  0.00    -0.378 OA
HETATM   15  C   UNL     1     -44.288 -54.592  14.424  1.00  0.00     0.146 C 
HETATM   16  C   UNL     1     -43.355 -54.058  13.312  1.00  0.00     0.303 C 
HETATM   17  C   UNL     1     -45.517 -55.271  13.830  1.00  0.00     0.041 C 
ENDBRANCH   9  10
ENDBRANCH   8   9
ENDBRANCH   7   8
ENDBRANCH   1   7
BRANCH   4  18
HETATM   18  C   UNL     1     -42.635 -47.571   9.659  1.00  0.00     0.108 A 
HETATM   19  C   UNL     1     -43.795 -47.373  10.394  1.00  0.00     0.049 A 
HETATM   20  C   UNL     1     -45.028 -47.540   9.763  1.00  0.00     0.005 A 
HETATM   21  C   UNL     1     -45.066 -47.895   8.416  1.00  0.00     0.017 A 
HETATM   22  C   UNL     1     -43.867 -48.060   7.756  1.00  0.00     0.089 A 
HETATM   23  N   UNL     1     -42.663 -47.901   8.346  1.00  0.00    -0.352 N 
ATOM     24  HN  UNL     1     -41.799 -48.026   7.818  1.00  0.00     0.166 HD
ENDBRANCH   4  18
TORSDOF 5
ENDMDL
MODEL 4
REMARK VINA RESULT:      -6.3      2.080      3.276
REMARK  5 active torsions:
REMARK  status: ('A' for Active; 'I' for Inactive)
REMARK    1  A    between atoms: N_4  and  C_5 
REMARK    2  A    between atoms: C_5  and  C_6 
REMARK    3  A    between atoms: C_6  and  C_7 
REMARK    4  A    between atoms: C_7  and  N_8 
REMARK       I    between atoms: N_8  and  C_9 
REMARK       I    between atoms: C_9  and  N_11 
REMARK    5  A    between atoms: N_11  and  C_12 
ROOT
HETATM    1  N   UNL     1     -41.051 -51.078  11.417  1.00  0.00    -0.343 N 
HETATM    2  C   UNL     1     -40.002 -50.217  11.424  1.00  0.00     0.321 C 
HETATM    3  O   UNL     1     -38.859 -50.542  11.733  1.00  0.00    -0.247 OA
HETATM    4  N   UNL     1     -40.284 -48.925  11.076  1.00  0.00    -0.295 N 
HETATM    5  H   UNL     1     -41.926 -50.674  11.091  1.00  0.00     0.164 HD
HETATM    6  H   UNL     1     -39.480 -48.320  11.121  1.00  0.00     0.172 HD
ENDROOT
BRANCH   1   7
HETATM    7  C   UNL     1     -40.985 -52.472  11.759  1.00  0.00     0.126 C 
BRANCH   7   8
HETATM    8  C   UNL     1     -41.375 -52.722  13.216  1.00  0.00     0.050 C 
BRANCH   8   9
HETATM    9  C   UNL     1     -42.324 -53.923  13.377  1.00  0.00     0.274 C 
BRANCH   9  10
HETATM   10  N   UNL     1     -43.630 -53.574  13.968  1.00  0.00     0.093 N 
HETATM   11  C   UNL     1     -44.453 -54.768  14.254  1.00  0.00     0.303 C 
HETATM   12  C   UNL     1     -45.837 -54.396  14.825  1.00  0.00     0.146 C 
HETATM   13  C   UNL     1     -45.756 -53.810  16.234  1.00  0.00     0.041 C 
HETATM   14  O   UNL     1     -46.547 -53.527  13.930  1.00  0.00    -0.378 OA
HETATM   15  C   UNL     1     -45.793 -52.350  13.592  1.00  0.00     0.146 C 
HETATM   16  C   UNL     1     -44.397 -52.711  13.035  1.00  0.00     0.303 C 
HETATM   17  C   UNL     1     -46.612 -51.576  12.565  1.00  0.00     0.041 C 
ENDBRANCH   9  10
ENDBRANCH   8   9
ENDBRANCH   7   8
ENDBRANCH   1   7
BRANCH   4  18
HETATM   18  C   UNL     1     -41.523 -48.371  10.727  1.00  0.00     0.108 A 
HETATM   19  C   UNL     1     -42.377 -47.973  11.745  1.00  0.00     0.049 A 
HETATM   20  C   UNL     1     -43.626 -47.450  11.408  1.00  0.00     0.005 A 
HETATM   21  C   UNL     1     -43.983 -47.335  10.067  1.00  0.00     0.017 A 
HETATM   22  C   UNL     1     -43.070 -47.742   9.117  1.00  0.00     0.089 A 
HETATM   23  N   UNL     1     -41.856 -48.249   9.419  1.00  0.00    -0.352 N 
ATOM     24  HN  UNL     1     -41.207 -48.532   8.685  1.00  0.00     0.166 HD
ENDBRANCH   4  18
TORSDOF 5
ENDMDL
MODEL 5
REMARK VINA RESULT:      -5.9      2.803      4.199
REMARK  5 active torsions:
REMARK  status: ('A' for Active; 'I' for Inactive)
REMARK    1  A    between atoms: N_4  and  C_5 
REMARK    2  A    between atoms: C_5  and  C_6 
REMARK    3  A    between atoms: C_6  and  C_7 
REMARK    4  A    between atoms: C_7  and  N_8 
REMARK       I    between atoms: N_8  and  C_9 
REMARK       I    between atoms: C_9  and  N_11 
REMARK    5  A    between atoms: N_11  and  C_12 
ROOT
HETATM    1  N   UNL     1     -39.976 -50.469  13.435  1.00  0.00    -0.343 N 
HETATM    2  C   UNL     1     -39.111 -50.752  12.429  1.00  0.00     0.321 C 
HETATM    3  O   UNL     1     -38.272 -51.647  12.485  1.00  0.00    -0.247 OA
HETATM    4  N   UNL     1     -39.206 -49.961  11.317  1.00  0.00    -0.295 N 
HETATM    5  H   UNL     1     -40.645 -49.733  13.222  1.00  0.00     0.164 HD
HETATM    6  H   UNL     1     -38.527 -50.193  10.608  1.00  0.00     0.172 HD
ENDROOT
BRANCH   1   7
HETATM    7  C   UNL     1     -40.043 -51.161  14.693  1.00  0.00     0.126 C 
BRANCH   7   8
HETATM    8  C   UNL     1     -41.467 -51.205  15.247  1.00  0.00     0.050 C 
BRANCH   8   9
HETATM    9  C   UNL     1     -42.522 -50.797  14.203  1.00  0.00     0.274 C 
BRANCH   9  10
HETATM   10  N   UNL     1     -43.550 -51.828  13.963  1.00  0.00     0.093 N 
HETATM   11  C   UNL     1     -43.041 -52.945  13.139  1.00  0.00     0.303 C 
HETATM   12  C   UNL     1     -44.133 -53.996  12.849  1.00  0.00     0.146 C 
HETATM   13  C   UNL     1     -44.546 -54.778  14.095  1.00  0.00     0.041 C 
HETATM   14  O   UNL     1     -45.265 -53.397  12.200  1.00  0.00    -0.378 OA
HETATM   15  C   UNL     1     -45.800 -52.287  12.940  1.00  0.00     0.146 C 
HETATM   16  C   UNL     1     -44.710 -51.235  13.252  1.00  0.00     0.303 C 
HETATM   17  C   UNL     1     -46.918 -51.686  12.097  1.00  0.00     0.041 C 
ENDBRANCH   9  10
ENDBRANCH   8   9
ENDBRANCH   7   8
ENDBRANCH   1   7
BRANCH   4  18
HETATM   18  C   UNL     1     -40.074 -48.884  11.089  1.00  0.00     0.108 A 
HETATM   19  C   UNL     1     -39.730 -47.642  11.601  1.00  0.00     0.049 A 
HETATM   20  C   UNL     1     -40.603 -46.571  11.408  1.00  0.00     0.005 A 
HETATM   21  C   UNL     1     -41.788 -46.770  10.705  1.00  0.00     0.017 A 
HETATM   22  C   UNL     1     -42.047 -48.034  10.217  1.00  0.00     0.089 A 
HETATM   23  N   UNL     1     -41.217 -49.084  10.391  1.00  0.00    -0.352 N 
ATOM     24  HN  UNL     1     -41.445 -50.001  10.008  1.00  0.00     0.166 HD
ENDBRANCH   4  18
TORSDOF 5
ENDMDL
MODEL 6
REMARK VINA RESULT:      -5.9      2.577      3.573
REMARK  5 active torsions:
REMARK  status: ('A' for Active; 'I' for Inactive)
REMARK    1  A    between atoms: N_4  and  C_5 
REMARK    2  A    between atoms: C_5  and  C_6 
REMARK    3  A    between atoms: C_6  and  C_7 
REMARK    4  A    between atoms: C_7  and  N_8 
REMARK       I    between atoms: N_8  and  C_9 
REMARK       I    between atoms: C_9  and  N_11 
REMARK    5  A    between atoms: N_11  and  C_12 
ROOT
HETATM    1  N   UNL     1     -40.176 -50.468  12.206  1.00  0.00    -0.343 N 
HETATM    2  C   UNL     1     -39.214 -49.608  11.786  1.00  0.00     0.321 C 
HETATM    3  O   UNL     1     -38.011 -49.833  11.883  1.00  0.00    -0.247 OA
HETATM    4  N   UNL     1     -39.657 -48.433  11.243  1.00  0.00    -0.295 N 
HETATM    5  H   UNL     1     -41.128 -50.165  12.012  1.00  0.00     0.164 HD
HETATM    6  H   UNL     1     -38.907 -47.817  10.970  1.00  0.00     0.172 HD
ENDROOT
BRANCH   1   7
HETATM    7  C   UNL     1     -39.937 -51.748  12.814  1.00  0.00     0.126 C 
BRANCH   7   8
HETATM    8  C   UNL     1     -40.921 -52.809  12.320  1.00  0.00     0.050 C 
BRANCH   8   9
HETATM    9  C   UNL     1     -42.382 -52.467  12.663  1.00  0.00     0.274 C 
BRANCH   9  10
HETATM   10  N   UNL     1     -43.103 -53.558  13.346  1.00  0.00     0.093 N 
HETATM   11  C   UNL     1     -44.337 -53.085  14.009  1.00  0.00     0.303 C 
HETATM   12  C   UNL     1     -45.061 -54.219  14.764  1.00  0.00     0.146 C 
HETATM   13  C   UNL     1     -45.672 -55.258  13.824  1.00  0.00     0.041 C 
HETATM   14  O   UNL     1     -44.196 -54.827  15.734  1.00  0.00    -0.378 OA
HETATM   15  C   UNL     1     -42.964 -55.294  15.158  1.00  0.00     0.146 C 
HETATM   16  C   UNL     1     -42.237 -54.169  14.384  1.00  0.00     0.303 C 
HETATM   17  C   UNL     1     -42.105 -55.815  16.305  1.00  0.00     0.041 C 
ENDBRANCH   9  10
ENDBRANCH   8   9
ENDBRANCH   7   8
ENDBRANCH   1   7
BRANCH   4  18
HETATM   18  C   UNL     1     -40.979 -47.995  11.080  1.00  0.00     0.108 A 
HETATM   19  C   UNL     1     -41.582 -47.317  12.129  1.00  0.00     0.049 A 
HETATM   20  C   UNL     1     -42.908 -46.906  11.989  1.00  0.00     0.005 A 
HETATM   21  C   UNL     1     -43.590 -47.180  10.806  1.00  0.00     0.017 A 
HETATM   22  C   UNL     1     -42.911 -47.847   9.807  1.00  0.00     0.089 A 
HETATM   23  N   UNL     1     -41.629 -48.252   9.920  1.00  0.00    -0.352 N 
ATOM     24  HN  UNL     1     -41.162 -48.737   9.154  1.00  0.00     0.166 HD
ENDBRANCH   4  18
TORSDOF 5
ENDMDL
MODEL 7
REMARK VINA RESULT:      -5.9      3.744      7.279
REMARK  5 active torsions:
REMARK  status: ('A' for Active; 'I' for Inactive)
REMARK    1  A    between atoms: N_4  and  C_5 
REMARK    2  A    between atoms: C_5  and  C_6 
REMARK    3  A    between atoms: C_6  and  C_7 
REMARK    4  A    between atoms: C_7  and  N_8 
REMARK       I    between atoms: N_8  and  C_9 
REMARK       I    between atoms: C_9  and  N_11 
REMARK    5  A    between atoms: N_11  and  C_12 
ROOT
HETATM    1  N   UNL     1     -42.596 -54.008  14.692  1.00  0.00    -0.343 N 
HETATM    2  C   UNL     1     -43.446 -55.009  15.032  1.00  0.00     0.321 C 
HETATM    3  O   UNL     1     -43.080 -56.078  15.513  1.00  0.00    -0.247 OA
HETATM    4  N   UNL     1     -44.773 -54.774  14.797  1.00  0.00    -0.295 N 
HETATM    5  H   UNL     1     -43.052 -53.164  14.353  1.00  0.00     0.164 HD
HETATM    6  H   UNL     1     -45.361 -55.555  15.042  1.00  0.00     0.172 HD
ENDROOT
BRANCH   1   7
HETATM    7  C   UNL     1     -41.167 -54.045  14.840  1.00  0.00     0.126 C 
BRANCH   7   8
HETATM    8  C   UNL     1     -40.447 -53.813  13.511  1.00  0.00     0.050 C 
BRANCH   8   9
HETATM    9  C   UNL     1     -41.158 -52.775  12.626  1.00  0.00     0.274 C 
BRANCH   9  10
HETATM   10  N   UNL     1     -40.282 -51.675  12.178  1.00  0.00     0.093 N 
HETATM   11  C   UNL     1     -39.344 -51.241  13.235  1.00  0.00     0.303 C 
HETATM   12  C   UNL     1     -38.464 -50.059  12.780  1.00  0.00     0.146 C 
HETATM   13  C   UNL     1     -37.454 -50.455  11.703  1.00  0.00     0.041 C 
HETATM   14  O   UNL     1     -39.270 -48.946  12.365  1.00  0.00    -0.378 OA
HETATM   15  C   UNL     1     -40.222 -49.303  11.349  1.00  0.00     0.146 C 
HETATM   16  C   UNL     1     -41.099 -50.499  11.788  1.00  0.00     0.303 C 
HETATM   17  C   UNL     1     -41.074 -48.068  11.081  1.00  0.00     0.041 C 
ENDBRANCH   9  10
ENDBRANCH   8   9
ENDBRANCH   7   8
ENDBRANCH   1   7
BRANCH   4  18
HETATM   18  C   UNL     1     -45.366 -53.637  14.233  1.00  0.00     0.108 A 
HETATM   19  C   UNL     1     -45.847 -52.653  15.085  1.00  0.00     0.049 A 
HETATM   20  C   UNL     1     -46.468 -51.532  14.534  1.00  0.00     0.005 A 
HETATM   21  C   UNL     1     -46.587 -51.424  13.150  1.00  0.00     0.017 A 
HETATM   22  C   UNL     1     -46.070 -52.440  12.375  1.00  0.00     0.089 A 
HETATM   23  N   UNL     1     -45.464 -53.533  12.886  1.00  0.00    -0.352 N 
ATOM     24  HN  UNL     1     -45.089 -54.259  12.275  1.00  0.00     0.166 HD
ENDBRANCH   4  18
TORSDOF 5
ENDMDL
MODEL 8
REMARK VINA RESULT:      -5.9      2.099      3.156
REMARK  5 active torsions:
REMARK  status: ('A' for Active; 'I' for Inactive)
REMARK    1  A    between atoms: N_4  and  C_5 
REMARK    2  A    between atoms: C_5  and  C_6 
REMARK    3  A    between atoms: C_6  and  C_7 
REMARK    4  A    between atoms: C_7  and  N_8 
REMARK       I    between atoms: N_8  and  C_9 
REMARK       I    between atoms: C_9  and  N_11 
REMARK    5  A    between atoms: N_11  and  C_12 
ROOT
HETATM    1  N   UNL     1     -42.504 -49.849  11.865  1.00  0.00    -0.343 N 
HETATM    2  C   UNL     1     -41.269 -49.816  11.304  1.00  0.00     0.321 C 
HETATM    3  O   UNL     1     -40.364 -50.588  11.607  1.00  0.00    -0.247 OA
HETATM    4  N   UNL     1     -41.065 -48.843  10.365  1.00  0.00    -0.295 N 
HETATM    5  H   UNL     1     -43.164 -49.179  11.476  1.00  0.00     0.164 HD
HETATM    6  H   UNL     1     -40.126 -48.842   9.996  1.00  0.00     0.172 HD
ENDROOT
BRANCH   1   7
HETATM    7  C   UNL     1     -42.932 -50.776  12.877  1.00  0.00     0.126 C 
BRANCH   7   8
HETATM    8  C   UNL     1     -44.336 -50.455  13.390  1.00  0.00     0.050 C 
BRANCH   8   9
HETATM    9  C   UNL     1     -44.532 -50.848  14.865  1.00  0.00     0.274 C 
BRANCH   9  10
HETATM   10  N   UNL     1     -44.776 -52.289  15.069  1.00  0.00     0.093 N 
HETATM   11  C   UNL     1     -45.935 -52.776  14.293  1.00  0.00     0.303 C 
HETATM   12  C   UNL     1     -46.216 -54.271  14.548  1.00  0.00     0.146 C 
HETATM   13  C   UNL     1     -45.134 -55.183  13.971  1.00  0.00     0.041 C 
HETATM   14  O   UNL     1     -46.432 -54.524  15.945  1.00  0.00    -0.378 OA
HETATM   15  C   UNL     1     -45.348 -54.055  16.763  1.00  0.00     0.146 C 
HETATM   16  C   UNL     1     -45.045 -52.561  16.503  1.00  0.00     0.303 C 
HETATM   17  C   UNL     1     -45.751 -54.289  18.215  1.00  0.00     0.041 C 
ENDBRANCH   9  10
ENDBRANCH   8   9
ENDBRANCH   7   8
ENDBRANCH   1   7
BRANCH   4  18
HETATM   18  C   UNL     1     -41.963 -47.864   9.918  1.00  0.00     0.108 A 
HETATM   19  C   UNL     1     -41.996 -46.647  10.584  1.00  0.00     0.049 A 
HETATM   20  C   UNL     1     -42.909 -45.678  10.168  1.00  0.00     0.005 A 
HETATM   21  C   UNL     1     -43.758 -45.950   9.097  1.00  0.00     0.017 A 
HETATM   22  C   UNL     1     -43.651 -47.180   8.483  1.00  0.00     0.089 A 
HETATM   23  N   UNL     1     -42.774 -48.131   8.867  1.00  0.00    -0.352 N 
ATOM     24  HN  UNL     1     -42.723 -49.026   8.380  1.00  0.00     0.166 HD
ENDBRANCH   4  18
TORSDOF 5
ENDMDL
MODEL 9
REMARK VINA RESULT:      -5.8      3.227      4.566
REMARK  5 active torsions:
REMARK  status: ('A' for Active; 'I' for Inactive)
REMARK    1  A    between atoms: N_4  and  C_5 
REMARK    2  A    between atoms: C_5  and  C_6 
REMARK    3  A    between atoms: C_6  and  C_7 
REMARK    4  A    between atoms: C_7  and  N_8 
REMARK       I    between atoms: N_8  and  C_9 
REMARK       I    between atoms: C_9  and  N_11 
REMARK    5  A    between atoms: N_11  and  C_12 
ROOT
HETATM    1  N   UNL     1     -40.955 -51.669  13.598  1.00  0.00    -0.343 N 
HETATM    2  C   UNL     1     -40.735 -52.198  12.368  1.00  0.00     0.321 C 
HETATM    3  O   UNL     1     -40.592 -53.399  12.160  1.00  0.00    -0.247 OA
HETATM    4  N   UNL     1     -40.663 -51.304  11.335  1.00  0.00    -0.295 N 
HETATM    5  H   UNL     1     -41.103 -50.662  13.604  1.00  0.00     0.164 HD
HETATM    6  H   UNL     1     -40.474 -51.741  10.447  1.00  0.00     0.172 HD
ENDROOT
BRANCH   1   7
HETATM    7  C   UNL     1     -41.053 -52.419  14.819  1.00  0.00     0.126 C 
BRANCH   7   8
HETATM    8  C   UNL     1     -42.331 -52.090  15.592  1.00  0.00     0.050 C 
BRANCH   8   9
HETATM    9  C   UNL     1     -43.081 -50.880  15.008  1.00  0.00     0.274 C 
BRANCH   9  10
HETATM   10  N   UNL     1     -44.540 -51.077  14.905  1.00  0.00     0.093 N 
HETATM   11  C   UNL     1     -44.997 -52.269  15.651  1.00  0.00     0.303 C 
HETATM   12  C   UNL     1     -46.515 -52.500  15.500  1.00  0.00     0.146 C 
HETATM   13  C   UNL     1     -47.348 -51.432  16.208  1.00  0.00     0.041 C 
HETATM   14  O   UNL     1     -46.882 -52.628  14.118  1.00  0.00    -0.378 OA
HETATM   15  C   UNL     1     -46.449 -51.508  13.328  1.00  0.00     0.146 C 
HETATM   16  C   UNL     1     -44.931 -51.256  13.485  1.00  0.00     0.303 C 
HETATM   17  C   UNL     1     -46.807 -51.819  11.879  1.00  0.00     0.041 C 
ENDBRANCH   9  10
ENDBRANCH   8   9
ENDBRANCH   7   8
ENDBRANCH   1   7
BRANCH   4  18
HETATM   18  C   UNL     1     -40.772 -49.907  11.387  1.00  0.00     0.108 A 
HETATM   19  C   UNL     1     -39.630 -49.168  11.659  1.00  0.00     0.049 A 
HETATM   20  C   UNL     1     -39.734 -47.779  11.745  1.00  0.00     0.005 A 
HETATM   21  C   UNL     1     -40.971 -47.170  11.551  1.00  0.00     0.017 A 
HETATM   22  C   UNL     1     -42.053 -47.978  11.271  1.00  0.00     0.089 A 
HETATM   23  N   UNL     1     -41.976 -49.323  11.182  1.00  0.00    -0.352 N 
ATOM     24  HN  UNL     1     -42.801 -49.882  10.966  1.00  0.00     0.166 HD
ENDBRANCH   4  18
TORSDOF 5
ENDMDL
