MODEL 1
REMARK VINA RESULT:      -7.9      0.000      0.000
REMARK  7 active torsions:
REMARK  status: ('A' for Active; 'I' for Inactive)
REMARK    1  A    between atoms: C_2  and  N_4 
REMARK    2  A    between atoms: N_3  and  C_15 
REMARK    3  A    between atoms: C_8  and  C_10 
REMARK    4  A    between atoms: C_15  and  C_16 
REMARK    5  A    between atoms: C_16  and  C_26 
REMARK    6  A    between atoms: C_18  and  O_25 
REMARK    7  A    between atoms: C_26  and  O_27 
ROOT
HETATM    1  C   UNL     1     -41.921 -49.384  12.091  1.00  0.00     0.117 A 
HETATM    2  C   UNL     1     -41.068 -48.683  11.194  1.00  0.00     0.115 A 
HETATM    3  N   UNL     1     -42.443 -51.027  13.464  1.00  0.00    -0.326 N 
HETATM    4  C   UNL     1     -41.399 -50.498  12.738  1.00  0.00     0.140 A 
HETATM    5  N   UNL     1     -43.239 -49.199  12.462  1.00  0.00    -0.346 N 
ATOM      6  HN  UNL     1     -43.865 -48.449  12.168  1.00  0.00     0.167 HD
HETATM    7  C   UNL     1     -43.517 -50.195  13.276  1.00  0.00     0.185 A 
HETATM    8  N   UNL     1     -39.808 -49.169  11.032  1.00  0.00    -0.341 N 
ATOM      9  HN  UNL     1     -39.161 -48.725  10.381  1.00  0.00     0.167 HD
HETATM   10  N   UNL     1     -40.150 -50.985  12.623  1.00  0.00    -0.336 N 
ATOM     11  HN  UNL     1     -39.796 -51.798  13.128  1.00  0.00     0.168 HD
HETATM   12  C   UNL     1     -39.427 -50.250  11.747  1.00  0.00     0.183 A 
ENDROOT
BRANCH   2  13
HETATM   13  N   UNL     1     -41.496 -47.555  10.492  1.00  0.00    -0.262 NA
HETATM   14  C   UNL     1     -41.649 -46.254  11.180  1.00  0.00     0.073 C 
HETATM   15  C   UNL     1     -42.643 -45.487  10.272  1.00  0.00     0.022 C 
HETATM   16  C   UNL     1     -43.065 -46.462   9.180  1.00  0.00     0.017 C 
HETATM   17  C   UNL     1     -42.738 -47.821   9.762  1.00  0.00     0.097 C 
BRANCH  14  18
HETATM   18  C   UNL     1     -40.279 -45.584  11.465  1.00  0.00     0.056 C 
HETATM   19  C   UNL     1     -40.211 -44.929  12.859  1.00  0.00     0.128 C 
HETATM   20  C   UNL     1     -40.846 -43.542  12.924  1.00  0.00     0.058 C 
HETATM   21  C   UNL     1     -40.442 -42.676  11.734  1.00  0.00     0.170 C 
HETATM   22  O   UNL     1     -40.595 -43.354  10.492  1.00  0.00    -0.391 OA
HETATM   23  C   UNL     1     -39.851 -44.567  10.406  1.00  0.00     0.176 C 
BRANCH  19  24
HETATM   24  O   UNL     1     -38.839 -44.814  13.278  1.00  0.00    -0.395 OA
HETATM   25  H   UNL     1     -38.270 -44.760  12.490  1.00  0.00     0.210 HD
ENDBRANCH  19  24
ENDBRANCH  14  18
ENDBRANCH   2  13
BRANCH   3  26
HETATM   26  C   UNL     1     -42.426 -52.238  14.288  1.00  0.00     0.143 C 
BRANCH  26  27
HETATM   27  C   UNL     1     -42.519 -53.595  13.507  1.00  0.00     0.001 C 
HETATM   28  C   UNL     1     -43.330 -53.407  12.195  1.00  0.00     0.039 C 
HETATM   29  C   UNL     1     -44.832 -53.307  12.476  1.00  0.00     0.168 C 
HETATM   30  O   UNL     1     -45.282 -54.519  13.067  1.00  0.00    -0.391 OA
HETATM   31  C   UNL     1     -44.726 -54.717  14.364  1.00  0.00     0.168 C 
HETATM   32  C   UNL     1     -43.199 -54.722  14.340  1.00  0.00     0.039 C 
BRANCH  27  33
HETATM   33  C   UNL     1     -41.088 -54.103  13.195  1.00  0.00     0.175 C 
BRANCH  33  34
HETATM   34  O   UNL     1     -40.754 -53.812  11.838  1.00  0.00    -0.400 OA
HETATM   35  H   UNL     1     -41.439 -54.228  11.272  1.00  0.00     0.209 HD
ENDBRANCH  33  34
ENDBRANCH  27  33
ENDBRANCH  26  27
ENDBRANCH   3  26
TORSDOF 7
ENDMDL
MODEL 2
REMARK VINA RESULT:      -7.3      1.572      2.290
REMARK  7 active torsions:
REMARK  status: ('A' for Active; 'I' for Inactive)
REMARK    1  A    between atoms: C_2  and  N_4 
REMARK    2  A    between atoms: N_3  and  C_15 
REMARK    3  A    between atoms: C_8  and  C_10 
REMARK    4  A    between atoms: C_15  and  C_16 
REMARK    5  A    between atoms: C_16  and  C_26 
REMARK    6  A    between atoms: C_18  and  O_25 
REMARK    7  A    between atoms: C_26  and  O_27 
ROOT
HETATM    1  C   UNL     1     -40.950 -49.447  12.572  1.00  0.00     0.117 A 
HETATM    2  C   UNL     1     -40.356 -48.700  11.518  1.00  0.00     0.115 A 
HETATM    3  N   UNL     1     -41.032 -51.076  14.054  1.00  0.00    -0.326 N 
HETATM    4  C   UNL     1     -40.201 -50.474  13.136  1.00  0.00     0.140 A 
HETATM    5  N   UNL     1     -42.191 -49.384  13.177  1.00  0.00    -0.346 N 
ATOM      6  HN  UNL     1     -42.937 -48.715  12.988  1.00  0.00     0.167 HD
HETATM    7  C   UNL     1     -42.206 -50.367  14.050  1.00  0.00     0.185 A 
HETATM    8  N   UNL     1     -39.101 -49.060  11.136  1.00  0.00    -0.341 N 
ATOM      9  HN  UNL     1     -38.636 -48.580  10.367  1.00  0.00     0.167 HD
HETATM   10  N   UNL     1     -38.949 -50.834  12.803  1.00  0.00    -0.336 N 
ATOM     11  HN  UNL     1     -38.422 -51.584  13.251  1.00  0.00     0.168 HD
HETATM   12  C   UNL     1     -38.481 -50.066  11.792  1.00  0.00     0.183 A 
ENDROOT
BRANCH   2  13
HETATM   13  N   UNL     1     -41.024 -47.652  10.882  1.00  0.00    -0.262 NA
HETATM   14  C   UNL     1     -41.290 -46.385  11.599  1.00  0.00     0.073 C 
HETATM   15  C   UNL     1     -42.484 -45.780  10.819  1.00  0.00     0.022 C 
HETATM   16  C   UNL     1     -42.878 -46.813   9.770  1.00  0.00     0.017 C 
HETATM   17  C   UNL     1     -42.287 -48.105  10.296  1.00  0.00     0.097 C 
BRANCH  14  18
HETATM   18  C   UNL     1     -40.011 -45.516  11.735  1.00  0.00     0.056 C 
HETATM   19  C   UNL     1     -39.996 -44.671  13.024  1.00  0.00     0.128 C 
HETATM   20  C   UNL     1     -40.803 -43.378  12.927  1.00  0.00     0.058 C 
HETATM   21  C   UNL     1     -40.542 -42.643  11.616  1.00  0.00     0.170 C 
HETATM   22  O   UNL     1     -40.636 -43.500  10.483  1.00  0.00    -0.391 OA
HETATM   23  C   UNL     1     -39.743 -44.612  10.532  1.00  0.00     0.176 C 
BRANCH  19  24
HETATM   24  O   UNL     1     -38.641 -44.329  13.367  1.00  0.00    -0.395 OA
HETATM   25  H   UNL     1     -38.044 -44.671  12.679  1.00  0.00     0.210 HD
ENDBRANCH  19  24
ENDBRANCH  14  18
ENDBRANCH   2  13
BRANCH   3  26
HETATM   26  C   UNL     1     -40.733 -52.244  14.887  1.00  0.00     0.143 C 
BRANCH  26  27
HETATM   27  C   UNL     1     -40.844 -53.636  14.174  1.00  0.00     0.001 C 
HETATM   28  C   UNL     1     -41.693 -54.615  15.032  1.00  0.00     0.039 C 
HETATM   29  C   UNL     1     -40.900 -55.139  16.233  1.00  0.00     0.168 C 
HETATM   30  O   UNL     1     -39.772 -55.871  15.768  1.00  0.00    -0.391 OA
HETATM   31  C   UNL     1     -38.831 -55.033  15.102  1.00  0.00     0.168 C 
HETATM   32  C   UNL     1     -39.455 -54.294  13.921  1.00  0.00     0.039 C 
BRANCH  27  33
HETATM   33  C   UNL     1     -41.484 -53.442  12.775  1.00  0.00     0.175 C 
BRANCH  33  34
HETATM   34  O   UNL     1     -40.486 -53.572  11.762  1.00  0.00    -0.400 OA
HETATM   35  H   UNL     1     -40.929 -53.442  10.897  1.00  0.00     0.209 HD
ENDBRANCH  33  34
ENDBRANCH  27  33
ENDBRANCH  26  27
ENDBRANCH   3  26
TORSDOF 7
ENDMDL
MODEL 3
REMARK VINA RESULT:      -7.0      1.643      8.485
REMARK  7 active torsions:
REMARK  status: ('A' for Active; 'I' for Inactive)
REMARK    1  A    between atoms: C_2  and  N_4 
REMARK    2  A    between atoms: N_3  and  C_15 
REMARK    3  A    between atoms: C_8  and  C_10 
REMARK    4  A    between atoms: C_15  and  C_16 
REMARK    5  A    between atoms: C_16  and  C_26 
REMARK    6  A    between atoms: C_18  and  O_25 
REMARK    7  A    between atoms: C_26  and  O_27 
ROOT
HETATM    1  C   UNL     1     -41.990 -49.109  12.347  1.00  0.00     0.117 A 
HETATM    2  C   UNL     1     -42.253 -50.141  13.288  1.00  0.00     0.115 A 
HETATM    3  N   UNL     1     -41.801 -47.012  11.696  1.00  0.00    -0.326 N 
HETATM    4  C   UNL     1     -41.994 -47.798  12.810  1.00  0.00     0.140 A 
HETATM    5  N   UNL     1     -41.737 -49.127  10.988  1.00  0.00    -0.346 N 
ATOM      6  HN  UNL     1     -41.648 -49.946  10.386  1.00  0.00     0.167 HD
HETATM    7  C   UNL     1     -41.633 -47.864  10.634  1.00  0.00     0.185 A 
HETATM    8  N   UNL     1     -42.502 -49.761  14.570  1.00  0.00    -0.341 N 
ATOM      9  HN  UNL     1     -42.726 -50.455  15.282  1.00  0.00     0.167 HD
HETATM   10  N   UNL     1     -42.206 -47.391  14.074  1.00  0.00    -0.336 N 
ATOM     11  HN  UNL     1     -42.185 -46.419  14.381  1.00  0.00     0.168 HD
HETATM   12  C   UNL     1     -42.449 -48.448  14.884  1.00  0.00     0.183 A 
ENDROOT
BRANCH   2  13
HETATM   13  N   UNL     1     -42.275 -51.490  12.925  1.00  0.00    -0.262 NA
HETATM   14  C   UNL     1     -43.135 -52.450  13.652  1.00  0.00     0.073 C 
HETATM   15  C   UNL     1     -42.459 -53.815  13.369  1.00  0.00     0.022 C 
HETATM   16  C   UNL     1     -41.192 -53.511  12.580  1.00  0.00     0.017 C 
HETATM   17  C   UNL     1     -40.923 -52.050  12.878  1.00  0.00     0.097 C 
BRANCH  14  18
HETATM   18  C   UNL     1     -44.630 -52.298  13.265  1.00  0.00     0.056 C 
HETATM   19  C   UNL     1     -45.528 -51.948  14.468  1.00  0.00     0.128 C 
HETATM   20  C   UNL     1     -45.923 -53.154  15.318  1.00  0.00     0.058 C 
HETATM   21  C   UNL     1     -46.351 -54.339  14.459  1.00  0.00     0.170 C 
HETATM   22  O   UNL     1     -45.426 -54.615  13.412  1.00  0.00    -0.391 OA
HETATM   23  C   UNL     1     -45.209 -53.511  12.536  1.00  0.00     0.176 C 
BRANCH  19  24
HETATM   24  O   UNL     1     -46.733 -51.310  14.008  1.00  0.00    -0.395 OA
HETATM   25  H   UNL     1     -46.808 -50.435  14.427  1.00  0.00     0.210 HD
ENDBRANCH  19  24
ENDBRANCH  14  18
ENDBRANCH   2  13
BRANCH   3  26
HETATM   26  C   UNL     1     -41.772 -45.548  11.638  1.00  0.00     0.143 C 
BRANCH  26  27
HETATM   27  C   UNL     1     -40.347 -44.898  11.559  1.00  0.00     0.001 C 
HETATM   28  C   UNL     1     -39.446 -45.433  12.708  1.00  0.00     0.039 C 
HETATM   29  C   UNL     1     -39.814 -44.794  14.050  1.00  0.00     0.168 C 
HETATM   30  O   UNL     1     -39.599 -43.390  13.978  1.00  0.00    -0.391 OA
HETATM   31  C   UNL     1     -40.495 -42.760  13.067  1.00  0.00     0.168 C 
HETATM   32  C   UNL     1     -40.389 -43.344  11.660  1.00  0.00     0.039 C 
BRANCH  27  33
HETATM   33  C   UNL     1     -39.717 -45.217  10.179  1.00  0.00     0.175 C 
BRANCH  33  34
HETATM   34  O   UNL     1     -39.626 -44.025   9.399  1.00  0.00    -0.400 OA
HETATM   35  H   UNL     1     -39.456 -44.294   8.471  1.00  0.00     0.209 HD
ENDBRANCH  33  34
ENDBRANCH  27  33
ENDBRANCH  26  27
ENDBRANCH   3  26
TORSDOF 7
ENDMDL
MODEL 4
REMARK VINA RESULT:      -7.0      1.868      3.024
REMARK  7 active torsions:
REMARK  status: ('A' for Active; 'I' for Inactive)
REMARK    1  A    between atoms: C_2  and  N_4 
REMARK    2  A    between atoms: N_3  and  C_15 
REMARK    3  A    between atoms: C_8  and  C_10 
REMARK    4  A    between atoms: C_15  and  C_16 
REMARK    5  A    between atoms: C_16  and  C_26 
REMARK    6  A    between atoms: C_18  and  O_25 
REMARK    7  A    between atoms: C_26  and  O_27 
ROOT
HETATM    1  C   UNL     1     -40.524 -49.309  13.942  1.00  0.00     0.117 A 
HETATM    2  C   UNL     1     -39.709 -48.432  13.175  1.00  0.00     0.115 A 
HETATM    3  N   UNL     1     -41.208 -51.283  14.644  1.00  0.00    -0.326 N 
HETATM    4  C   UNL     1     -40.231 -50.667  13.894  1.00  0.00     0.140 A 
HETATM    5  N   UNL     1     -41.621 -49.093  14.754  1.00  0.00    -0.346 N 
ATOM      6  HN  UNL     1     -42.044 -48.197  14.996  1.00  0.00     0.167 HD
HETATM    7  C   UNL     1     -42.004 -50.287  15.152  1.00  0.00     0.185 A 
HETATM    8  N   UNL     1     -38.712 -48.997  12.442  1.00  0.00    -0.341 N 
ATOM      9  HN  UNL     1     -38.114 -48.420  11.850  1.00  0.00     0.167 HD
HETATM   10  N   UNL     1     -39.234 -51.253  13.206  1.00  0.00    -0.336 N 
ATOM     11  HN  UNL     1     -39.039 -52.254  13.208  1.00  0.00     0.168 HD
HETATM   12  C   UNL     1     -38.526 -50.333  12.511  1.00  0.00     0.183 A 
ENDROOT
BRANCH   2  13
HETATM   13  N   UNL     1     -39.922 -47.052  13.150  1.00  0.00    -0.262 NA
HETATM   14  C   UNL     1     -40.520 -46.404  11.961  1.00  0.00     0.073 C 
HETATM   15  C   UNL     1     -40.052 -44.933  12.087  1.00  0.00     0.022 C 
HETATM   16  C   UNL     1     -39.126 -44.879  13.296  1.00  0.00     0.017 C 
HETATM   17  C   UNL     1     -38.700 -46.319  13.489  1.00  0.00     0.097 C 
BRANCH  14  18
HETATM   18  C   UNL     1     -42.047 -46.663  11.866  1.00  0.00     0.056 C 
HETATM   19  C   UNL     1     -42.388 -47.952  11.094  1.00  0.00     0.128 C 
HETATM   20  C   UNL     1     -42.373 -47.788   9.575  1.00  0.00     0.058 C 
HETATM   21  C   UNL     1     -43.081 -46.511   9.135  1.00  0.00     0.170 C 
HETATM   22  O   UNL     1     -42.653 -45.370   9.870  1.00  0.00    -0.391 OA
HETATM   23  C   UNL     1     -42.840 -45.495  11.279  1.00  0.00     0.176 C 
BRANCH  19  24
HETATM   24  O   UNL     1     -43.693 -48.421  11.480  1.00  0.00    -0.395 OA
HETATM   25  H   UNL     1     -44.025 -47.869  12.210  1.00  0.00     0.210 HD
ENDBRANCH  19  24
ENDBRANCH  14  18
ENDBRANCH   2  13
BRANCH   3  26
HETATM   26  C   UNL     1     -41.378 -52.720  14.871  1.00  0.00     0.143 C 
BRANCH  26  27
HETATM   27  C   UNL     1     -41.983 -53.532  13.674  1.00  0.00     0.001 C 
HETATM   28  C   UNL     1     -42.847 -52.605  12.776  1.00  0.00     0.039 C 
HETATM   29  C   UNL     1     -44.198 -52.294  13.428  1.00  0.00     0.168 C 
HETATM   30  O   UNL     1     -44.929 -53.503  13.594  1.00  0.00    -0.391 OA
HETATM   31  C   UNL     1     -44.310 -54.374  14.537  1.00  0.00     0.168 C 
HETATM   32  C   UNL     1     -42.876 -54.720  14.144  1.00  0.00     0.039 C 
BRANCH  27  33
HETATM   33  C   UNL     1     -40.831 -54.166  12.854  1.00  0.00     0.175 C 
BRANCH  33  34
HETATM   34  O   UNL     1     -40.611 -53.413  11.661  1.00  0.00    -0.400 OA
HETATM   35  H   UNL     1     -41.481 -53.065  11.370  1.00  0.00     0.209 HD
ENDBRANCH  33  34
ENDBRANCH  27  33
ENDBRANCH  26  27
ENDBRANCH   3  26
TORSDOF 7
ENDMDL
MODEL 5
REMARK VINA RESULT:      -6.8      2.032      7.775
REMARK  7 active torsions:
REMARK  status: ('A' for Active; 'I' for Inactive)
REMARK    1  A    between atoms: C_2  and  N_4 
REMARK    2  A    between atoms: N_3  and  C_15 
REMARK    3  A    between atoms: C_8  and  C_10 
REMARK    4  A    between atoms: C_15  and  C_16 
REMARK    5  A    between atoms: C_16  and  C_26 
REMARK    6  A    between atoms: C_18  and  O_25 
REMARK    7  A    between atoms: C_26  and  O_27 
ROOT
HETATM    1  C   UNL     1     -40.589 -49.955  12.492  1.00  0.00     0.117 A 
HETATM    2  C   UNL     1     -40.392 -50.827  13.597  1.00  0.00     0.115 A 
HETATM    3  N   UNL     1     -40.708 -47.987  11.508  1.00  0.00    -0.326 N 
HETATM    4  C   UNL     1     -40.366 -48.598  12.694  1.00  0.00     0.140 A 
HETATM    5  N   UNL     1     -40.999 -50.176  11.190  1.00  0.00    -0.346 N 
ATOM      6  HN  UNL     1     -41.208 -51.073  10.752  1.00  0.00     0.167 HD
HETATM    7  C   UNL     1     -41.062 -48.985  10.636  1.00  0.00     0.185 A 
HETATM    8  N   UNL     1     -40.012 -50.259  14.773  1.00  0.00    -0.341 N 
ATOM      9  HN  UNL     1     -39.883 -50.831  15.607  1.00  0.00     0.167 HD
HETATM   10  N   UNL     1     -39.960 -48.009  13.833  1.00  0.00    -0.336 N 
ATOM     11  HN  UNL     1     -39.791 -47.009  13.940  1.00  0.00     0.168 HD
HETATM   12  C   UNL     1     -39.807 -48.924  14.818  1.00  0.00     0.183 A 
ENDROOT
BRANCH   2  13
HETATM   13  N   UNL     1     -40.592 -52.206  13.501  1.00  0.00    -0.262 NA
HETATM   14  C   UNL     1     -41.825 -52.826  14.036  1.00  0.00     0.073 C 
HETATM   15  C   UNL     1     -41.409 -54.301  14.265  1.00  0.00     0.022 C 
HETATM   16  C   UNL     1     -39.924 -54.383  13.935  1.00  0.00     0.017 C 
HETATM   17  C   UNL     1     -39.450 -52.948  14.039  1.00  0.00     0.097 C 
BRANCH  14  18
HETATM   18  C   UNL     1     -43.051 -52.562  13.123  1.00  0.00     0.056 C 
HETATM   19  C   UNL     1     -43.992 -51.477  13.683  1.00  0.00     0.128 C 
HETATM   20  C   UNL     1     -44.959 -51.985  14.749  1.00  0.00     0.058 C 
HETATM   21  C   UNL     1     -45.596 -53.312  14.352  1.00  0.00     0.170 C 
HETATM   22  O   UNL     1     -44.637 -54.264  13.904  1.00  0.00    -0.391 OA
HETATM   23  C   UNL     1     -43.862 -53.815  12.794  1.00  0.00     0.176 C 
BRANCH  19  24
HETATM   24  O   UNL     1     -44.765 -50.903  12.613  1.00  0.00    -0.395 OA
HETATM   25  H   UNL     1     -44.382 -51.177  11.762  1.00  0.00     0.210 HD
ENDBRANCH  19  24
ENDBRANCH  14  18
ENDBRANCH   2  13
BRANCH   3  26
HETATM   26  C   UNL     1     -40.696 -46.551  11.215  1.00  0.00     0.143 C 
BRANCH  26  27
HETATM   27  C   UNL     1     -42.100 -45.853  11.174  1.00  0.00     0.001 C 
HETATM   28  C   UNL     1     -41.962 -44.346  11.526  1.00  0.00     0.039 C 
HETATM   29  C   UNL     1     -41.751 -44.140  13.029  1.00  0.00     0.168 C 
HETATM   30  O   UNL     1     -42.886 -44.625  13.735  1.00  0.00    -0.391 OA
HETATM   31  C   UNL     1     -43.020 -46.039  13.621  1.00  0.00     0.168 C 
HETATM   32  C   UNL     1     -43.118 -46.491  12.165  1.00  0.00     0.039 C 
BRANCH  27  33
HETATM   33  C   UNL     1     -42.715 -46.028   9.762  1.00  0.00     0.175 C 
BRANCH  33  34
HETATM   34  O   UNL     1     -43.962 -45.338   9.685  1.00  0.00    -0.400 OA
HETATM   35  H   UNL     1     -44.391 -45.601   8.843  1.00  0.00     0.209 HD
ENDBRANCH  33  34
ENDBRANCH  27  33
ENDBRANCH  26  27
ENDBRANCH   3  26
TORSDOF 7
ENDMDL
MODEL 6
REMARK VINA RESULT:      -6.7      2.407      4.005
REMARK  7 active torsions:
REMARK  status: ('A' for Active; 'I' for Inactive)
REMARK    1  A    between atoms: C_2  and  N_4 
REMARK    2  A    between atoms: N_3  and  C_15 
REMARK    3  A    between atoms: C_8  and  C_10 
REMARK    4  A    between atoms: C_15  and  C_16 
REMARK    5  A    between atoms: C_16  and  C_26 
REMARK    6  A    between atoms: C_18  and  O_25 
REMARK    7  A    between atoms: C_26  and  O_27 
ROOT
HETATM    1  C   UNL     1     -42.367 -49.833  13.850  1.00  0.00     0.117 A 
HETATM    2  C   UNL     1     -41.560 -49.487  12.732  1.00  0.00     0.115 A 
HETATM    3  N   UNL     1     -43.582 -51.202  15.078  1.00  0.00    -0.326 N 
HETATM    4  C   UNL     1     -42.751 -51.163  13.980  1.00  0.00     0.140 A 
HETATM    5  N   UNL     1     -42.901 -49.086  14.883  1.00  0.00    -0.346 N 
ATOM      6  HN  UNL     1     -42.766 -48.091  15.060  1.00  0.00     0.167 HD
HETATM    7  C   UNL     1     -43.619 -49.930  15.591  1.00  0.00     0.185 A 
HETATM    8  N   UNL     1     -41.238 -50.487  11.869  1.00  0.00    -0.341 N 
ATOM      9  HN  UNL     1     -40.685 -50.293  11.034  1.00  0.00     0.167 HD
HETATM   10  N   UNL     1     -42.424 -52.180  13.163  1.00  0.00    -0.336 N 
ATOM     11  HN  UNL     1     -42.712 -53.149  13.299  1.00  0.00     0.168 HD
HETATM   12  C   UNL     1     -41.661 -51.742  12.135  1.00  0.00     0.183 A 
ENDROOT
BRANCH   2  13
HETATM   13  N   UNL     1     -41.123 -48.180  12.507  1.00  0.00    -0.262 NA
HETATM   14  C   UNL     1     -41.337 -47.531  11.195  1.00  0.00     0.073 C 
HETATM   15  C   UNL     1     -40.256 -46.422  11.168  1.00  0.00     0.022 C 
HETATM   16  C   UNL     1     -39.433 -46.594  12.438  1.00  0.00     0.017 C 
HETATM   17  C   UNL     1     -39.710 -48.023  12.856  1.00  0.00     0.097 C 
BRANCH  14  18
HETATM   18  C   UNL     1     -42.813 -47.096  10.996  1.00  0.00     0.056 C 
HETATM   19  C   UNL     1     -43.574 -47.997  10.004  1.00  0.00     0.128 C 
HETATM   20  C   UNL     1     -43.328 -47.651   8.537  1.00  0.00     0.058 C 
HETATM   21  C   UNL     1     -43.389 -46.147   8.290  1.00  0.00     0.170 C 
HETATM   22  O   UNL     1     -42.607 -45.410   9.224  1.00  0.00    -0.391 OA
HETATM   23  C   UNL     1     -42.979 -45.633  10.583  1.00  0.00     0.176 C 
BRANCH  19  24
HETATM   24  O   UNL     1     -44.989 -47.910  10.253  1.00  0.00    -0.395 OA
HETATM   25  H   UNL     1     -45.154 -47.207  10.906  1.00  0.00     0.210 HD
ENDBRANCH  19  24
ENDBRANCH  14  18
ENDBRANCH   2  13
BRANCH   3  26
HETATM   26  C   UNL     1     -44.291 -52.367  15.612  1.00  0.00     0.143 C 
BRANCH  26  27
HETATM   27  C   UNL     1     -45.796 -52.499  15.194  1.00  0.00     0.001 C 
HETATM   28  C   UNL     1     -46.048 -53.872  14.511  1.00  0.00     0.039 C 
HETATM   29  C   UNL     1     -45.506 -53.892  13.078  1.00  0.00     0.168 C 
HETATM   30  O   UNL     1     -46.189 -52.916  12.303  1.00  0.00    -0.391 OA
HETATM   31  C   UNL     1     -45.898 -51.591  12.738  1.00  0.00     0.168 C 
HETATM   32  C   UNL     1     -46.247 -51.379  14.210  1.00  0.00     0.039 C 
BRANCH  27  33
HETATM   33  C   UNL     1     -46.690 -52.345  16.451  1.00  0.00     0.175 C 
BRANCH  33  34
HETATM   34  O   UNL     1     -47.475 -51.156  16.346  1.00  0.00    -0.400 OA
HETATM   35  H   UNL     1     -48.175 -51.207  17.032  1.00  0.00     0.209 HD
ENDBRANCH  33  34
ENDBRANCH  27  33
ENDBRANCH  26  27
ENDBRANCH   3  26
TORSDOF 7
ENDMDL
MODEL 7
REMARK VINA RESULT:      -6.6      2.375      8.051
REMARK  7 active torsions:
REMARK  status: ('A' for Active; 'I' for Inactive)
REMARK    1  A    between atoms: C_2  and  N_4 
REMARK    2  A    between atoms: N_3  and  C_15 
REMARK    3  A    between atoms: C_8  and  C_10 
REMARK    4  A    between atoms: C_15  and  C_16 
REMARK    5  A    between atoms: C_16  and  C_26 
REMARK    6  A    between atoms: C_18  and  O_25 
REMARK    7  A    between atoms: C_26  and  O_27 
ROOT
HETATM    1  C   UNL     1     -41.296 -51.640  13.901  1.00  0.00     0.117 A 
HETATM    2  C   UNL     1     -41.553 -52.941  13.387  1.00  0.00     0.115 A 
HETATM    3  N   UNL     1     -40.524 -49.579  13.799  1.00  0.00    -0.326 N 
HETATM    4  C   UNL     1     -40.745 -50.703  13.035  1.00  0.00     0.140 A 
HETATM    5  N   UNL     1     -41.466 -51.081  15.153  1.00  0.00    -0.346 N 
ATOM      6  HN  UNL     1     -41.872 -51.524  15.978  1.00  0.00     0.167 HD
HETATM    7  C   UNL     1     -40.994 -49.858  15.058  1.00  0.00     0.185 A 
HETATM    8  N   UNL     1     -41.225 -53.168  12.087  1.00  0.00    -0.341 N 
ATOM      9  HN  UNL     1     -41.360 -54.090  11.672  1.00  0.00     0.167 HD
HETATM   10  N   UNL     1     -40.440 -50.886  11.738  1.00  0.00    -0.336 N 
ATOM     11  HN  UNL     1     -40.051 -50.168  11.127  1.00  0.00     0.168 HD
HETATM   12  C   UNL     1     -40.718 -52.153  11.353  1.00  0.00     0.183 A 
ENDROOT
BRANCH   2  13
HETATM   13  N   UNL     1     -42.101 -53.956  14.174  1.00  0.00    -0.262 NA
HETATM   14  C   UNL     1     -43.442 -53.798  14.778  1.00  0.00     0.073 C 
HETATM   15  C   UNL     1     -43.414 -54.790  15.969  1.00  0.00     0.022 C 
HETATM   16  C   UNL     1     -42.005 -55.366  16.013  1.00  0.00     0.017 C 
HETATM   17  C   UNL     1     -41.179 -54.361  15.238  1.00  0.00     0.097 C 
BRANCH  14  18
HETATM   18  C   UNL     1     -44.574 -53.970  13.731  1.00  0.00     0.056 C 
HETATM   19  C   UNL     1     -45.119 -52.625  13.212  1.00  0.00     0.128 C 
HETATM   20  C   UNL     1     -46.144 -51.972  14.138  1.00  0.00     0.058 C 
HETATM   21  C   UNL     1     -47.168 -52.980  14.652  1.00  0.00     0.170 C 
HETATM   22  O   UNL     1     -46.559 -54.162  15.161  1.00  0.00    -0.391 OA
HETATM   23  C   UNL     1     -45.738 -54.838  14.210  1.00  0.00     0.176 C 
BRANCH  19  24
HETATM   24  O   UNL     1     -45.734 -52.811  11.925  1.00  0.00    -0.395 OA
HETATM   25  H   UNL     1     -46.266 -53.626  11.942  1.00  0.00     0.210 HD
ENDBRANCH  19  24
ENDBRANCH  14  18
ENDBRANCH   2  13
BRANCH   3  26
HETATM   26  C   UNL     1     -39.912 -48.320  13.367  1.00  0.00     0.143 C 
BRANCH  26  27
HETATM   27  C   UNL     1     -40.862 -47.323  12.617  1.00  0.00     0.001 C 
HETATM   28  C   UNL     1     -40.453 -45.855  12.921  1.00  0.00     0.039 C 
HETATM   29  C   UNL     1     -40.893 -45.432  14.326  1.00  0.00     0.168 C 
HETATM   30  O   UNL     1     -42.311 -45.490  14.412  1.00  0.00    -0.391 OA
HETATM   31  C   UNL     1     -42.797 -46.826  14.313  1.00  0.00     0.168 C 
HETATM   32  C   UNL     1     -42.357 -47.502  13.016  1.00  0.00     0.039 C 
BRANCH  27  33
HETATM   33  C   UNL     1     -40.794 -47.603  11.093  1.00  0.00     0.175 C 
BRANCH  33  34
HETATM   34  O   UNL     1     -40.133 -46.525  10.430  1.00  0.00    -0.400 OA
HETATM   35  H   UNL     1     -39.287 -46.367  10.900  1.00  0.00     0.209 HD
ENDBRANCH  33  34
ENDBRANCH  27  33
ENDBRANCH  26  27
ENDBRANCH   3  26
TORSDOF 7
ENDMDL
MODEL 8
REMARK VINA RESULT:      -6.6      1.891      8.038
REMARK  7 active torsions:
REMARK  status: ('A' for Active; 'I' for Inactive)
REMARK    1  A    between atoms: C_2  and  N_4 
REMARK    2  A    between atoms: N_3  and  C_15 
REMARK    3  A    between atoms: C_8  and  C_10 
REMARK    4  A    between atoms: C_15  and  C_16 
REMARK    5  A    between atoms: C_16  and  C_26 
REMARK    6  A    between atoms: C_18  and  O_25 
REMARK    7  A    between atoms: C_26  and  O_27 
ROOT
HETATM    1  C   UNL     1     -41.409 -50.033  13.293  1.00  0.00     0.117 A 
HETATM    2  C   UNL     1     -41.326 -51.333  12.722  1.00  0.00     0.115 A 
HETATM    3  N   UNL     1     -41.056 -47.859  13.346  1.00  0.00    -0.326 N 
HETATM    4  C   UNL     1     -40.938 -48.966  12.537  1.00  0.00     0.140 A 
HETATM    5  N   UNL     1     -41.865 -49.578  14.516  1.00  0.00    -0.346 N 
ATOM      6  HN  UNL     1     -42.289 -50.130  15.262  1.00  0.00     0.167 HD
HETATM    7  C   UNL     1     -41.637 -48.283  14.515  1.00  0.00     0.185 A 
HETATM    8  N   UNL     1     -40.777 -51.430  11.482  1.00  0.00    -0.341 N 
ATOM      9  HN  UNL     1     -40.664 -52.339  11.034  1.00  0.00     0.167 HD
HETATM   10  N   UNL     1     -40.419 -49.024  11.297  1.00  0.00    -0.336 N 
ATOM     11  HN  UNL     1     -40.097 -48.216  10.765  1.00  0.00     0.168 HD
HETATM   12  C   UNL     1     -40.382 -50.302  10.852  1.00  0.00     0.183 A 
ENDROOT
BRANCH   2  13
HETATM   13  N   UNL     1     -41.768 -52.471  13.400  1.00  0.00    -0.262 NA
HETATM   14  C   UNL     1     -43.059 -52.462  14.122  1.00  0.00     0.073 C 
HETATM   15  C   UNL     1     -42.896 -53.605  15.156  1.00  0.00     0.022 C 
HETATM   16  C   UNL     1     -41.467 -54.113  15.009  1.00  0.00     0.017 C 
HETATM   17  C   UNL     1     -40.746 -52.973  14.321  1.00  0.00     0.097 C 
BRANCH  14  18
HETATM   18  C   UNL     1     -44.268 -52.543  13.152  1.00  0.00     0.056 C 
HETATM   19  C   UNL     1     -45.215 -51.333  13.272  1.00  0.00     0.128 C 
HETATM   20  C   UNL     1     -46.204 -51.433  14.432  1.00  0.00     0.058 C 
HETATM   21  C   UNL     1     -46.838 -52.817  14.520  1.00  0.00     0.170 C 
HETATM   22  O   UNL     1     -45.874 -53.862  14.457  1.00  0.00    -0.391 OA
HETATM   23  C   UNL     1     -45.077 -53.835  13.274  1.00  0.00     0.176 C 
BRANCH  19  24
HETATM   24  O   UNL     1     -45.966 -51.178  12.055  1.00  0.00    -0.395 OA
HETATM   25  H   UNL     1     -45.464 -50.613  11.442  1.00  0.00     0.210 HD
ENDBRANCH  19  24
ENDBRANCH  14  18
ENDBRANCH   2  13
BRANCH   3  26
HETATM   26  C   UNL     1     -40.652 -46.485  13.034  1.00  0.00     0.143 C 
BRANCH  26  27
HETATM   27  C   UNL     1     -41.605 -45.697  12.071  1.00  0.00     0.001 C 
HETATM   28  C   UNL     1     -41.118 -45.832  10.601  1.00  0.00     0.039 C 
HETATM   29  C   UNL     1     -39.894 -44.951  10.334  1.00  0.00     0.168 C 
HETATM   30  O   UNL     1     -40.245 -43.587  10.528  1.00  0.00    -0.391 OA
HETATM   31  C   UNL     1     -40.553 -43.303  11.890  1.00  0.00     0.168 C 
HETATM   32  C   UNL     1     -41.687 -44.180  12.416  1.00  0.00     0.039 C 
BRANCH  27  33
HETATM   33  C   UNL     1     -43.047 -46.244  12.220  1.00  0.00     0.175 C 
BRANCH  33  34
HETATM   34  O   UNL     1     -43.626 -46.446  10.930  1.00  0.00    -0.400 OA
HETATM   35  H   UNL     1     -43.003 -46.078  10.268  1.00  0.00     0.209 HD
ENDBRANCH  33  34
ENDBRANCH  27  33
ENDBRANCH  26  27
ENDBRANCH   3  26
TORSDOF 7
ENDMDL
MODEL 9
REMARK VINA RESULT:      -6.4      2.657      4.681
REMARK  7 active torsions:
REMARK  status: ('A' for Active; 'I' for Inactive)
REMARK    1  A    between atoms: C_2  and  N_4 
REMARK    2  A    between atoms: N_3  and  C_15 
REMARK    3  A    between atoms: C_8  and  C_10 
REMARK    4  A    between atoms: C_15  and  C_16 
REMARK    5  A    between atoms: C_16  and  C_26 
REMARK    6  A    between atoms: C_18  and  O_25 
REMARK    7  A    between atoms: C_26  and  O_27 
ROOT
HETATM    1  C   UNL     1     -41.290 -51.395  15.417  1.00  0.00     0.117 A 
HETATM    2  C   UNL     1     -40.053 -51.313  14.720  1.00  0.00     0.115 A 
HETATM    3  N   UNL     1     -43.169 -52.373  16.024  1.00  0.00    -0.326 N 
HETATM    4  C   UNL     1     -41.991 -52.593  15.345  1.00  0.00     0.140 A 
HETATM    5  N   UNL     1     -41.996 -50.481  16.176  1.00  0.00    -0.346 N 
ATOM      6  HN  UNL     1     -41.714 -49.532  16.421  1.00  0.00     0.167 HD
HETATM    7  C   UNL     1     -43.108 -51.095  16.518  1.00  0.00     0.185 A 
HETATM    8  N   UNL     1     -39.661 -52.414  14.026  1.00  0.00    -0.341 N 
ATOM      9  HN  UNL     1     -38.797 -52.404  13.483  1.00  0.00     0.167 HD
HETATM   10  N   UNL     1     -41.616 -53.709  14.694  1.00  0.00    -0.336 N 
ATOM     11  HN  UNL     1     -42.150 -54.577  14.677  1.00  0.00     0.168 HD
HETATM   12  C   UNL     1     -40.433 -53.522  14.065  1.00  0.00     0.183 A 
ENDROOT
BRANCH   2  13
HETATM   13  N   UNL     1     -39.274 -50.154  14.725  1.00  0.00    -0.262 NA
HETATM   14  C   UNL     1     -39.278 -49.240  13.561  1.00  0.00     0.073 C 
HETATM   15  C   UNL     1     -37.935 -48.480  13.703  1.00  0.00     0.022 C 
HETATM   16  C   UNL     1     -37.214 -49.101  14.892  1.00  0.00     0.017 C 
HETATM   17  C   UNL     1     -37.877 -50.454  15.051  1.00  0.00     0.097 C 
BRANCH  14  18
HETATM   18  C   UNL     1     -40.576 -48.393  13.493  1.00  0.00     0.056 C 
HETATM   19  C   UNL     1     -41.630 -48.987  12.539  1.00  0.00     0.128 C 
HETATM   20  C   UNL     1     -41.394 -48.651  11.068  1.00  0.00     0.058 C 
HETATM   21  C   UNL     1     -41.036 -47.182  10.872  1.00  0.00     0.170 C 
HETATM   22  O   UNL     1     -40.014 -46.747  11.762  1.00  0.00    -0.391 OA
HETATM   23  C   UNL     1     -40.341 -46.924  13.139  1.00  0.00     0.176 C 
BRANCH  19  24
HETATM   24  O   UNL     1     -42.939 -48.513  12.903  1.00  0.00    -0.395 OA
HETATM   25  H   UNL     1     -43.075 -48.657  13.856  1.00  0.00     0.210 HD
ENDBRANCH  19  24
ENDBRANCH  14  18
ENDBRANCH   2  13
BRANCH   3  26
HETATM   26  C   UNL     1     -44.280 -53.312  16.199  1.00  0.00     0.143 C 
BRANCH  26  27
HETATM   27  C   UNL     1     -45.531 -53.067  15.286  1.00  0.00     0.001 C 
HETATM   28  C   UNL     1     -46.174 -54.421  14.877  1.00  0.00     0.039 C 
HETATM   29  C   UNL     1     -45.350 -55.126  13.794  1.00  0.00     0.168 C 
HETATM   30  O   UNL     1     -45.317 -54.316  12.626  1.00  0.00    -0.391 OA
HETATM   31  C   UNL     1     -44.598 -53.104  12.838  1.00  0.00     0.168 C 
HETATM   32  C   UNL     1     -45.181 -52.283  13.986  1.00  0.00     0.039 C 
BRANCH  27  33
HETATM   33  C   UNL     1     -46.554 -52.187  16.049  1.00  0.00     0.175 C 
BRANCH  33  34
HETATM   34  O   UNL     1     -47.168 -51.263  15.150  1.00  0.00    -0.400 OA
HETATM   35  H   UNL     1     -48.052 -51.622  14.920  1.00  0.00     0.209 HD
ENDBRANCH  33  34
ENDBRANCH  27  33
ENDBRANCH  26  27
ENDBRANCH   3  26
TORSDOF 7
ENDMDL
