MODEL 1
REMARK VINA RESULT:      -6.3      0.000      0.000
REMARK  4 active torsions:
REMARK  status: ('A' for Active; 'I' for Inactive)
REMARK    1  A    between atoms: O_1  and  C_2 
REMARK    2  A    between atoms: C_2  and  C_3 
REMARK    3  A    between atoms: C_3  and  N_4 
REMARK       I    between atoms: N_4  and  C_5 
REMARK       I    between atoms: C_5  and  N_7 
REMARK    4  A    between atoms: N_7  and  C_8 
ROOT
HETATM    1  N   UNL     1     -40.616 -50.380  10.999  1.00  0.00    -0.340 N 
HETATM    2  C   UNL     1     -41.324 -49.201  11.137  1.00  0.00     0.322 C 
HETATM    3  O   UNL     1     -41.566 -48.729  12.240  1.00  0.00    -0.247 OA
HETATM    4  N   UNL     1     -41.641 -48.666   9.917  1.00  0.00    -0.289 N 
HETATM    5  H   UNL     1     -40.865 -50.949  10.203  1.00  0.00     0.164 HD
HETATM    6  H   UNL     1     -41.130 -48.970   9.105  1.00  0.00     0.172 HD
ENDROOT
BRANCH   1   7
HETATM    7  C   UNL     1     -40.186 -51.070  12.205  1.00  0.00     0.162 C 
BRANCH   7   8
HETATM    8  C   UNL     1     -40.872 -52.436  12.425  1.00  0.00     0.074 C 
HETATM    9  C   UNL     1     -40.319 -53.078  13.712  1.00  0.00     0.039 C 
HETATM   10  C   UNL     1     -41.025 -54.385  14.072  1.00  0.00     0.003 C 
HETATM   11  C   UNL     1     -42.536 -54.199  14.153  1.00  0.00     0.000 C 
HETATM   12  C   UNL     1     -43.093 -53.607  12.864  1.00  0.00     0.003 C 
HETATM   13  C   UNL     1     -42.401 -52.291  12.506  1.00  0.00     0.039 C 
BRANCH   8  14
HETATM   14  O   UNL     1     -40.571 -53.301  11.318  1.00  0.00    -0.388 OA
HETATM   15  H   UNL     1     -41.319 -53.258  10.697  1.00  0.00     0.210 HD
ENDBRANCH   8  14
ENDBRANCH   7   8
ENDBRANCH   1   7
BRANCH   4  16
HETATM   16  C   UNL     1     -42.325 -47.486   9.818  1.00  0.00     0.152 A 
HETATM   17  N   UNL     1     -42.166 -46.379  10.496  1.00  0.00    -0.346 N 
HETATM   18  C   UNL     1     -43.027 -45.418  10.012  1.00  0.00     0.097 A 
ATOM     19  HN  UNL     1     -41.507 -46.247  11.262  1.00  0.00     0.167 HD
HETATM   20  C   UNL     1     -43.848 -45.822   8.981  1.00  0.00     0.070 A 
HETATM   21  S   UNL     1     -43.550 -47.477   8.628  1.00  0.00    -0.064 SA
ENDBRANCH   4  16
TORSDOF 4
ENDMDL
MODEL 2
REMARK VINA RESULT:      -6.1      3.291      4.683
REMARK  4 active torsions:
REMARK  status: ('A' for Active; 'I' for Inactive)
REMARK    1  A    between atoms: O_1  and  C_2 
REMARK    2  A    between atoms: C_2  and  C_3 
REMARK    3  A    between atoms: C_3  and  N_4 
REMARK       I    between atoms: N_4  and  C_5 
REMARK       I    between atoms: C_5  and  N_7 
REMARK    4  A    between atoms: N_7  and  C_8 
ROOT
HETATM    1  N   UNL     1     -43.127 -52.727  11.843  1.00  0.00    -0.340 N 
HETATM    2  C   UNL     1     -41.978 -52.107  12.296  1.00  0.00     0.322 C 
HETATM    3  O   UNL     1     -41.442 -52.446  13.342  1.00  0.00    -0.247 OA
HETATM    4  N   UNL     1     -41.547 -51.152  11.413  1.00  0.00    -0.289 N 
HETATM    5  H   UNL     1     -43.763 -52.142  11.320  1.00  0.00     0.164 HD
HETATM    6  H   UNL     1     -41.882 -51.181  10.465  1.00  0.00     0.172 HD
ENDROOT
BRANCH   1   7
HETATM    7  C   UNL     1     -43.707 -53.781  12.659  1.00  0.00     0.162 C 
BRANCH   7   8
HETATM    8  C   UNL     1     -45.004 -53.369  13.391  1.00  0.00     0.074 C 
HETATM    9  C   UNL     1     -44.697 -53.164  14.887  1.00  0.00     0.039 C 
HETATM   10  C   UNL     1     -45.902 -52.642  15.671  1.00  0.00     0.003 C 
HETATM   11  C   UNL     1     -46.466 -51.372  15.045  1.00  0.00     0.000 C 
HETATM   12  C   UNL     1     -46.814 -51.584  13.576  1.00  0.00     0.003 C 
HETATM   13  C   UNL     1     -45.610 -52.092  12.783  1.00  0.00     0.039 C 
BRANCH   8  14
HETATM   14  O   UNL     1     -45.975 -54.420  13.262  1.00  0.00    -0.388 OA
HETATM   15  H   UNL     1     -45.871 -55.015  14.025  1.00  0.00     0.210 HD
ENDBRANCH   8  14
ENDBRANCH   7   8
ENDBRANCH   1   7
BRANCH   4  16
HETATM   16  C   UNL     1     -40.413 -50.428  11.653  1.00  0.00     0.152 A 
HETATM   17  N   UNL     1     -39.181 -50.843  11.799  1.00  0.00    -0.346 N 
HETATM   18  C   UNL     1     -38.346 -49.759  11.952  1.00  0.00     0.097 A 
ATOM     19  HN  UNL     1     -38.885 -51.819  11.799  1.00  0.00     0.167 HD
HETATM   20  C   UNL     1     -38.966 -48.527  11.942  1.00  0.00     0.070 A 
HETATM   21  S   UNL     1     -40.662 -48.742  11.766  1.00  0.00    -0.064 SA
ENDBRANCH   4  16
TORSDOF 4
ENDMDL
MODEL 3
REMARK VINA RESULT:      -5.9      2.325      2.962
REMARK  4 active torsions:
REMARK  status: ('A' for Active; 'I' for Inactive)
REMARK    1  A    between atoms: O_1  and  C_2 
REMARK    2  A    between atoms: C_2  and  C_3 
REMARK    3  A    between atoms: C_3  and  N_4 
REMARK       I    between atoms: N_4  and  C_5 
REMARK       I    between atoms: C_5  and  N_7 
REMARK    4  A    between atoms: N_7  and  C_8 
ROOT
HETATM    1  N   UNL     1     -42.179 -51.616  11.936  1.00  0.00    -0.340 N 
HETATM    2  C   UNL     1     -41.862 -50.285  12.137  1.00  0.00     0.322 C 
HETATM    3  O   UNL     1     -41.848 -49.797  13.260  1.00  0.00    -0.247 OA
HETATM    4  N   UNL     1     -41.542 -49.666  10.959  1.00  0.00    -0.289 N 
HETATM    5  H   UNL     1     -42.645 -51.827  11.065  1.00  0.00     0.164 HD
HETATM    6  H   UNL     1     -41.290 -50.231  10.166  1.00  0.00     0.172 HD
ENDROOT
BRANCH   1   7
HETATM    7  C   UNL     1     -42.527 -52.423  13.093  1.00  0.00     0.162 C 
BRANCH   7   8
HETATM    8  C   UNL     1     -43.963 -52.991  13.055  1.00  0.00     0.074 C 
HETATM    9  C   UNL     1     -44.016 -54.289  13.884  1.00  0.00     0.039 C 
HETATM   10  C   UNL     1     -45.430 -54.861  13.996  1.00  0.00     0.003 C 
HETATM   11  C   UNL     1     -46.410 -53.823  14.531  1.00  0.00     0.000 C 
HETATM   12  C   UNL     1     -46.394 -52.556  13.685  1.00  0.00     0.003 C 
HETATM   13  C   UNL     1     -44.985 -51.970  13.581  1.00  0.00     0.039 C 
BRANCH   8  14
HETATM   14  O   UNL     1     -44.313 -53.302  11.696  1.00  0.00    -0.388 OA
HETATM   15  H   UNL     1     -45.214 -53.669  11.699  1.00  0.00     0.210 HD
ENDBRANCH   8  14
ENDBRANCH   7   8
ENDBRANCH   1   7
BRANCH   4  16
HETATM   16  C   UNL     1     -41.176 -48.349  10.928  1.00  0.00     0.152 A 
HETATM   17  N   UNL     1     -40.046 -47.796  11.284  1.00  0.00    -0.346 N 
HETATM   18  C   UNL     1     -40.091 -46.446  11.013  1.00  0.00     0.097 A 
ATOM     19  HN  UNL     1     -39.254 -48.288  11.696  1.00  0.00     0.167 HD
HETATM   20  C   UNL     1     -41.274 -45.988  10.473  1.00  0.00     0.070 A 
HETATM   21  S   UNL     1     -42.380 -47.295  10.329  1.00  0.00    -0.064 SA
ENDBRANCH   4  16
TORSDOF 4
ENDMDL
MODEL 4
REMARK VINA RESULT:      -5.8      1.683      2.274
REMARK  4 active torsions:
REMARK  status: ('A' for Active; 'I' for Inactive)
REMARK    1  A    between atoms: O_1  and  C_2 
REMARK    2  A    between atoms: C_2  and  C_3 
REMARK    3  A    between atoms: C_3  and  N_4 
REMARK       I    between atoms: N_4  and  C_5 
REMARK       I    between atoms: C_5  and  N_7 
REMARK    4  A    between atoms: N_7  and  C_8 
ROOT
HETATM    1  N   UNL     1     -41.058 -51.452  11.353  1.00  0.00    -0.340 N 
HETATM    2  C   UNL     1     -40.927 -50.108  11.648  1.00  0.00     0.322 C 
HETATM    3  O   UNL     1     -40.552 -49.731  12.750  1.00  0.00    -0.247 OA
HETATM    4  N   UNL     1     -41.219 -49.329  10.560  1.00  0.00    -0.289 N 
HETATM    5  H   UNL     1     -41.788 -51.687  10.696  1.00  0.00     0.164 HD
HETATM    6  H   UNL     1     -41.209 -49.749   9.645  1.00  0.00     0.172 HD
ENDROOT
BRANCH   1   7
HETATM    7  C   UNL     1     -40.766 -52.418  12.400  1.00  0.00     0.162 C 
BRANCH   7   8
HETATM    8  C   UNL     1     -41.994 -52.816  13.248  1.00  0.00     0.074 C 
HETATM    9  C   UNL     1     -43.251 -52.802  12.357  1.00  0.00     0.039 C 
HETATM   10  C   UNL     1     -44.500 -53.296  13.088  1.00  0.00     0.003 C 
HETATM   11  C   UNL     1     -44.276 -54.671  13.707  1.00  0.00     0.000 C 
HETATM   12  C   UNL     1     -43.061 -54.676  14.626  1.00  0.00     0.003 C 
HETATM   13  C   UNL     1     -41.805 -54.198  13.897  1.00  0.00     0.039 C 
BRANCH   8  14
HETATM   14  O   UNL     1     -42.172 -51.857  14.304  1.00  0.00    -0.388 OA
HETATM   15  H   UNL     1     -42.930 -51.294  14.068  1.00  0.00     0.210 HD
ENDBRANCH   8  14
ENDBRANCH   7   8
ENDBRANCH   1   7
BRANCH   4  16
HETATM   16  C   UNL     1     -41.134 -47.967  10.622  1.00  0.00     0.152 A 
HETATM   17  N   UNL     1     -40.080 -47.210  10.784  1.00  0.00    -0.346 N 
HETATM   18  C   UNL     1     -40.450 -45.885  10.711  1.00  0.00     0.097 A 
ATOM     19  HN  UNL     1     -39.130 -47.548  10.940  1.00  0.00     0.167 HD
HETATM   20  C   UNL     1     -41.796 -45.656  10.515  1.00  0.00     0.070 A 
HETATM   21  S   UNL     1     -42.628 -47.157  10.452  1.00  0.00    -0.064 SA
ENDBRANCH   4  16
TORSDOF 4
ENDMDL
MODEL 5
REMARK VINA RESULT:      -5.6      3.632      5.867
REMARK  4 active torsions:
REMARK  status: ('A' for Active; 'I' for Inactive)
REMARK    1  A    between atoms: O_1  and  C_2 
REMARK    2  A    between atoms: C_2  and  C_3 
REMARK    3  A    between atoms: C_3  and  N_4 
REMARK       I    between atoms: N_4  and  C_5 
REMARK       I    between atoms: C_5  and  N_7 
REMARK    4  A    between atoms: N_7  and  C_8 
ROOT
HETATM    1  N   UNL     1     -40.844 -51.006  11.202  1.00  0.00    -0.340 N 
HETATM    2  C   UNL     1     -41.940 -51.276  12.000  1.00  0.00     0.322 C 
HETATM    3  O   UNL     1     -42.435 -50.414  12.714  1.00  0.00    -0.247 OA
HETATM    4  N   UNL     1     -42.376 -52.563  11.828  1.00  0.00    -0.289 N 
HETATM    5  H   UNL     1     -40.212 -51.780  11.051  1.00  0.00     0.164 HD
HETATM    6  H   UNL     1     -42.093 -53.066  11.004  1.00  0.00     0.172 HD
ENDROOT
BRANCH   1   7
HETATM    7  C   UNL     1     -40.267 -49.673  11.252  1.00  0.00     0.162 C 
BRANCH   7   8
HETATM    8  C   UNL     1     -38.912 -49.601  11.990  1.00  0.00     0.074 C 
HETATM    9  C   UNL     1     -38.951 -48.448  13.011  1.00  0.00     0.039 C 
HETATM   10  C   UNL     1     -37.688 -48.375  13.870  1.00  0.00     0.003 C 
HETATM   11  C   UNL     1     -37.401 -49.708  14.553  1.00  0.00     0.000 C 
HETATM   12  C   UNL     1     -37.315 -50.844  13.541  1.00  0.00     0.003 C 
HETATM   13  C   UNL     1     -38.582 -50.932  12.688  1.00  0.00     0.039 C 
BRANCH   8  14
HETATM   14  O   UNL     1     -37.868 -49.334  11.039  1.00  0.00    -0.388 OA
HETATM   15  H   UNL     1     -37.511 -48.450  11.231  1.00  0.00     0.210 HD
ENDBRANCH   8  14
ENDBRANCH   7   8
ENDBRANCH   1   7
BRANCH   4  16
HETATM   16  C   UNL     1     -43.464 -53.037  12.506  1.00  0.00     0.152 A 
HETATM   17  N   UNL     1     -44.732 -52.779  12.319  1.00  0.00    -0.346 N 
HETATM   18  C   UNL     1     -45.487 -53.536  13.188  1.00  0.00     0.097 A 
ATOM     19  HN  UNL     1     -45.105 -52.119  11.637  1.00  0.00     0.167 HD
HETATM   20  C   UNL     1     -44.772 -54.349  14.042  1.00  0.00     0.070 A 
HETATM   21  S   UNL     1     -43.090 -54.128  13.766  1.00  0.00    -0.064 SA
ENDBRANCH   4  16
TORSDOF 4
ENDMDL
MODEL 6
REMARK VINA RESULT:      -5.4      2.485      2.579
REMARK  4 active torsions:
REMARK  status: ('A' for Active; 'I' for Inactive)
REMARK    1  A    between atoms: O_1  and  C_2 
REMARK    2  A    between atoms: C_2  and  C_3 
REMARK    3  A    between atoms: C_3  and  N_4 
REMARK       I    between atoms: N_4  and  C_5 
REMARK       I    between atoms: C_5  and  N_7 
REMARK    4  A    between atoms: N_7  and  C_8 
ROOT
HETATM    1  N   UNL     1     -40.341 -50.138  13.004  1.00  0.00    -0.340 N 
HETATM    2  C   UNL     1     -39.851 -49.104  12.229  1.00  0.00     0.322 C 
HETATM    3  O   UNL     1     -38.994 -49.298  11.376  1.00  0.00    -0.247 OA
HETATM    4  N   UNL     1     -40.477 -47.922  12.523  1.00  0.00    -0.289 N 
HETATM    5  H   UNL     1     -40.619 -49.888  13.942  1.00  0.00     0.164 HD
HETATM    6  H   UNL     1     -41.359 -47.947  13.005  1.00  0.00     0.172 HD
ENDROOT
BRANCH   1   7
HETATM    7  C   UNL     1     -39.790 -51.469  12.804  1.00  0.00     0.162 C 
BRANCH   7   8
HETATM    8  C   UNL     1     -40.858 -52.580  12.685  1.00  0.00     0.074 C 
HETATM    9  C   UNL     1     -40.881 -53.401  13.989  1.00  0.00     0.039 C 
HETATM   10  C   UNL     1     -41.990 -54.453  14.005  1.00  0.00     0.003 C 
HETATM   11  C   UNL     1     -43.352 -53.832  13.720  1.00  0.00     0.000 C 
HETATM   12  C   UNL     1     -43.347 -53.057  12.408  1.00  0.00     0.003 C 
HETATM   13  C   UNL     1     -42.249 -51.992  12.391  1.00  0.00     0.039 C 
BRANCH   8  14
HETATM   14  O   UNL     1     -40.512 -53.455  11.599  1.00  0.00    -0.388 OA
HETATM   15  H   UNL     1     -40.895 -54.329  11.790  1.00  0.00     0.210 HD
ENDBRANCH   8  14
ENDBRANCH   7   8
ENDBRANCH   1   7
BRANCH   4  16
HETATM   16  C   UNL     1     -40.162 -46.770  11.858  1.00  0.00     0.152 A 
HETATM   17  N   UNL     1     -40.002 -46.573  10.575  1.00  0.00    -0.346 N 
HETATM   18  C   UNL     1     -39.762 -45.236  10.343  1.00  0.00     0.097 A 
ATOM     19  HN  UNL     1     -40.049 -47.295   9.857  1.00  0.00     0.167 HD
HETATM   20  C   UNL     1     -39.720 -44.438  11.467  1.00  0.00     0.070 A 
HETATM   21  S   UNL     1     -39.960 -45.406  12.866  1.00  0.00    -0.064 SA
ENDBRANCH   4  16
TORSDOF 4
ENDMDL
MODEL 7
REMARK VINA RESULT:      -5.4      3.434      6.919
REMARK  4 active torsions:
REMARK  status: ('A' for Active; 'I' for Inactive)
REMARK    1  A    between atoms: O_1  and  C_2 
REMARK    2  A    between atoms: C_2  and  C_3 
REMARK    3  A    between atoms: C_3  and  N_4 
REMARK       I    between atoms: N_4  and  C_5 
REMARK       I    between atoms: C_5  and  N_7 
REMARK    4  A    between atoms: N_7  and  C_8 
ROOT
HETATM    1  N   UNL     1     -43.062 -50.298  12.430  1.00  0.00    -0.340 N 
HETATM    2  C   UNL     1     -43.319 -51.560  12.931  1.00  0.00     0.322 C 
HETATM    3  O   UNL     1     -42.422 -52.261  13.381  1.00  0.00    -0.247 OA
HETATM    4  N   UNL     1     -44.656 -51.851  12.887  1.00  0.00    -0.289 N 
HETATM    5  H   UNL     1     -43.659 -49.998  11.673  1.00  0.00     0.164 HD
HETATM    6  H   UNL     1     -45.314 -51.096  12.791  1.00  0.00     0.172 HD
ENDROOT
BRANCH   1   7
HETATM    7  C   UNL     1     -41.686 -49.827  12.422  1.00  0.00     0.162 C 
BRANCH   7   8
HETATM    8  C   UNL     1     -41.403 -48.731  11.371  1.00  0.00     0.074 C 
HETATM    9  C   UNL     1     -42.725 -48.033  10.999  1.00  0.00     0.039 C 
HETATM   10  C   UNL     1     -42.523 -46.854  10.047  1.00  0.00     0.003 C 
HETATM   11  C   UNL     1     -41.509 -45.858  10.599  1.00  0.00     0.000 C 
HETATM   12  C   UNL     1     -40.184 -46.537  10.924  1.00  0.00     0.003 C 
HETATM   13  C   UNL     1     -40.377 -47.709  11.888  1.00  0.00     0.039 C 
BRANCH   8  14
HETATM   14  O   UNL     1     -40.859 -49.339  10.188  1.00  0.00    -0.388 OA
HETATM   15  H   UNL     1     -40.956 -50.303  10.278  1.00  0.00     0.210 HD
ENDBRANCH   8  14
ENDBRANCH   7   8
ENDBRANCH   1   7
BRANCH   4  16
HETATM   16  C   UNL     1     -45.137 -53.042  13.353  1.00  0.00     0.152 A 
HETATM   17  N   UNL     1     -44.739 -54.258  13.081  1.00  0.00    -0.346 N 
HETATM   18  C   UNL     1     -45.463 -55.157  13.833  1.00  0.00     0.097 A 
ATOM     19  HN  UNL     1     -44.006 -54.503  12.416  1.00  0.00     0.167 HD
HETATM   20  C   UNL     1     -46.423 -54.604  14.655  1.00  0.00     0.070 A 
HETATM   21  S   UNL     1     -46.437 -52.898  14.451  1.00  0.00    -0.064 SA
ENDBRANCH   4  16
TORSDOF 4
ENDMDL
MODEL 8
REMARK VINA RESULT:      -5.2      4.470      5.725
REMARK  4 active torsions:
REMARK  status: ('A' for Active; 'I' for Inactive)
REMARK    1  A    between atoms: O_1  and  C_2 
REMARK    2  A    between atoms: C_2  and  C_3 
REMARK    3  A    between atoms: C_3  and  N_4 
REMARK       I    between atoms: N_4  and  C_5 
REMARK       I    between atoms: C_5  and  N_7 
REMARK    4  A    between atoms: N_7  and  C_8 
ROOT
HETATM    1  N   UNL     1     -42.494 -53.205  14.403  1.00  0.00    -0.340 N 
HETATM    2  C   UNL     1     -41.399 -52.721  13.711  1.00  0.00     0.322 C 
HETATM    3  O   UNL     1     -41.232 -52.975  12.526  1.00  0.00    -0.247 OA
HETATM    4  N   UNL     1     -40.619 -51.926  14.508  1.00  0.00    -0.289 N 
HETATM    5  H   UNL     1     -42.341 -53.398  15.382  1.00  0.00     0.164 HD
HETATM    6  H   UNL     1     -41.014 -51.545  15.351  1.00  0.00     0.172 HD
ENDROOT
BRANCH   1   7
HETATM    7  C   UNL     1     -43.436 -54.055  13.693  1.00  0.00     0.162 C 
BRANCH   7   8
HETATM    8  C   UNL     1     -44.893 -53.540  13.723  1.00  0.00     0.074 C 
HETATM    9  C   UNL     1     -45.314 -53.295  15.184  1.00  0.00     0.039 C 
HETATM   10  C   UNL     1     -46.706 -52.675  15.303  1.00  0.00     0.003 C 
HETATM   11  C   UNL     1     -46.820 -51.400  14.474  1.00  0.00     0.000 C 
HETATM   12  C   UNL     1     -46.449 -51.649  13.018  1.00  0.00     0.003 C 
HETATM   13  C   UNL     1     -45.052 -52.256  12.891  1.00  0.00     0.039 C 
BRANCH   8  14
HETATM   14  O   UNL     1     -45.759 -54.538  13.158  1.00  0.00    -0.388 OA
HETATM   15  H   UNL     1     -46.623 -54.122  12.995  1.00  0.00     0.210 HD
ENDBRANCH   8  14
ENDBRANCH   7   8
ENDBRANCH   1   7
BRANCH   4  16
HETATM   16  C   UNL     1     -39.493 -51.324  14.020  1.00  0.00     0.152 A 
HETATM   17  N   UNL     1     -38.382 -51.869  13.594  1.00  0.00    -0.346 N 
HETATM   18  C   UNL     1     -37.541 -50.885  13.123  1.00  0.00     0.097 A 
ATOM     19  HN  UNL     1     -38.172 -52.866  13.608  1.00  0.00     0.167 HD
HETATM   20  C   UNL     1     -38.022 -49.596  13.220  1.00  0.00     0.070 A 
HETATM   21  S   UNL     1     -39.573 -49.620  13.959  1.00  0.00    -0.064 SA
ENDBRANCH   4  16
TORSDOF 4
ENDMDL
MODEL 9
REMARK VINA RESULT:      -4.7     13.541     14.447
REMARK  4 active torsions:
REMARK  status: ('A' for Active; 'I' for Inactive)
REMARK    1  A    between atoms: O_1  and  C_2 
REMARK    2  A    between atoms: C_2  and  C_3 
REMARK    3  A    between atoms: C_3  and  N_4 
REMARK       I    between atoms: N_4  and  C_5 
REMARK       I    between atoms: C_5  and  N_7 
REMARK    4  A    between atoms: N_7  and  C_8 
ROOT
HETATM    1  N   UNL     1     -46.412 -48.035  -1.670  1.00  0.00    -0.340 N 
HETATM    2  C   UNL     1     -45.158 -48.146  -2.242  1.00  0.00     0.322 C 
HETATM    3  O   UNL     1     -44.945 -48.925  -3.161  1.00  0.00    -0.247 OA
HETATM    4  N   UNL     1     -44.275 -47.264  -1.679  1.00  0.00    -0.289 N 
HETATM    5  H   UNL     1     -46.424 -47.804  -0.687  1.00  0.00     0.164 HD
HETATM    6  H   UNL     1     -44.634 -46.477  -1.166  1.00  0.00     0.172 HD
ENDROOT
BRANCH   1   7
HETATM    7  C   UNL     1     -47.474 -48.894  -2.168  1.00  0.00     0.162 C 
BRANCH   7   8
HETATM    8  C   UNL     1     -48.222 -49.674  -1.063  1.00  0.00     0.074 C 
HETATM    9  C   UNL     1     -48.707 -48.685   0.014  1.00  0.00     0.039 C 
HETATM   10  C   UNL     1     -49.558 -49.357   1.092  1.00  0.00     0.003 C 
HETATM   11  C   UNL     1     -50.725 -50.125   0.482  1.00  0.00     0.000 C 
HETATM   12  C   UNL     1     -50.245 -51.137  -0.551  1.00  0.00     0.003 C 
HETATM   13  C   UNL     1     -49.405 -50.470  -1.640  1.00  0.00     0.039 C 
BRANCH   8  14
HETATM   14  O   UNL     1     -47.320 -50.611  -0.452  1.00  0.00    -0.388 OA
HETATM   15  H   UNL     1     -46.414 -50.278  -0.580  1.00  0.00     0.210 HD
ENDBRANCH   8  14
ENDBRANCH   7   8
ENDBRANCH   1   7
BRANCH   4  16
HETATM   16  C   UNL     1     -42.980 -47.188  -2.110  1.00  0.00     0.152 A 
HETATM   17  N   UNL     1     -42.220 -48.125  -2.616  1.00  0.00    -0.346 N 
HETATM   18  C   UNL     1     -41.006 -47.585  -2.980  1.00  0.00     0.097 A 
ATOM     19  HN  UNL     1     -42.485 -49.104  -2.724  1.00  0.00     0.167 HD
HETATM   20  C   UNL     1     -40.855 -46.238  -2.722  1.00  0.00     0.070 A 
HETATM   21  S   UNL     1     -42.277 -45.638  -1.966  1.00  0.00    -0.064 SA
ENDBRANCH   4  16
TORSDOF 4
ENDMDL
