MODEL 1
REMARK VINA RESULT:      -5.9      0.000      0.000
REMARK  5 active torsions:
REMARK  status: ('A' for Active; 'I' for Inactive)
REMARK    1  A    between atoms: O_2  and  C_3 
REMARK    2  A    between atoms: C_3  and  C_4 
REMARK    3  A    between atoms: C_4  and  O_5 
REMARK    4  A    between atoms: O_5  and  C_6 
REMARK    5  A    between atoms: C_9  and  N_10 
REMARK       I    between atoms: N_10  and  C_11 
REMARK       I    between atoms: C_11  and  N_13 
REMARK       I    between atoms: N_17  and  C_20 
ROOT
HETATM    1  N   UNL     1     -41.380 -51.081  12.840  1.00  0.00    -0.307 N 
HETATM    2  C   UNL     1     -42.194 -52.161  13.107  1.00  0.00     0.323 C 
HETATM    3  O   UNL     1     -43.326 -52.280  12.638  1.00  0.00    -0.247 OA
HETATM    4  N   UNL     1     -41.674 -53.146  13.943  1.00  0.00    -0.332 N 
HETATM    5  C   UNL     1     -40.401 -53.114  14.677  1.00  0.00     0.129 C 
HETATM    6  C   UNL     1     -40.602 -52.684  16.130  1.00  0.00     0.040 C 
HETATM    7  C   UNL     1     -40.894 -53.867  17.064  1.00  0.00     0.127 C 
HETATM    8  N   UNL     1     -41.869 -54.842  16.572  1.00  0.00    -0.351 N 
HETATM    9  C   UNL     1     -42.973 -54.336  15.741  1.00  0.00     0.145 C 
HETATM   10  C   UNL     1     -42.565 -54.283  14.261  1.00  0.00     0.147 C 
HETATM   11  C   UNL     1     -41.799 -56.219  16.741  1.00  0.00     0.215 C 
HETATM   12  O   UNL     1     -42.621 -56.978  16.219  1.00  0.00    -0.274 OA
HETATM   13  C   UNL     1     -40.684 -56.829  17.557  1.00  0.00     0.117 C 
HETATM   14  H   UNL     1     -40.404 -51.160  13.066  1.00  0.00     0.170 HD
ENDROOT
BRANCH   1  15
HETATM   15  C   UNL     1     -41.739 -49.949  12.061  1.00  0.00     0.051 A 
HETATM   16  C   UNL     1     -42.785 -49.087  12.375  1.00  0.00     0.035 A 
HETATM   17  C   UNL     1     -43.057 -47.988  11.562  1.00  0.00     0.058 A 
HETATM   18  C   UNL     1     -42.277 -47.783  10.439  1.00  0.00     0.141 A 
HETATM   19  N   UNL     1     -41.249 -48.581  10.091  1.00  0.00    -0.345 N 
HETATM   20  C   UNL     1     -41.004 -49.637  10.913  1.00  0.00     0.119 A 
ATOM     21  HN  UNL     1     -40.686 -48.403   9.259  1.00  0.00     0.167 HD
BRANCH  18  22
HETATM   22  O   UNL     1     -42.541 -46.632   9.729  1.00  0.00    -0.334 OA
BRANCH  22  23
HETATM   23  C   UNL     1     -43.892 -46.525   9.282  1.00  0.00     0.203 C 
BRANCH  23  24
HETATM   24  C   UNL     1     -44.110 -47.583   8.202  1.00  0.00     0.193 C 
BRANCH  24  25
HETATM   25  O   UNL     1     -45.394 -48.185   8.358  1.00  0.00    -0.394 OA
HETATM   26  C   UNL     1     -46.261 -47.369   9.136  1.00  0.00     0.201 C 
ENDBRANCH  24  25
ENDBRANCH  23  24
ENDBRANCH  22  23
ENDBRANCH  18  22
ENDBRANCH   1  15
TORSDOF 5
ENDMDL
MODEL 2
REMARK VINA RESULT:      -5.9      1.814      1.966
REMARK  5 active torsions:
REMARK  status: ('A' for Active; 'I' for Inactive)
REMARK    1  A    between atoms: O_2  and  C_3 
REMARK    2  A    between atoms: C_3  and  C_4 
REMARK    3  A    between atoms: C_4  and  O_5 
REMARK    4  A    between atoms: O_5  and  C_6 
REMARK    5  A    between atoms: C_9  and  N_10 
REMARK       I    between atoms: N_10  and  C_11 
REMARK       I    between atoms: C_11  and  N_13 
REMARK       I    between atoms: N_17  and  C_20 
ROOT
HETATM    1  N   UNL     1     -40.796 -50.008  13.061  1.00  0.00    -0.307 N 
HETATM    2  C   UNL     1     -40.595 -51.364  12.915  1.00  0.00     0.323 C 
HETATM    3  O   UNL     1     -40.982 -51.998  11.934  1.00  0.00    -0.247 OA
HETATM    4  N   UNL     1     -39.913 -52.010  13.943  1.00  0.00    -0.332 N 
HETATM    5  C   UNL     1     -39.485 -51.439  15.229  1.00  0.00     0.129 C 
HETATM    6  C   UNL     1     -40.474 -51.770  16.345  1.00  0.00     0.040 C 
HETATM    7  C   UNL     1     -40.157 -53.098  17.045  1.00  0.00     0.127 C 
HETATM    8  N   UNL     1     -39.829 -54.221  16.164  1.00  0.00    -0.351 N 
HETATM    9  C   UNL     1     -40.507 -54.277  14.859  1.00  0.00     0.145 C 
HETATM   10  C   UNL     1     -39.734 -53.471  13.804  1.00  0.00     0.147 C 
HETATM   11  C   UNL     1     -38.866 -55.192  16.406  1.00  0.00     0.215 C 
HETATM   12  O   UNL     1     -38.594 -56.057  15.568  1.00  0.00    -0.274 OA
HETATM   13  C   UNL     1     -38.101 -55.195  17.708  1.00  0.00     0.117 C 
HETATM   14  H   UNL     1     -40.264 -49.525  13.763  1.00  0.00     0.170 HD
ENDROOT
BRANCH   1  15
HETATM   15  C   UNL     1     -41.514 -49.177  12.158  1.00  0.00     0.051 A 
HETATM   16  C   UNL     1     -42.853 -48.834  12.313  1.00  0.00     0.035 A 
HETATM   17  C   UNL     1     -43.474 -47.999  11.386  1.00  0.00     0.058 A 
HETATM   18  C   UNL     1     -42.738 -47.533  10.313  1.00  0.00     0.141 A 
HETATM   19  N   UNL     1     -41.438 -47.828  10.119  1.00  0.00    -0.345 N 
HETATM   20  C   UNL     1     -40.860 -48.635  11.048  1.00  0.00     0.119 A 
ATOM     21  HN  UNL     1     -40.917 -47.465   9.319  1.00  0.00     0.167 HD
BRANCH  18  22
HETATM   22  O   UNL     1     -43.386 -46.641   9.485  1.00  0.00    -0.334 OA
BRANCH  22  23
HETATM   23  C   UNL     1     -44.432 -47.227   8.711  1.00  0.00     0.203 C 
BRANCH  23  24
HETATM   24  C   UNL     1     -45.678 -46.359   8.881  1.00  0.00     0.193 C 
BRANCH  24  25
HETATM   25  O   UNL     1     -46.795 -47.172   9.236  1.00  0.00    -0.394 OA
HETATM   26  C   UNL     1     -46.653 -48.498   8.744  1.00  0.00     0.201 C 
ENDBRANCH  24  25
ENDBRANCH  23  24
ENDBRANCH  22  23
ENDBRANCH  18  22
ENDBRANCH   1  15
TORSDOF 5
ENDMDL
MODEL 3
REMARK VINA RESULT:      -5.8      3.267      8.717
REMARK  5 active torsions:
REMARK  status: ('A' for Active; 'I' for Inactive)
REMARK    1  A    between atoms: O_2  and  C_3 
REMARK    2  A    between atoms: C_3  and  C_4 
REMARK    3  A    between atoms: C_4  and  O_5 
REMARK    4  A    between atoms: O_5  and  C_6 
REMARK    5  A    between atoms: C_9  and  N_10 
REMARK       I    between atoms: N_10  and  C_11 
REMARK       I    between atoms: C_11  and  N_13 
REMARK       I    between atoms: N_17  and  C_20 
ROOT
HETATM    1  N   UNL     1     -42.826 -48.894  13.158  1.00  0.00    -0.307 N 
HETATM    2  C   UNL     1     -42.918 -47.906  12.201  1.00  0.00     0.323 C 
HETATM    3  O   UNL     1     -43.483 -48.071  11.120  1.00  0.00    -0.247 OA
HETATM    4  N   UNL     1     -42.339 -46.678  12.510  1.00  0.00    -0.332 N 
HETATM    5  C   UNL     1     -41.531 -46.343  13.692  1.00  0.00     0.129 C 
HETATM    6  C   UNL     1     -40.036 -46.412  13.386  1.00  0.00     0.040 C 
HETATM    7  C   UNL     1     -39.476 -45.083  12.861  1.00  0.00     0.127 C 
HETATM    8  N   UNL     1     -40.280 -44.411  11.839  1.00  0.00    -0.351 N 
HETATM    9  C   UNL     1     -41.025 -45.262  10.897  1.00  0.00     0.145 C 
HETATM   10  C   UNL     1     -42.403 -45.633  11.465  1.00  0.00     0.147 C 
HETATM   11  C   UNL     1     -40.481 -43.042  11.730  1.00  0.00     0.215 C 
HETATM   12  O   UNL     1     -41.246 -42.563  10.887  1.00  0.00    -0.274 OA
HETATM   13  C   UNL     1     -39.778 -42.094  12.673  1.00  0.00     0.117 C 
HETATM   14  H   UNL     1     -42.557 -48.625  14.088  1.00  0.00     0.170 HD
ENDROOT
BRANCH   1  15
HETATM   15  C   UNL     1     -43.298 -50.227  13.019  1.00  0.00     0.051 A 
HETATM   16  C   UNL     1     -44.569 -50.647  13.398  1.00  0.00     0.035 A 
HETATM   17  C   UNL     1     -44.956 -51.972  13.208  1.00  0.00     0.058 A 
HETATM   18  C   UNL     1     -44.050 -52.855  12.651  1.00  0.00     0.141 A 
HETATM   19  N   UNL     1     -42.810 -52.501  12.260  1.00  0.00    -0.345 N 
HETATM   20  C   UNL     1     -42.470 -51.198  12.449  1.00  0.00     0.119 A 
ATOM     21  HN  UNL     1     -42.163 -53.173  11.847  1.00  0.00     0.167 HD
BRANCH  18  22
HETATM   22  O   UNL     1     -44.524 -54.127  12.409  1.00  0.00    -0.334 OA
BRANCH  22  23
HETATM   23  C   UNL     1     -45.233 -54.697  13.508  1.00  0.00     0.203 C 
BRANCH  23  24
HETATM   24  C   UNL     1     -44.219 -55.002  14.609  1.00  0.00     0.193 C 
BRANCH  24  25
HETATM   25  O   UNL     1     -44.780 -54.706  15.887  1.00  0.00    -0.394 OA
HETATM   26  C   UNL     1     -46.067 -54.113  15.767  1.00  0.00     0.201 C 
ENDBRANCH  24  25
ENDBRANCH  23  24
ENDBRANCH  22  23
ENDBRANCH  18  22
ENDBRANCH   1  15
TORSDOF 5
ENDMDL
MODEL 4
REMARK VINA RESULT:      -5.7      4.712      7.713
REMARK  5 active torsions:
REMARK  status: ('A' for Active; 'I' for Inactive)
REMARK    1  A    between atoms: O_2  and  C_3 
REMARK    2  A    between atoms: C_3  and  C_4 
REMARK    3  A    between atoms: C_4  and  O_5 
REMARK    4  A    between atoms: O_5  and  C_6 
REMARK    5  A    between atoms: C_9  and  N_10 
REMARK       I    between atoms: N_10  and  C_11 
REMARK       I    between atoms: C_11  and  N_13 
REMARK       I    between atoms: N_17  and  C_20 
ROOT
HETATM    1  N   UNL     1     -43.641 -51.016  13.850  1.00  0.00    -0.307 N 
HETATM    2  C   UNL     1     -42.415 -51.609  14.061  1.00  0.00     0.323 C 
HETATM    3  O   UNL     1     -42.197 -52.385  14.992  1.00  0.00    -0.247 OA
HETATM    4  N   UNL     1     -41.404 -51.297  13.156  1.00  0.00    -0.332 N 
HETATM    5  C   UNL     1     -41.453 -50.311  12.066  1.00  0.00     0.129 C 
HETATM    6  C   UNL     1     -40.812 -48.987  12.479  1.00  0.00     0.040 C 
HETATM    7  C   UNL     1     -39.304 -48.943  12.197  1.00  0.00     0.127 C 
HETATM    8  N   UNL     1     -38.548 -50.136  12.583  1.00  0.00    -0.351 N 
HETATM    9  C   UNL     1     -39.003 -50.869  13.776  1.00  0.00     0.145 C 
HETATM   10  C   UNL     1     -40.078 -51.902  13.409  1.00  0.00     0.147 C 
HETATM   11  C   UNL     1     -37.495 -50.697  11.873  1.00  0.00     0.215 C 
HETATM   12  O   UNL     1     -36.967 -51.757  12.226  1.00  0.00    -0.274 OA
HETATM   13  C   UNL     1     -36.981 -50.028  10.620  1.00  0.00     0.117 C 
HETATM   14  H   UNL     1     -43.808 -50.583  12.959  1.00  0.00     0.170 HD
ENDROOT
BRANCH   1  15
HETATM   15  C   UNL     1     -44.782 -51.157  14.685  1.00  0.00     0.051 A 
HETATM   16  C   UNL     1     -44.916 -50.551  15.931  1.00  0.00     0.035 A 
HETATM   17  C   UNL     1     -46.079 -50.730  16.677  1.00  0.00     0.058 A 
HETATM   18  C   UNL     1     -47.084 -51.527  16.160  1.00  0.00     0.141 A 
HETATM   19  N   UNL     1     -47.010 -52.131  14.958  1.00  0.00    -0.345 N 
HETATM   20  C   UNL     1     -45.866 -51.926  14.251  1.00  0.00     0.119 A 
ATOM     21  HN  UNL     1     -47.769 -52.711  14.599  1.00  0.00     0.167 HD
BRANCH  18  22
HETATM   22  O   UNL     1     -48.241 -51.590  16.906  1.00  0.00    -0.334 OA
BRANCH  22  23
HETATM   23  C   UNL     1     -48.214 -50.783  18.083  1.00  0.00     0.203 C 
BRANCH  23  24
HETATM   24  C   UNL     1     -48.358 -51.712  19.287  1.00  0.00     0.193 C 
BRANCH  24  25
HETATM   25  O   UNL     1     -49.658 -52.300  19.298  1.00  0.00    -0.394 OA
HETATM   26  C   UNL     1     -50.193 -52.359  20.614  1.00  0.00     0.201 C 
ENDBRANCH  24  25
ENDBRANCH  23  24
ENDBRANCH  22  23
ENDBRANCH  18  22
ENDBRANCH   1  15
TORSDOF 5
ENDMDL
MODEL 5
REMARK VINA RESULT:      -5.6      4.285      9.362
REMARK  5 active torsions:
REMARK  status: ('A' for Active; 'I' for Inactive)
REMARK    1  A    between atoms: O_2  and  C_3 
REMARK    2  A    between atoms: C_3  and  C_4 
REMARK    3  A    between atoms: C_4  and  O_5 
REMARK    4  A    between atoms: O_5  and  C_6 
REMARK    5  A    between atoms: C_9  and  N_10 
REMARK       I    between atoms: N_10  and  C_11 
REMARK       I    between atoms: C_11  and  N_13 
REMARK       I    between atoms: N_17  and  C_20 
ROOT
HETATM    1  N   UNL     1     -41.345 -47.260  11.773  1.00  0.00    -0.307 N 
HETATM    2  C   UNL     1     -40.466 -46.470  12.484  1.00  0.00     0.323 C 
HETATM    3  O   UNL     1     -39.711 -46.917  13.347  1.00  0.00    -0.247 OA
HETATM    4  N   UNL     1     -40.456 -45.112  12.176  1.00  0.00    -0.332 N 
HETATM    5  C   UNL     1     -41.361 -44.395  11.267  1.00  0.00     0.129 C 
HETATM    6  C   UNL     1     -42.493 -43.708  12.029  1.00  0.00     0.040 C 
HETATM    7  C   UNL     1     -42.129 -42.288  12.482  1.00  0.00     0.127 C 
HETATM    8  N   UNL     1     -40.803 -42.131  13.082  1.00  0.00    -0.351 N 
HETATM    9  C   UNL     1     -40.278 -43.259  13.869  1.00  0.00     0.145 C 
HETATM   10  C   UNL     1     -39.542 -44.261  12.968  1.00  0.00     0.147 C 
HETATM   11  C   UNL     1     -39.951 -41.050  12.901  1.00  0.00     0.215 C 
HETATM   12  O   UNL     1     -38.811 -41.036  13.377  1.00  0.00    -0.274 OA
HETATM   13  C   UNL     1     -40.396 -39.859  12.085  1.00  0.00     0.117 C 
HETATM   14  H   UNL     1     -41.758 -46.875  10.942  1.00  0.00     0.170 HD
ENDROOT
BRANCH   1  15
HETATM   15  C   UNL     1     -41.550 -48.652  11.971  1.00  0.00     0.051 A 
HETATM   16  C   UNL     1     -42.476 -49.184  12.863  1.00  0.00     0.035 A 
HETATM   17  C   UNL     1     -42.623 -50.565  12.981  1.00  0.00     0.058 A 
HETATM   18  C   UNL     1     -41.825 -51.387  12.207  1.00  0.00     0.141 A 
HETATM   19  N   UNL     1     -40.918 -50.926  11.324  1.00  0.00    -0.345 N 
HETATM   20  C   UNL     1     -40.809 -49.573  11.225  1.00  0.00     0.119 A 
ATOM     21  HN  UNL     1     -40.345 -51.555  10.761  1.00  0.00     0.167 HD
BRANCH  18  22
HETATM   22  O   UNL     1     -42.082 -52.737  12.306  1.00  0.00    -0.334 OA
BRANCH  22  23
HETATM   23  C   UNL     1     -43.163 -53.057  13.181  1.00  0.00     0.203 C 
BRANCH  23  24
HETATM   24  C   UNL     1     -44.092 -54.018  12.442  1.00  0.00     0.193 C 
BRANCH  24  25
HETATM   25  O   UNL     1     -45.409 -53.940  12.986  1.00  0.00    -0.394 OA
HETATM   26  C   UNL     1     -45.627 -54.942  13.971  1.00  0.00     0.201 C 
ENDBRANCH  24  25
ENDBRANCH  23  24
ENDBRANCH  22  23
ENDBRANCH  18  22
ENDBRANCH   1  15
TORSDOF 5
ENDMDL
MODEL 6
REMARK VINA RESULT:      -5.6      2.371      3.115
REMARK  5 active torsions:
REMARK  status: ('A' for Active; 'I' for Inactive)
REMARK    1  A    between atoms: O_2  and  C_3 
REMARK    2  A    between atoms: C_3  and  C_4 
REMARK    3  A    between atoms: C_4  and  O_5 
REMARK    4  A    between atoms: O_5  and  C_6 
REMARK    5  A    between atoms: C_9  and  N_10 
REMARK       I    between atoms: N_10  and  C_11 
REMARK       I    between atoms: C_11  and  N_13 
REMARK       I    between atoms: N_17  and  C_20 
ROOT
HETATM    1  N   UNL     1     -41.941 -50.093  11.859  1.00  0.00    -0.307 N 
HETATM    2  C   UNL     1     -42.705 -50.402  12.965  1.00  0.00     0.323 C 
HETATM    3  O   UNL     1     -43.380 -49.568  13.568  1.00  0.00    -0.247 OA
HETATM    4  N   UNL     1     -42.691 -51.730  13.385  1.00  0.00    -0.332 N 
HETATM    5  C   UNL     1     -41.860 -52.824  12.862  1.00  0.00     0.129 C 
HETATM    6  C   UNL     1     -40.624 -53.053  13.730  1.00  0.00     0.040 C 
HETATM    7  C   UNL     1     -40.878 -54.045  14.874  1.00  0.00     0.127 C 
HETATM    8  N   UNL     1     -42.123 -53.855  15.619  1.00  0.00    -0.351 N 
HETATM    9  C   UNL     1     -42.607 -52.475  15.787  1.00  0.00     0.145 C 
HETATM   10  C   UNL     1     -43.478 -52.050  14.596  1.00  0.00     0.147 C 
HETATM   11  C   UNL     1     -42.944 -54.864  16.104  1.00  0.00     0.215 C 
HETATM   12  O   UNL     1     -44.024 -54.616  16.649  1.00  0.00    -0.274 OA
HETATM   13  C   UNL     1     -42.540 -56.312  15.951  1.00  0.00     0.117 C 
HETATM   14  H   UNL     1     -41.605 -50.852  11.293  1.00  0.00     0.170 HD
ENDROOT
BRANCH   1  15
HETATM   15  C   UNL     1     -41.775 -48.795  11.306  1.00  0.00     0.051 A 
HETATM   16  C   UNL     1     -42.779 -48.095  10.645  1.00  0.00     0.035 A 
HETATM   17  C   UNL     1     -42.533 -46.817  10.148  1.00  0.00     0.058 A 
HETATM   18  C   UNL     1     -41.274 -46.270  10.315  1.00  0.00     0.141 A 
HETATM   19  N   UNL     1     -40.268 -46.900  10.952  1.00  0.00    -0.345 N 
HETATM   20  C   UNL     1     -40.546 -48.141  11.435  1.00  0.00     0.119 A 
ATOM     21  HN  UNL     1     -39.349 -46.471  11.065  1.00  0.00     0.167 HD
BRANCH  18  22
HETATM   22  O   UNL     1     -41.123 -44.971   9.880  1.00  0.00    -0.334 OA
BRANCH  22  23
HETATM   23  C   UNL     1     -40.264 -44.183  10.703  1.00  0.00     0.203 C 
BRANCH  23  24
HETATM   24  C   UNL     1     -41.124 -43.127  11.395  1.00  0.00     0.193 C 
BRANCH  24  25
HETATM   25  O   UNL     1     -42.162 -42.690  10.519  1.00  0.00    -0.394 OA
HETATM   26  C   UNL     1     -43.267 -42.164  11.243  1.00  0.00     0.201 C 
ENDBRANCH  24  25
ENDBRANCH  23  24
ENDBRANCH  22  23
ENDBRANCH  18  22
ENDBRANCH   1  15
TORSDOF 5
ENDMDL
MODEL 7
REMARK VINA RESULT:      -5.4      4.264      9.562
REMARK  5 active torsions:
REMARK  status: ('A' for Active; 'I' for Inactive)
REMARK    1  A    between atoms: O_2  and  C_3 
REMARK    2  A    between atoms: C_3  and  C_4 
REMARK    3  A    between atoms: C_4  and  O_5 
REMARK    4  A    between atoms: O_5  and  C_6 
REMARK    5  A    between atoms: C_9  and  N_10 
REMARK       I    between atoms: N_10  and  C_11 
REMARK       I    between atoms: C_11  and  N_13 
REMARK       I    between atoms: N_17  and  C_20 
ROOT
HETATM    1  N   UNL     1     -41.208 -47.357  11.688  1.00  0.00    -0.307 N 
HETATM    2  C   UNL     1     -40.348 -46.560  12.412  1.00  0.00     0.323 C 
HETATM    3  O   UNL     1     -39.587 -47.003  13.273  1.00  0.00    -0.247 OA
HETATM    4  N   UNL     1     -40.363 -45.198  12.123  1.00  0.00    -0.332 N 
HETATM    5  C   UNL     1     -41.277 -44.486  11.219  1.00  0.00     0.129 C 
HETATM    6  C   UNL     1     -42.426 -43.832  11.986  1.00  0.00     0.040 C 
HETATM    7  C   UNL     1     -42.091 -42.411  12.459  1.00  0.00     0.127 C 
HETATM    8  N   UNL     1     -40.771 -42.236  13.067  1.00  0.00    -0.351 N 
HETATM    9  C   UNL     1     -40.228 -43.364  13.841  1.00  0.00     0.145 C 
HETATM   10  C   UNL     1     -39.468 -44.339  12.930  1.00  0.00     0.147 C 
HETATM   11  C   UNL     1     -39.939 -41.136  12.904  1.00  0.00     0.215 C 
HETATM   12  O   UNL     1     -38.801 -41.107  13.385  1.00  0.00    -0.274 OA
HETATM   13  C   UNL     1     -40.404 -39.944  12.102  1.00  0.00     0.117 C 
HETATM   14  H   UNL     1     -41.625 -46.969  10.860  1.00  0.00     0.170 HD
ENDROOT
BRANCH   1  15
HETATM   15  C   UNL     1     -41.387 -48.755  11.866  1.00  0.00     0.051 A 
HETATM   16  C   UNL     1     -42.348 -49.317  12.700  1.00  0.00     0.035 A 
HETATM   17  C   UNL     1     -42.465 -50.702  12.802  1.00  0.00     0.058 A 
HETATM   18  C   UNL     1     -41.602 -51.497  12.071  1.00  0.00     0.141 A 
HETATM   19  N   UNL     1     -40.658 -51.007  11.244  1.00  0.00    -0.345 N 
HETATM   20  C   UNL     1     -40.580 -49.651  11.159  1.00  0.00     0.119 A 
ATOM     21  HN  UNL     1     -40.037 -51.617  10.712  1.00  0.00     0.167 HD
BRANCH  18  22
HETATM   22  O   UNL     1     -41.828 -52.855  12.148  1.00  0.00    -0.334 OA
BRANCH  22  23
HETATM   23  C   UNL     1     -41.635 -53.399  13.453  1.00  0.00     0.203 C 
BRANCH  23  24
HETATM   24  C   UNL     1     -40.258 -54.060  13.481  1.00  0.00     0.193 C 
BRANCH  24  25
HETATM   25  O   UNL     1     -39.511 -53.586  14.601  1.00  0.00    -0.394 OA
HETATM   26  C   UNL     1     -38.890 -52.338  14.323  1.00  0.00     0.201 C 
ENDBRANCH  24  25
ENDBRANCH  23  24
ENDBRANCH  22  23
ENDBRANCH  18  22
ENDBRANCH   1  15
TORSDOF 5
ENDMDL
MODEL 8
REMARK VINA RESULT:      -5.4      2.728      3.401
REMARK  5 active torsions:
REMARK  status: ('A' for Active; 'I' for Inactive)
REMARK    1  A    between atoms: O_2  and  C_3 
REMARK    2  A    between atoms: C_3  and  C_4 
REMARK    3  A    between atoms: C_4  and  O_5 
REMARK    4  A    between atoms: O_5  and  C_6 
REMARK    5  A    between atoms: C_9  and  N_10 
REMARK       I    between atoms: N_10  and  C_11 
REMARK       I    between atoms: C_11  and  N_13 
REMARK       I    between atoms: N_17  and  C_20 
ROOT
HETATM    1  N   UNL     1     -40.542 -49.838  13.498  1.00  0.00    -0.307 N 
HETATM    2  C   UNL     1     -39.694 -50.920  13.398  1.00  0.00     0.323 C 
HETATM    3  O   UNL     1     -38.865 -51.041  12.497  1.00  0.00    -0.247 OA
HETATM    4  N   UNL     1     -39.806 -51.896  14.385  1.00  0.00    -0.332 N 
HETATM    5  C   UNL     1     -40.808 -51.972  15.458  1.00  0.00     0.129 C 
HETATM    6  C   UNL     1     -41.952 -52.916  15.091  1.00  0.00     0.040 C 
HETATM    7  C   UNL     1     -41.678 -54.369  15.502  1.00  0.00     0.127 C 
HETATM    8  N   UNL     1     -40.340 -54.878  15.194  1.00  0.00    -0.351 N 
HETATM    9  C   UNL     1     -39.691 -54.376  13.972  1.00  0.00     0.145 C 
HETATM   10  C   UNL     1     -38.923 -53.075  14.253  1.00  0.00     0.147 C 
HETATM   11  C   UNL     1     -39.585 -55.722  15.996  1.00  0.00     0.215 C 
HETATM   12  O   UNL     1     -38.428 -56.036  15.699  1.00  0.00    -0.274 OA
HETATM   13  C   UNL     1     -40.162 -56.264  17.283  1.00  0.00     0.117 C 
HETATM   14  H   UNL     1     -41.025 -49.696  14.368  1.00  0.00     0.170 HD
ENDROOT
BRANCH   1  15
HETATM   15  C   UNL     1     -40.628 -48.766  12.568  1.00  0.00     0.051 A 
HETATM   16  C   UNL     1     -41.539 -48.717  11.518  1.00  0.00     0.035 A 
HETATM   17  C   UNL     1     -41.564 -47.617  10.663  1.00  0.00     0.058 A 
HETATM   18  C   UNL     1     -40.662 -46.591  10.872  1.00  0.00     0.141 A 
HETATM   19  N   UNL     1     -39.763 -46.584  11.876  1.00  0.00    -0.345 N 
HETATM   20  C   UNL     1     -39.774 -47.667  12.700  1.00  0.00     0.119 A 
ATOM     21  HN  UNL     1     -39.111 -45.811  12.011  1.00  0.00     0.167 HD
BRANCH  18  22
HETATM   22  O   UNL     1     -40.799 -45.496  10.048  1.00  0.00    -0.334 OA
BRANCH  22  23
HETATM   23  C   UNL     1     -39.840 -44.467  10.290  1.00  0.00     0.203 C 
BRANCH  23  24
HETATM   24  C   UNL     1     -40.561 -43.313  10.985  1.00  0.00     0.193 C 
BRANCH  24  25
HETATM   25  O   UNL     1     -41.951 -43.340  10.662  1.00  0.00    -0.394 OA
HETATM   26  C   UNL     1     -42.755 -43.049  11.798  1.00  0.00     0.201 C 
ENDBRANCH  24  25
ENDBRANCH  23  24
ENDBRANCH  22  23
ENDBRANCH  18  22
ENDBRANCH   1  15
TORSDOF 5
ENDMDL
MODEL 9
REMARK VINA RESULT:      -5.3      3.021      9.445
REMARK  5 active torsions:
REMARK  status: ('A' for Active; 'I' for Inactive)
REMARK    1  A    between atoms: O_2  and  C_3 
REMARK    2  A    between atoms: C_3  and  C_4 
REMARK    3  A    between atoms: C_4  and  O_5 
REMARK    4  A    between atoms: O_5  and  C_6 
REMARK    5  A    between atoms: C_9  and  N_10 
REMARK       I    between atoms: N_10  and  C_11 
REMARK       I    between atoms: C_11  and  N_13 
REMARK       I    between atoms: N_17  and  C_20 
ROOT
HETATM    1  N   UNL     1     -41.209 -50.601  12.837  1.00  0.00    -0.307 N 
HETATM    2  C   UNL     1     -40.456 -49.605  12.253  1.00  0.00     0.323 C 
HETATM    3  O   UNL     1     -39.252 -49.720  12.025  1.00  0.00    -0.247 OA
HETATM    4  N   UNL     1     -41.126 -48.432  11.913  1.00  0.00    -0.332 N 
HETATM    5  C   UNL     1     -42.520 -48.080  12.215  1.00  0.00     0.129 C 
HETATM    6  C   UNL     1     -42.618 -47.191  13.454  1.00  0.00     0.040 C 
HETATM    7  C   UNL     1     -42.511 -45.696  13.122  1.00  0.00     0.127 C 
HETATM    8  N   UNL     1     -41.449 -45.326  12.184  1.00  0.00    -0.351 N 
HETATM    9  C   UNL     1     -40.205 -46.111  12.226  1.00  0.00     0.145 C 
HETATM   10  C   UNL     1     -40.308 -47.350  11.324  1.00  0.00     0.147 C 
HETATM   11  C   UNL     1     -41.541 -44.359  11.192  1.00  0.00     0.215 C 
HETATM   12  O   UNL     1     -40.624 -44.168  10.386  1.00  0.00    -0.274 OA
HETATM   13  C   UNL     1     -42.792 -43.523  11.057  1.00  0.00     0.117 C 
HETATM   14  H   UNL     1     -42.210 -50.528  12.785  1.00  0.00     0.170 HD
ENDROOT
BRANCH   1  15
HETATM   15  C   UNL     1     -40.710 -51.846  13.308  1.00  0.00     0.051 A 
HETATM   16  C   UNL     1     -40.973 -53.070  12.702  1.00  0.00     0.035 A 
HETATM   17  C   UNL     1     -40.427 -54.242  13.222  1.00  0.00     0.058 A 
HETATM   18  C   UNL     1     -39.635 -54.162  14.352  1.00  0.00     0.141 A 
HETATM   19  N   UNL     1     -39.343 -53.003  14.975  1.00  0.00    -0.345 N 
HETATM   20  C   UNL     1     -39.882 -51.878  14.434  1.00  0.00     0.119 A 
ATOM     21  HN  UNL     1     -38.751 -52.972  15.805  1.00  0.00     0.167 HD
BRANCH  18  22
HETATM   22  O   UNL     1     -39.055 -55.343  14.761  1.00  0.00    -0.334 OA
BRANCH  22  23
HETATM   23  C   UNL     1     -38.281 -55.224  15.954  1.00  0.00     0.203 C 
BRANCH  23  24
HETATM   24  C   UNL     1     -39.048 -55.919  17.078  1.00  0.00     0.193 C 
BRANCH  24  25
HETATM   25  O   UNL     1     -39.491 -57.204  16.645  1.00  0.00    -0.394 OA
HETATM   26  C   UNL     1     -39.551 -58.127  17.725  1.00  0.00     0.201 C 
ENDBRANCH  24  25
ENDBRANCH  23  24
ENDBRANCH  22  23
ENDBRANCH  18  22
ENDBRANCH   1  15
TORSDOF 5
ENDMDL
