MODEL 1
REMARK VINA RESULT:      -6.0      0.000      0.000
REMARK  3 active torsions:
REMARK  status: ('A' for Active; 'I' for Inactive)
REMARK    1  A    between atoms: C_2  and  N_3 
REMARK    2  A    between atoms: C_2  and  C_13 
REMARK       I    between atoms: N_3  and  C_4 
REMARK       I    between atoms: C_4  and  N_6 
REMARK    3  A    between atoms: N_6  and  C_7 
ROOT
HETATM    1  N   UNL     1     -44.973 -52.450  12.588  1.00  0.00    -0.338 N 
HETATM    2  C   UNL     1     -44.351 -53.665  12.565  1.00  0.00     0.323 C 
HETATM    3  O   UNL     1     -44.950 -54.734  12.655  1.00  0.00    -0.247 OA
HETATM    4  N   UNL     1     -42.992 -53.650  12.470  1.00  0.00    -0.274 N 
HETATM    5  H   UNL     1     -44.370 -51.637  12.637  1.00  0.00     0.164 HD
HETATM    6  H   UNL     1     -42.514 -54.536  12.540  1.00  0.00     0.174 HD
ENDROOT
BRANCH   1   7
HETATM    7  C   UNL     1     -46.381 -52.242  12.819  1.00  0.00     0.086 C 
HETATM    8  C   UNL     1     -47.014 -51.683  11.544  1.00  0.00     0.032 C 
BRANCH   7   9
HETATM    9  C   UNL     1     -46.637 -51.319  13.989  1.00  0.00     0.008 A 
HETATM   10  C   UNL     1     -45.709 -51.255  15.183  1.00  0.00     0.007 A 
HETATM   11  C   UNL     1     -47.103 -51.784  15.354  1.00  0.00     0.007 A 
ENDBRANCH   7   9
ENDBRANCH   1   7
BRANCH   4  12
HETATM   12  C   UNL     1     -42.241 -52.527  12.304  1.00  0.00     0.231 A 
HETATM   13  N   UNL     1     -41.370 -52.252  11.352  1.00  0.00    -0.330 N 
HETATM   14  C   UNL     1     -40.908 -51.008  11.677  1.00  0.00     0.116 A 
ATOM     15  HN  UNL     1     -41.103 -52.834  10.559  1.00  0.00     0.168 HD
HETATM   16  C   UNL     1     -41.559 -50.553  12.795  1.00  0.00     0.162 A 
HETATM   17  O   UNL     1     -42.405 -51.532  13.222  1.00  0.00    -0.290 OA
ENDBRANCH   4  12
TORSDOF 3
ENDMDL
MODEL 2
REMARK VINA RESULT:      -4.8      1.439      2.008
REMARK  3 active torsions:
REMARK  status: ('A' for Active; 'I' for Inactive)
REMARK    1  A    between atoms: C_2  and  N_3 
REMARK    2  A    between atoms: C_2  and  C_13 
REMARK       I    between atoms: N_3  and  C_4 
REMARK       I    between atoms: C_4  and  N_6 
REMARK    3  A    between atoms: N_6  and  C_7 
ROOT
HETATM    1  N   UNL     1     -43.817 -52.662  13.896  1.00  0.00    -0.338 N 
HETATM    2  C   UNL     1     -43.904 -53.287  12.686  1.00  0.00     0.323 C 
HETATM    3  O   UNL     1     -44.825 -54.039  12.378  1.00  0.00    -0.247 OA
HETATM    4  N   UNL     1     -42.881 -53.068  11.813  1.00  0.00    -0.274 N 
HETATM    5  H   UNL     1     -42.951 -52.169  14.087  1.00  0.00     0.164 HD
HETATM    6  H   UNL     1     -42.889 -53.592  10.951  1.00  0.00     0.174 HD
ENDROOT
BRANCH   1   7
HETATM    7  C   UNL     1     -44.717 -52.867  15.004  1.00  0.00     0.086 C 
HETATM    8  C   UNL     1     -44.543 -54.294  15.526  1.00  0.00     0.032 C 
BRANCH   7   9
HETATM    9  C   UNL     1     -46.157 -52.611  14.623  1.00  0.00     0.008 A 
HETATM   10  C   UNL     1     -46.591 -51.347  13.912  1.00  0.00     0.007 A 
HETATM   11  C   UNL     1     -47.055 -51.605  15.316  1.00  0.00     0.007 A 
ENDBRANCH   7   9
ENDBRANCH   1   7
BRANCH   4  12
HETATM   12  C   UNL     1     -41.849 -52.207  12.033  1.00  0.00     0.231 A 
HETATM   13  N   UNL     1     -41.702 -50.971  11.597  1.00  0.00    -0.330 N 
HETATM   14  C   UNL     1     -40.492 -50.585  12.103  1.00  0.00     0.116 A 
ATOM     15  HN  UNL     1     -42.342 -50.429  11.017  1.00  0.00     0.168 HD
HETATM   16  C   UNL     1     -39.973 -51.594  12.873  1.00  0.00     0.162 A 
HETATM   17  O   UNL     1     -40.827 -52.654  12.817  1.00  0.00    -0.290 OA
ENDBRANCH   4  12
TORSDOF 3
ENDMDL
MODEL 3
REMARK VINA RESULT:      -4.7      5.799      6.799
REMARK  3 active torsions:
REMARK  status: ('A' for Active; 'I' for Inactive)
REMARK    1  A    between atoms: C_2  and  N_3 
REMARK    2  A    between atoms: C_2  and  C_13 
REMARK       I    between atoms: N_3  and  C_4 
REMARK       I    between atoms: C_4  and  N_6 
REMARK    3  A    between atoms: N_6  and  C_7 
ROOT
HETATM    1  N   UNL     1     -40.448 -47.077  10.763  1.00  0.00    -0.338 N 
HETATM    2  C   UNL     1     -41.268 -48.126  10.466  1.00  0.00     0.323 C 
HETATM    3  O   UNL     1     -42.369 -47.995   9.938  1.00  0.00    -0.247 OA
HETATM    4  N   UNL     1     -40.824 -49.365  10.820  1.00  0.00    -0.274 N 
HETATM    5  H   UNL     1     -39.623 -47.293  11.313  1.00  0.00     0.164 HD
HETATM    6  H   UNL     1     -41.459 -50.139  10.686  1.00  0.00     0.174 HD
ENDROOT
BRANCH   1   7
HETATM    7  C   UNL     1     -40.785 -45.685  10.599  1.00  0.00     0.086 C 
HETATM    8  C   UNL     1     -39.578 -44.949  10.013  1.00  0.00     0.032 C 
BRANCH   7   9
HETATM    9  C   UNL     1     -41.219 -45.046  11.899  1.00  0.00     0.008 A 
HETATM   10  C   UNL     1     -42.455 -45.499  12.646  1.00  0.00     0.007 A 
HETATM   11  C   UNL     1     -42.417 -44.127  12.037  1.00  0.00     0.007 A 
ENDBRANCH   7   9
ENDBRANCH   1   7
BRANCH   4  12
HETATM   12  C   UNL     1     -39.598 -49.623  11.352  1.00  0.00     0.231 A 
HETATM   13  N   UNL     1     -38.529 -50.112  10.754  1.00  0.00    -0.330 N 
HETATM   14  C   UNL     1     -37.594 -50.174  11.750  1.00  0.00     0.116 A 
ATOM     15  HN  UNL     1     -38.423 -50.381   9.777  1.00  0.00     0.168 HD
HETATM   16  C   UNL     1     -38.124 -49.670  12.910  1.00  0.00     0.162 A 
HETATM   17  O   UNL     1     -39.423 -49.332  12.672  1.00  0.00    -0.290 OA
ENDBRANCH   4  12
TORSDOF 3
ENDMDL
MODEL 4
REMARK VINA RESULT:      -4.7      2.468      3.450
REMARK  3 active torsions:
REMARK  status: ('A' for Active; 'I' for Inactive)
REMARK    1  A    between atoms: C_2  and  N_3 
REMARK    2  A    between atoms: C_2  and  C_13 
REMARK       I    between atoms: N_3  and  C_4 
REMARK       I    between atoms: C_4  and  N_6 
REMARK    3  A    between atoms: N_6  and  C_7 
ROOT
HETATM    1  N   UNL     1     -43.484 -53.804  14.168  1.00  0.00    -0.338 N 
HETATM    2  C   UNL     1     -44.060 -53.893  12.935  1.00  0.00     0.323 C 
HETATM    3  O   UNL     1     -45.057 -54.571  12.700  1.00  0.00    -0.247 OA
HETATM    4  N   UNL     1     -43.451 -53.205  11.928  1.00  0.00    -0.274 N 
HETATM    5  H   UNL     1     -42.594 -53.320  14.215  1.00  0.00     0.164 HD
HETATM    6  H   UNL     1     -43.815 -53.333  10.995  1.00  0.00     0.174 HD
ENDROOT
BRANCH   1   7
HETATM    7  C   UNL     1     -43.887 -54.556  15.330  1.00  0.00     0.086 C 
HETATM    8  C   UNL     1     -45.029 -53.814  16.028  1.00  0.00     0.032 C 
BRANCH   7   9
HETATM    9  C   UNL     1     -42.740 -54.788  16.286  1.00  0.00     0.008 A 
HETATM   10  C   UNL     1     -41.330 -55.053  15.803  1.00  0.00     0.007 A 
HETATM   11  C   UNL     1     -42.085 -56.136  16.519  1.00  0.00     0.007 A 
ENDBRANCH   7   9
ENDBRANCH   1   7
BRANCH   4  12
HETATM   12  C   UNL     1     -42.383 -52.378  12.094  1.00  0.00     0.231 A 
HETATM   13  N   UNL     1     -41.241 -52.364  11.433  1.00  0.00    -0.330 N 
HETATM   14  C   UNL     1     -40.537 -51.347  12.013  1.00  0.00     0.116 A 
ATOM     15  HN  UNL     1     -40.952 -52.972  10.668  1.00  0.00     0.168 HD
HETATM   16  C   UNL     1     -41.305 -50.746  12.977  1.00  0.00     0.162 A 
HETATM   17  O   UNL     1     -42.490 -51.417  13.055  1.00  0.00    -0.290 OA
ENDBRANCH   4  12
TORSDOF 3
ENDMDL
MODEL 5
REMARK VINA RESULT:      -4.6      2.129      2.576
REMARK  3 active torsions:
REMARK  status: ('A' for Active; 'I' for Inactive)
REMARK    1  A    between atoms: C_2  and  N_3 
REMARK    2  A    between atoms: C_2  and  C_13 
REMARK       I    between atoms: N_3  and  C_4 
REMARK       I    between atoms: C_4  and  N_6 
REMARK    3  A    between atoms: N_6  and  C_7 
ROOT
HETATM    1  N   UNL     1     -43.608 -52.059  13.434  1.00  0.00    -0.338 N 
HETATM    2  C   UNL     1     -44.021 -53.118  12.679  1.00  0.00     0.323 C 
HETATM    3  O   UNL     1     -45.100 -53.151  12.092  1.00  0.00    -0.247 OA
HETATM    4  N   UNL     1     -43.182 -54.190  12.624  1.00  0.00    -0.274 N 
HETATM    5  H   UNL     1     -42.760 -52.196  13.974  1.00  0.00     0.164 HD
HETATM    6  H   UNL     1     -43.514 -55.013  12.142  1.00  0.00     0.174 HD
ENDROOT
BRANCH   1   7
HETATM    7  C   UNL     1     -44.399 -50.892  13.733  1.00  0.00     0.086 C 
HETATM    8  C   UNL     1     -43.473 -49.679  13.841  1.00  0.00     0.032 C 
BRANCH   7   9
HETATM    9  C   UNL     1     -45.207 -51.059  15.000  1.00  0.00     0.008 A 
HETATM   10  C   UNL     1     -45.688 -52.413  15.476  1.00  0.00     0.007 A 
HETATM   11  C   UNL     1     -46.687 -51.386  15.029  1.00  0.00     0.007 A 
ENDBRANCH   7   9
ENDBRANCH   1   7
BRANCH   4  12
HETATM   12  C   UNL     1     -41.942 -54.230  13.184  1.00  0.00     0.231 A 
HETATM   13  N   UNL     1     -40.770 -54.305  12.585  1.00  0.00    -0.330 N 
HETATM   14  C   UNL     1     -39.872 -54.325  13.616  1.00  0.00     0.116 A 
ATOM     15  HN  UNL     1     -40.577 -54.341  11.584  1.00  0.00     0.168 HD
HETATM   16  C   UNL     1     -40.540 -54.209  14.808  1.00  0.00     0.162 A 
HETATM   17  O   UNL     1     -41.877 -54.171  14.545  1.00  0.00    -0.290 OA
ENDBRANCH   4  12
TORSDOF 3
ENDMDL
MODEL 6
REMARK VINA RESULT:      -4.5      3.724      6.400
REMARK  3 active torsions:
REMARK  status: ('A' for Active; 'I' for Inactive)
REMARK    1  A    between atoms: C_2  and  N_3 
REMARK    2  A    between atoms: C_2  and  C_13 
REMARK       I    between atoms: N_3  and  C_4 
REMARK       I    between atoms: C_4  and  N_6 
REMARK    3  A    between atoms: N_6  and  C_7 
ROOT
HETATM    1  N   UNL     1     -39.523 -50.350  12.114  1.00  0.00    -0.338 N 
HETATM    2  C   UNL     1     -40.705 -50.095  11.480  1.00  0.00     0.323 C 
HETATM    3  O   UNL     1     -40.892 -49.113  10.768  1.00  0.00    -0.247 OA
HETATM    4  N   UNL     1     -41.716 -50.982  11.701  1.00  0.00    -0.274 N 
HETATM    5  H   UNL     1     -39.524 -51.119  12.776  1.00  0.00     0.164 HD
HETATM    6  H   UNL     1     -42.620 -50.758  11.309  1.00  0.00     0.174 HD
ENDROOT
BRANCH   1   7
HETATM    7  C   UNL     1     -38.380 -49.473  12.124  1.00  0.00     0.086 C 
HETATM    8  C   UNL     1     -37.347 -49.994  11.123  1.00  0.00     0.032 C 
BRANCH   7   9
HETATM    9  C   UNL     1     -37.769 -49.347  13.501  1.00  0.00     0.008 A 
HETATM   10  C   UNL     1     -38.601 -49.030  14.725  1.00  0.00     0.007 A 
HETATM   11  C   UNL     1     -37.590 -48.033  14.236  1.00  0.00     0.007 A 
ENDBRANCH   7   9
ENDBRANCH   1   7
BRANCH   4  12
HETATM   12  C   UNL     1     -41.594 -52.131  12.420  1.00  0.00     0.231 A 
HETATM   13  N   UNL     1     -42.338 -52.559  13.420  1.00  0.00    -0.330 N 
HETATM   14  C   UNL     1     -41.766 -53.750  13.771  1.00  0.00     0.116 A 
ATOM     15  HN  UNL     1     -43.152 -52.107  13.836  1.00  0.00     0.168 HD
HETATM   16  C   UNL     1     -40.718 -54.022  12.929  1.00  0.00     0.162 A 
HETATM   17  O   UNL     1     -40.582 -52.975  12.068  1.00  0.00    -0.290 OA
ENDBRANCH   4  12
TORSDOF 3
ENDMDL
MODEL 7
REMARK VINA RESULT:      -4.5      5.230      6.911
REMARK  3 active torsions:
REMARK  status: ('A' for Active; 'I' for Inactive)
REMARK    1  A    between atoms: C_2  and  N_3 
REMARK    2  A    between atoms: C_2  and  C_13 
REMARK       I    between atoms: N_3  and  C_4 
REMARK       I    between atoms: C_4  and  N_6 
REMARK    3  A    between atoms: N_6  and  C_7 
ROOT
HETATM    1  N   UNL     1     -41.168 -46.497  10.725  1.00  0.00    -0.338 N 
HETATM    2  C   UNL     1     -42.170 -47.213  10.137  1.00  0.00     0.323 C 
HETATM    3  O   UNL     1     -43.055 -46.705   9.454  1.00  0.00    -0.247 OA
HETATM    4  N   UNL     1     -42.175 -48.556  10.372  1.00  0.00    -0.274 N 
HETATM    5  H   UNL     1     -40.571 -47.003  11.369  1.00  0.00     0.164 HD
HETATM    6  H   UNL     1     -42.959 -49.084  10.016  1.00  0.00     0.174 HD
ENDROOT
BRANCH   1   7
HETATM    7  C   UNL     1     -41.060 -45.059  10.717  1.00  0.00     0.086 C 
HETATM    8  C   UNL     1     -39.659 -44.671  10.240  1.00  0.00     0.032 C 
BRANCH   7   9
HETATM    9  C   UNL     1     -41.346 -44.458  12.074  1.00  0.00     0.008 A 
HETATM   10  C   UNL     1     -42.468 -44.959  12.957  1.00  0.00     0.007 A 
HETATM   11  C   UNL     1     -42.540 -43.575  12.379  1.00  0.00     0.007 A 
ENDBRANCH   7   9
ENDBRANCH   1   7
BRANCH   4  12
HETATM   12  C   UNL     1     -41.209 -49.224  11.060  1.00  0.00     0.231 A 
HETATM   13  N   UNL     1     -40.306 -50.068  10.602  1.00  0.00    -0.330 N 
HETATM   14  C   UNL     1     -39.608 -50.442  11.716  1.00  0.00     0.116 A 
ATOM     15  HN  UNL     1     -40.161 -50.371   9.639  1.00  0.00     0.168 HD
HETATM   16  C   UNL     1     -40.089 -49.766  12.808  1.00  0.00     0.162 A 
HETATM   17  O   UNL     1     -41.137 -48.995  12.403  1.00  0.00    -0.290 OA
ENDBRANCH   4  12
TORSDOF 3
ENDMDL
MODEL 8
REMARK VINA RESULT:      -4.4     14.834     15.997
REMARK  3 active torsions:
REMARK  status: ('A' for Active; 'I' for Inactive)
REMARK    1  A    between atoms: C_2  and  N_3 
REMARK    2  A    between atoms: C_2  and  C_13 
REMARK       I    between atoms: N_3  and  C_4 
REMARK       I    between atoms: C_4  and  N_6 
REMARK    3  A    between atoms: N_6  and  C_7 
ROOT
HETATM    1  N   UNL     1     -50.334 -54.305  -2.344  1.00  0.00    -0.338 N 
HETATM    2  C   UNL     1     -49.171 -54.983  -2.118  1.00  0.00     0.323 C 
HETATM    3  O   UNL     1     -49.073 -56.204  -2.198  1.00  0.00    -0.247 OA
HETATM    4  N   UNL     1     -48.092 -54.234  -1.754  1.00  0.00    -0.274 N 
HETATM    5  H   UNL     1     -50.328 -53.315  -2.123  1.00  0.00     0.164 HD
HETATM    6  H   UNL     1     -47.250 -54.730  -1.499  1.00  0.00     0.174 HD
ENDROOT
BRANCH   1   7
HETATM    7  C   UNL     1     -51.614 -54.915  -2.603  1.00  0.00     0.086 C 
HETATM    8  C   UNL     1     -51.831 -54.987  -4.116  1.00  0.00     0.032 C 
BRANCH   7   9
HETATM    9  C   UNL     1     -52.747 -54.167  -1.938  1.00  0.00     0.008 A 
HETATM   10  C   UNL     1     -52.503 -53.056  -0.940  1.00  0.00     0.007 A 
HETATM   11  C   UNL     1     -53.141 -54.336  -0.484  1.00  0.00     0.007 A 
ENDBRANCH   7   9
ENDBRANCH   1   7
BRANCH   4  12
HETATM   12  C   UNL     1     -48.079 -52.874  -1.697  1.00  0.00     0.231 A 
HETATM   13  N   UNL     1     -47.517 -52.021  -2.532  1.00  0.00    -0.330 N 
HETATM   14  C   UNL     1     -47.802 -50.797  -1.993  1.00  0.00     0.116 A 
ATOM     15  HN  UNL     1     -46.993 -52.227  -3.381  1.00  0.00     0.168 HD
HETATM   16  C   UNL     1     -48.574 -50.957  -0.871  1.00  0.00     0.162 A 
HETATM   17  O   UNL     1     -48.740 -52.293  -0.656  1.00  0.00    -0.290 OA
ENDBRANCH   4  12
TORSDOF 3
ENDMDL
MODEL 9
REMARK VINA RESULT:      -4.3     22.451     23.882
REMARK  3 active torsions:
REMARK  status: ('A' for Active; 'I' for Inactive)
REMARK    1  A    between atoms: C_2  and  N_3 
REMARK    2  A    between atoms: C_2  and  C_13 
REMARK       I    between atoms: N_3  and  C_4 
REMARK       I    between atoms: C_4  and  N_6 
REMARK    3  A    between atoms: N_6  and  C_7 
ROOT
HETATM    1  N   UNL     1     -28.617 -53.509  -5.400  1.00  0.00    -0.338 N 
HETATM    2  C   UNL     1     -28.199 -54.692  -4.864  1.00  0.00     0.323 C 
HETATM    3  O   UNL     1     -28.844 -55.734  -4.937  1.00  0.00    -0.247 OA
HETATM    4  N   UNL     1     -27.014 -54.669  -4.190  1.00  0.00    -0.274 N 
HETATM    5  H   UNL     1     -28.066 -52.690  -5.167  1.00  0.00     0.164 HD
HETATM    6  H   UNL     1     -26.737 -55.515  -3.714  1.00  0.00     0.174 HD
ENDROOT
BRANCH   1   7
HETATM    7  C   UNL     1     -29.896 -53.288  -6.028  1.00  0.00     0.086 C 
HETATM    8  C   UNL     1     -29.789 -52.075  -6.955  1.00  0.00     0.032 C 
BRANCH   7   9
HETATM    9  C   UNL     1     -31.001 -53.088  -5.016  1.00  0.00     0.008 A 
HETATM   10  C   UNL     1     -31.811 -54.244  -4.470  1.00  0.00     0.007 A 
HETATM   11  C   UNL     1     -32.479 -53.214  -5.334  1.00  0.00     0.007 A 
ENDBRANCH   7   9
ENDBRANCH   1   7
BRANCH   4  12
HETATM   12  C   UNL     1     -26.195 -53.585  -4.105  1.00  0.00     0.231 A 
HETATM   13  N   UNL     1     -25.092 -53.331  -4.782  1.00  0.00    -0.330 N 
HETATM   14  C   UNL     1     -24.675 -52.125  -4.293  1.00  0.00     0.116 A 
ATOM     15  HN  UNL     1     -24.653 -53.902  -5.503  1.00  0.00     0.168 HD
HETATM   16  C   UNL     1     -25.576 -51.669  -3.365  1.00  0.00     0.162 A 
HETATM   17  O   UNL     1     -26.549 -52.612  -3.218  1.00  0.00    -0.290 OA
ENDBRANCH   4  12
TORSDOF 3
ENDMDL
