MODEL 1
REMARK VINA RESULT:      -4.5      0.000      0.000
REMARK  4 active torsions:
REMARK  status: ('A' for Active; 'I' for Inactive)
REMARK    1  A    between atoms: N_1  and  C_2 
REMARK    2  A    between atoms: C_2  and  C_3 
REMARK    3  A    between atoms: C_3  and  N_4 
REMARK    4  A    between atoms: C_3  and  C_10 
ROOT
HETATM    1  C   UNL     1     -42.391 -52.905  13.397  1.00  0.00     0.285 C 
ENDROOT
BRANCH   1   2
HETATM    2  C   UNL     1     -41.920 -51.971  12.215  1.00  0.00     0.307 C 
BRANCH   2   3
HETATM    3  N   UNL     1     -41.233 -52.634  11.098  1.00  0.00     0.080 N 
HETATM    4  H   UNL     1     -41.898 -53.237  10.615  1.00  0.00     0.312 HD
HETATM    5  H   UNL     1     -40.499 -53.243  11.458  1.00  0.00     0.312 HD
ENDBRANCH   2   3
ENDBRANCH   1   2
BRANCH   1   6
HETATM    6  N   UNL     1     -41.669 -52.630  14.673  1.00  0.00     0.103 N 
HETATM    7  C   UNL     1     -40.192 -52.749  14.529  1.00  0.00     0.299 C 
HETATM    8  C   UNL     1     -39.690 -54.202  14.393  1.00  0.00     0.198 C 
HETATM    9  O   UNL     1     -40.102 -55.002  15.507  1.00  0.00    -0.388 OA
HETATM   10  C   UNL     1     -41.525 -54.962  15.666  1.00  0.00     0.198 C 
HETATM   11  C   UNL     1     -42.037 -53.521  15.803  1.00  0.00     0.299 C 
ENDBRANCH   1   6
BRANCH   1  12
HETATM   12  C   UNL     1     -43.909 -52.756  13.508  1.00  0.00    -0.008 A 
HETATM   13  C   UNL     1     -44.484 -51.517  13.823  1.00  0.00     0.012 A 
HETATM   14  C   UNL     1     -45.864 -51.402  13.955  1.00  0.00     0.018 A 
HETATM   15  C   UNL     1     -46.637 -52.534  13.775  1.00  0.00     0.087 A 
HETATM   16  N   UNL     1     -46.129 -53.744  13.462  1.00  0.00    -0.375 N 
HETATM   17  C   UNL     1     -44.782 -53.826  13.327  1.00  0.00     0.096 A 
ATOM     18  HN  UNL     1     -46.729 -54.559  13.332  1.00  0.00     0.164 HD
ENDBRANCH   1  12
TORSDOF 4
ENDMDL
MODEL 2
REMARK VINA RESULT:      -4.4      1.936      2.306
REMARK  4 active torsions:
REMARK  status: ('A' for Active; 'I' for Inactive)
REMARK    1  A    between atoms: N_1  and  C_2 
REMARK    2  A    between atoms: C_2  and  C_3 
REMARK    3  A    between atoms: C_3  and  N_4 
REMARK    4  A    between atoms: C_3  and  C_10 
ROOT
HETATM    1  C   UNL     1     -43.154 -51.140  13.156  1.00  0.00     0.285 C 
ENDROOT
BRANCH   1   2
HETATM    2  C   UNL     1     -43.284 -49.572  13.028  1.00  0.00     0.307 C 
BRANCH   2   3
HETATM    3  N   UNL     1     -43.111 -49.016  11.679  1.00  0.00     0.080 N 
HETATM    4  H   UNL     1     -43.856 -48.343  11.502  1.00  0.00     0.312 HD
HETATM    5  H   UNL     1     -43.219 -49.755  10.985  1.00  0.00     0.312 HD
ENDBRANCH   2   3
ENDBRANCH   1   2
BRANCH   1   6
HETATM    6  N   UNL     1     -42.060 -51.554  14.082  1.00  0.00     0.103 N 
HETATM    7  C   UNL     1     -40.765 -50.894  13.763  1.00  0.00     0.299 C 
HETATM    8  C   UNL     1     -40.082 -51.434  12.489  1.00  0.00     0.198 C 
HETATM    9  O   UNL     1     -39.862 -52.847  12.574  1.00  0.00    -0.388 OA
HETATM   10  C   UNL     1     -41.088 -53.540  12.835  1.00  0.00     0.198 C 
HETATM   11  C   UNL     1     -41.777 -53.012  14.102  1.00  0.00     0.299 C 
ENDBRANCH   1   6
BRANCH   1  12
HETATM   12  C   UNL     1     -44.531 -51.672  13.559  1.00  0.00    -0.008 A 
HETATM   13  C   UNL     1     -45.239 -51.092  14.620  1.00  0.00     0.012 A 
HETATM   14  C   UNL     1     -46.475 -51.606  14.998  1.00  0.00     0.018 A 
HETATM   15  C   UNL     1     -46.970 -52.698  14.309  1.00  0.00     0.087 A 
HETATM   16  N   UNL     1     -46.328 -53.283  13.276  1.00  0.00    -0.375 N 
HETATM   17  C   UNL     1     -45.131 -52.754  12.919  1.00  0.00     0.096 A 
ATOM     18  HN  UNL     1     -46.724 -54.086  12.786  1.00  0.00     0.164 HD
ENDBRANCH   1  12
TORSDOF 4
ENDMDL
MODEL 3
REMARK VINA RESULT:      -4.4      2.233      4.351
REMARK  4 active torsions:
REMARK  status: ('A' for Active; 'I' for Inactive)
REMARK    1  A    between atoms: N_1  and  C_2 
REMARK    2  A    between atoms: C_2  and  C_3 
REMARK    3  A    between atoms: C_3  and  N_4 
REMARK    4  A    between atoms: C_3  and  C_10 
ROOT
HETATM    1  C   UNL     1     -40.811 -53.483  13.966  1.00  0.00     0.285 C 
ENDROOT
BRANCH   1   2
HETATM    2  C   UNL     1     -39.459 -54.069  14.531  1.00  0.00     0.307 C 
BRANCH   2   3
HETATM    3  N   UNL     1     -38.764 -55.039  13.674  1.00  0.00     0.080 N 
HETATM    4  H   UNL     1     -39.443 -55.710  13.318  1.00  0.00     0.312 HD
HETATM    5  H   UNL     1     -38.095 -55.572  14.229  1.00  0.00     0.312 HD
ENDBRANCH   2   3
ENDBRANCH   1   2
BRANCH   1   6
HETATM    6  N   UNL     1     -41.800 -53.174  15.039  1.00  0.00     0.103 N 
HETATM    7  C   UNL     1     -41.793 -54.189  16.128  1.00  0.00     0.299 C 
HETATM    8  C   UNL     1     -42.431 -55.537  15.733  1.00  0.00     0.198 C 
HETATM    9  O   UNL     1     -43.780 -55.364  15.283  1.00  0.00    -0.388 OA
HETATM   10  C   UNL     1     -43.841 -54.429  14.200  1.00  0.00     0.198 C 
HETATM   11  C   UNL     1     -43.209 -53.081  14.582  1.00  0.00     0.299 C 
ENDBRANCH   1   6
BRANCH   1  12
HETATM   12  C   UNL     1     -40.448 -52.274  13.102  1.00  0.00    -0.008 A 
HETATM   13  C   UNL     1     -39.431 -51.393  13.496  1.00  0.00     0.012 A 
HETATM   14  C   UNL     1     -39.133 -50.278  12.719  1.00  0.00     0.018 A 
HETATM   15  C   UNL     1     -39.868 -50.067  11.566  1.00  0.00     0.087 A 
HETATM   16  N   UNL     1     -40.848 -50.892  11.143  1.00  0.00    -0.375 N 
HETATM   17  C   UNL     1     -41.110 -51.978  11.912  1.00  0.00     0.096 A 
ATOM     18  HN  UNL     1     -41.368 -50.708  10.285  1.00  0.00     0.164 HD
ENDBRANCH   1  12
TORSDOF 4
ENDMDL
MODEL 4
REMARK VINA RESULT:      -4.4      1.649      2.722
REMARK  4 active torsions:
REMARK  status: ('A' for Active; 'I' for Inactive)
REMARK    1  A    between atoms: N_1  and  C_2 
REMARK    2  A    between atoms: C_2  and  C_3 
REMARK    3  A    between atoms: C_3  and  N_4 
REMARK    4  A    between atoms: C_3  and  C_10 
ROOT
HETATM    1  C   UNL     1     -42.714 -53.321  13.970  1.00  0.00     0.285 C 
ENDROOT
BRANCH   1   2
HETATM    2  C   UNL     1     -42.968 -54.661  14.765  1.00  0.00     0.307 C 
BRANCH   2   3
HETATM    3  N   UNL     1     -42.589 -54.654  16.185  1.00  0.00     0.080 N 
HETATM    4  H   UNL     1     -42.727 -53.716  16.558  1.00  0.00     0.312 HD
HETATM    5  H   UNL     1     -41.595 -54.859  16.276  1.00  0.00     0.312 HD
ENDBRANCH   2   3
ENDBRANCH   1   2
BRANCH   1   6
HETATM    6  N   UNL     1     -41.828 -53.513  12.785  1.00  0.00     0.103 N 
HETATM    7  C   UNL     1     -40.630 -54.339  13.098  1.00  0.00     0.299 C 
HETATM    8  C   UNL     1     -39.570 -53.610  13.950  1.00  0.00     0.198 C 
HETATM    9  O   UNL     1     -39.134 -52.402  13.318  1.00  0.00    -0.388 OA
HETATM   10  C   UNL     1     -40.245 -51.543  13.034  1.00  0.00     0.198 C 
HETATM   11  C   UNL     1     -41.308 -52.258  12.185  1.00  0.00     0.299 C 
ENDBRANCH   1   6
BRANCH   1  12
HETATM   12  C   UNL     1     -44.086 -52.740  13.621  1.00  0.00    -0.008 A 
HETATM   13  C   UNL     1     -44.722 -51.843  14.489  1.00  0.00     0.012 A 
HETATM   14  C   UNL     1     -45.985 -51.347  14.177  1.00  0.00     0.018 A 
HETATM   15  C   UNL     1     -46.583 -51.769  13.004  1.00  0.00     0.087 A 
HETATM   16  N   UNL     1     -46.004 -52.624  12.135  1.00  0.00    -0.375 N 
HETATM   17  C   UNL     1     -44.770 -53.082  12.457  1.00  0.00     0.096 A 
ATOM     18  HN  UNL     1     -46.473 -52.912  11.276  1.00  0.00     0.164 HD
ENDBRANCH   1  12
TORSDOF 4
ENDMDL
MODEL 5
REMARK VINA RESULT:      -4.4      2.510      4.395
REMARK  4 active torsions:
REMARK  status: ('A' for Active; 'I' for Inactive)
REMARK    1  A    between atoms: N_1  and  C_2 
REMARK    2  A    between atoms: C_2  and  C_3 
REMARK    3  A    between atoms: C_3  and  N_4 
REMARK    4  A    between atoms: C_3  and  C_10 
ROOT
HETATM    1  C   UNL     1     -44.363 -52.645  13.426  1.00  0.00     0.285 C 
ENDROOT
BRANCH   1   2
HETATM    2  C   UNL     1     -45.435 -52.648  12.268  1.00  0.00     0.307 C 
BRANCH   2   3
HETATM    3  N   UNL     1     -46.384 -51.527  12.260  1.00  0.00     0.080 N 
HETATM    4  H   UNL     1     -47.318 -51.887  12.067  1.00  0.00     0.312 HD
HETATM    5  H   UNL     1     -46.157 -50.889  11.498  1.00  0.00     0.312 HD
ENDBRANCH   2   3
ENDBRANCH   1   2
BRANCH   1   6
HETATM    6  N   UNL     1     -44.100 -54.009  13.973  1.00  0.00     0.103 N 
HETATM    7  C   UNL     1     -45.288 -54.900  13.876  1.00  0.00     0.299 C 
HETATM    8  C   UNL     1     -46.411 -54.560  14.879  1.00  0.00     0.198 C 
HETATM    9  O   UNL     1     -45.931 -54.591  16.228  1.00  0.00    -0.388 OA
HETATM   10  C   UNL     1     -44.811 -53.712  16.392  1.00  0.00     0.198 C 
HETATM   11  C   UNL     1     -43.686 -54.041  15.399  1.00  0.00     0.299 C 
ENDBRANCH   1   6
BRANCH   1  12
HETATM   12  C   UNL     1     -43.113 -51.954  12.879  1.00  0.00    -0.008 A 
HETATM   13  C   UNL     1     -42.852 -50.610  13.178  1.00  0.00     0.012 A 
HETATM   14  C   UNL     1     -41.729 -49.982  12.646  1.00  0.00     0.018 A 
HETATM   15  C   UNL     1     -40.898 -50.715  11.820  1.00  0.00     0.087 A 
HETATM   16  N   UNL     1     -41.105 -52.013  11.512  1.00  0.00    -0.375 N 
HETATM   17  C   UNL     1     -42.199 -52.604  12.054  1.00  0.00     0.096 A 
ATOM     18  HN  UNL     1     -40.468 -52.526  10.902  1.00  0.00     0.164 HD
ENDBRANCH   1  12
TORSDOF 4
ENDMDL
MODEL 6
REMARK VINA RESULT:      -4.2      2.631      3.282
REMARK  4 active torsions:
REMARK  status: ('A' for Active; 'I' for Inactive)
REMARK    1  A    between atoms: N_1  and  C_2 
REMARK    2  A    between atoms: C_2  and  C_3 
REMARK    3  A    between atoms: C_3  and  N_4 
REMARK    4  A    between atoms: C_3  and  C_10 
ROOT
HETATM    1  C   UNL     1     -40.894 -50.520  12.725  1.00  0.00     0.285 C 
ENDROOT
BRANCH   1   2
HETATM    2  C   UNL     1     -40.943 -49.433  11.582  1.00  0.00     0.307 C 
BRANCH   2   3
HETATM    3  N   UNL     1     -40.490 -49.869  10.253  1.00  0.00     0.080 N 
HETATM    4  H   UNL     1     -41.179 -50.512   9.865  1.00  0.00     0.312 HD
HETATM    5  H   UNL     1     -39.621 -50.395  10.341  1.00  0.00     0.312 HD
ENDBRANCH   2   3
ENDBRANCH   1   2
BRANCH   1   6
HETATM    6  N   UNL     1     -40.534 -49.944  14.054  1.00  0.00     0.103 N 
HETATM    7  C   UNL     1     -39.405 -48.978  13.968  1.00  0.00     0.299 C 
HETATM    8  C   UNL     1     -38.032 -49.637  13.723  1.00  0.00     0.198 C 
HETATM    9  O   UNL     1     -37.727 -50.600  14.739  1.00  0.00    -0.388 OA
HETATM   10  C   UNL     1     -38.762 -51.586  14.835  1.00  0.00     0.198 C 
HETATM   11  C   UNL     1     -40.135 -50.942  15.079  1.00  0.00     0.299 C 
ENDBRANCH   1   6
BRANCH   1  12
HETATM   12  C   UNL     1     -42.244 -51.240  12.716  1.00  0.00    -0.008 A 
HETATM   13  C   UNL     1     -43.367 -50.661  13.322  1.00  0.00     0.012 A 
HETATM   14  C   UNL     1     -44.581 -51.341  13.337  1.00  0.00     0.018 A 
HETATM   15  C   UNL     1     -44.639 -52.592  12.750  1.00  0.00     0.087 A 
HETATM   16  N   UNL     1     -43.587 -53.184  12.147  1.00  0.00    -0.375 N 
HETATM   17  C   UNL     1     -42.419 -52.494  12.136  1.00  0.00     0.096 A 
ATOM     18  HN  UNL     1     -43.666 -54.107  11.720  1.00  0.00     0.164 HD
ENDBRANCH   1  12
TORSDOF 4
ENDMDL
MODEL 7
REMARK VINA RESULT:      -4.2      1.924      2.342
REMARK  4 active torsions:
REMARK  status: ('A' for Active; 'I' for Inactive)
REMARK    1  A    between atoms: N_1  and  C_2 
REMARK    2  A    between atoms: C_2  and  C_3 
REMARK    3  A    between atoms: C_3  and  N_4 
REMARK    4  A    between atoms: C_3  and  C_10 
ROOT
HETATM    1  C   UNL     1     -41.913 -54.515  14.708  1.00  0.00     0.285 C 
ENDROOT
BRANCH   1   2
HETATM    2  C   UNL     1     -41.360 -53.636  13.519  1.00  0.00     0.307 C 
BRANCH   2   3
HETATM    3  N   UNL     1     -40.940 -54.365  12.314  1.00  0.00     0.080 N 
HETATM    4  H   UNL     1     -41.461 -55.239  12.260  1.00  0.00     0.312 HD
HETATM    5  H   UNL     1     -39.956 -54.619  12.391  1.00  0.00     0.312 HD
ENDBRANCH   2   3
ENDBRANCH   1   2
BRANCH   1   6
HETATM    6  N   UNL     1     -41.206 -54.255  15.996  1.00  0.00     0.103 N 
HETATM    7  C   UNL     1     -39.743 -54.052  15.811  1.00  0.00     0.299 C 
HETATM    8  C   UNL     1     -38.967 -55.345  15.483  1.00  0.00     0.198 C 
HETATM    9  O   UNL     1     -39.162 -56.340  16.494  1.00  0.00    -0.388 OA
HETATM   10  C   UNL     1     -40.556 -56.611  16.682  1.00  0.00     0.198 C 
HETATM   11  C   UNL     1     -41.340 -55.331  17.010  1.00  0.00     0.299 C 
ENDBRANCH   1   6
BRANCH   1  12
HETATM   12  C   UNL     1     -43.422 -54.275  14.778  1.00  0.00    -0.008 A 
HETATM   13  C   UNL     1     -44.312 -55.119  14.101  1.00  0.00     0.012 A 
HETATM   14  C   UNL     1     -45.680 -54.871  14.145  1.00  0.00     0.018 A 
HETATM   15  C   UNL     1     -46.125 -53.775  14.862  1.00  0.00     0.087 A 
HETATM   16  N   UNL     1     -45.306 -52.941  15.537  1.00  0.00    -0.375 N 
HETATM   17  C   UNL     1     -43.979 -53.214  15.488  1.00  0.00     0.096 A 
ATOM     18  HN  UNL     1     -45.668 -52.144  16.060  1.00  0.00     0.164 HD
ENDBRANCH   1  12
TORSDOF 4
ENDMDL
MODEL 8
REMARK VINA RESULT:      -4.2      2.352      4.876
REMARK  4 active torsions:
REMARK  status: ('A' for Active; 'I' for Inactive)
REMARK    1  A    between atoms: N_1  and  C_2 
REMARK    2  A    between atoms: C_2  and  C_3 
REMARK    3  A    between atoms: C_3  and  N_4 
REMARK    4  A    between atoms: C_3  and  C_10 
ROOT
HETATM    1  C   UNL     1     -42.607 -53.140  13.531  1.00  0.00     0.285 C 
ENDROOT
BRANCH   1   2
HETATM    2  C   UNL     1     -42.189 -52.267  12.284  1.00  0.00     0.307 C 
BRANCH   2   3
HETATM    3  N   UNL     1     -42.506 -50.834  12.359  1.00  0.00     0.080 N 
HETATM    4  H   UNL     1     -43.451 -50.725  12.726  1.00  0.00     0.312 HD
HETATM    5  H   UNL     1     -42.512 -50.434  11.422  1.00  0.00     0.312 HD
ENDBRANCH   2   3
ENDBRANCH   1   2
BRANCH   1   6
HETATM    6  N   UNL     1     -43.693 -54.113  13.216  1.00  0.00     0.103 N 
HETATM    7  C   UNL     1     -44.851 -53.473  12.534  1.00  0.00     0.299 C 
HETATM    8  C   UNL     1     -45.715 -52.591  13.460  1.00  0.00     0.198 C 
HETATM    9  O   UNL     1     -46.205 -53.336  14.580  1.00  0.00    -0.388 OA
HETATM   10  C   UNL     1     -45.126 -53.939  15.304  1.00  0.00     0.198 C 
HETATM   11  C   UNL     1     -44.258 -54.820  14.393  1.00  0.00     0.299 C 
ENDBRANCH   1   6
BRANCH   1  12
HETATM   12  C   UNL     1     -41.333 -53.796  14.066  1.00  0.00    -0.008 A 
HETATM   13  C   UNL     1     -41.138 -53.958  15.444  1.00  0.00     0.012 A 
HETATM   14  C   UNL     1     -39.960 -54.526  15.920  1.00  0.00     0.018 A 
HETATM   15  C   UNL     1     -39.000 -54.912  15.002  1.00  0.00     0.087 A 
HETATM   16  N   UNL     1     -39.149 -54.784  13.667  1.00  0.00    -0.375 N 
HETATM   17  C   UNL     1     -40.311 -54.239  13.230  1.00  0.00     0.096 A 
ATOM     18  HN  UNL     1     -38.422 -55.083  13.017  1.00  0.00     0.164 HD
ENDBRANCH   1  12
TORSDOF 4
ENDMDL
MODEL 9
REMARK VINA RESULT:      -4.1      2.684      5.297
REMARK  4 active torsions:
REMARK  status: ('A' for Active; 'I' for Inactive)
REMARK    1  A    between atoms: N_1  and  C_2 
REMARK    2  A    between atoms: C_2  and  C_3 
REMARK    3  A    between atoms: C_3  and  N_4 
REMARK    4  A    between atoms: C_3  and  C_10 
ROOT
HETATM    1  C   UNL     1     -41.373 -51.389  12.965  1.00  0.00     0.285 C 
ENDROOT
BRANCH   1   2
HETATM    2  C   UNL     1     -42.389 -50.205  12.729  1.00  0.00     0.307 C 
BRANCH   2   3
HETATM    3  N   UNL     1     -42.483 -49.207  13.804  1.00  0.00     0.080 N 
HETATM    4  H   UNL     1     -42.988 -48.394  13.454  1.00  0.00     0.312 HD
HETATM    5  H   UNL     1     -41.550 -48.883  14.054  1.00  0.00     0.312 HD
ENDBRANCH   2   3
ENDBRANCH   1   2
BRANCH   1   6
HETATM    6  N   UNL     1     -41.823 -52.669  12.344  1.00  0.00     0.103 N 
HETATM    7  C   UNL     1     -43.273 -52.926  12.559  1.00  0.00     0.299 C 
HETATM    8  C   UNL     1     -43.630 -53.338  14.002  1.00  0.00     0.198 C 
HETATM    9  O   UNL     1     -42.899 -54.500  14.409  1.00  0.00    -0.388 OA
HETATM   10  C   UNL     1     -41.488 -54.292  14.267  1.00  0.00     0.198 C 
HETATM   11  C   UNL     1     -41.120 -53.882  12.833  1.00  0.00     0.299 C 
ENDBRANCH   1   6
BRANCH   1  12
HETATM   12  C   UNL     1     -40.007 -50.914  12.466  1.00  0.00    -0.008 A 
HETATM   13  C   UNL     1     -38.842 -51.207  13.188  1.00  0.00     0.012 A 
HETATM   14  C   UNL     1     -37.609 -50.740  12.743  1.00  0.00     0.018 A 
HETATM   15  C   UNL     1     -37.574 -49.983  11.586  1.00  0.00     0.087 A 
HETATM   16  N   UNL     1     -38.668 -49.685  10.854  1.00  0.00    -0.375 N 
HETATM   17  C   UNL     1     -39.854 -50.162  11.304  1.00  0.00     0.096 A 
ATOM     18  HN  UNL     1     -38.605 -49.126  10.002  1.00  0.00     0.164 HD
ENDBRANCH   1  12
TORSDOF 4
ENDMDL
