MODEL 1
REMARK VINA RESULT:      -5.6      0.000      0.000
REMARK  3 active torsions:
REMARK  status: ('A' for Active; 'I' for Inactive)
REMARK    1  A    between atoms: C_2  and  O_4 
REMARK    2  A    between atoms: C_2  and  C_5 
REMARK    3  A    between atoms: C_5  and  N_6 
ROOT
HETATM    1  N   UNL     1     -41.604 -49.915  12.107  1.00  0.00    -0.271 N 
HETATM    2  N   UNL     1     -40.620 -50.638  11.540  1.00  0.00    -0.019 NA
HETATM    3  N   UNL     1     -40.982 -51.913  11.580  1.00  0.00    -0.282 N 
ATOM      4  HN  UNL     1     -40.447 -52.699  11.209  1.00  0.00     0.184 HD
HETATM    5  C   UNL     1     -42.195 -51.992  12.203  1.00  0.00     0.075 A 
HETATM    6  C   UNL     1     -43.006 -53.100  12.482  1.00  0.00     0.058 A 
HETATM    7  C   UNL     1     -44.227 -52.887  13.136  1.00  0.00     0.058 A 
HETATM    8 CL   UNL     1     -45.208 -54.277  13.446  1.00  0.00    -0.082 Cl
HETATM    9  C   UNL     1     -44.625 -51.595  13.515  1.00  0.00     0.058 A 
HETATM   10 CL   UNL     1     -46.129 -51.295  14.317  1.00  0.00    -0.082 Cl
HETATM   11  C   UNL     1     -43.817 -50.480  13.245  1.00  0.00     0.058 A 
HETATM   12  C   UNL     1     -42.612 -50.719  12.576  1.00  0.00     0.078 A 
ENDROOT
BRANCH   1  13
HETATM   13  C   UNL     1     -41.506 -48.477  12.150  1.00  0.00     0.183 C 
BRANCH  13  14
HETATM   14  C   UNL     1     -41.950 -47.750  10.862  1.00  0.00     0.068 C 
HETATM   15  C   UNL     1     -41.231 -46.412  10.665  1.00  0.00     0.047 C 
HETATM   16  C   UNL     1     -43.466 -47.555  10.795  1.00  0.00     0.047 C 
BRANCH  14  17
HETATM   17  O   UNL     1     -41.570 -48.594   9.761  1.00  0.00    -0.389 OA
HETATM   18  H   UNL     1     -40.790 -49.113  10.029  1.00  0.00     0.210 HD
ENDBRANCH  14  17
ENDBRANCH  13  14
ENDBRANCH   1  13
TORSDOF 3
ENDMDL
MODEL 2
REMARK VINA RESULT:      -5.3      1.705      2.190
REMARK  3 active torsions:
REMARK  status: ('A' for Active; 'I' for Inactive)
REMARK    1  A    between atoms: C_2  and  O_4 
REMARK    2  A    between atoms: C_2  and  C_5 
REMARK    3  A    between atoms: C_5  and  N_6 
ROOT
HETATM    1  N   UNL     1     -40.776 -51.640  12.924  1.00  0.00    -0.271 N 
HETATM    2  N   UNL     1     -40.089 -52.675  12.405  1.00  0.00    -0.019 NA
HETATM    3  N   UNL     1     -40.904 -53.720  12.362  1.00  0.00    -0.282 N 
ATOM      4  HN  UNL     1     -40.673 -54.645  12.001  1.00  0.00     0.184 HD
HETATM    5  C   UNL     1     -42.108 -53.341  12.886  1.00  0.00     0.075 A 
HETATM    6  C   UNL     1     -43.296 -54.065  13.054  1.00  0.00     0.058 A 
HETATM    7  C   UNL     1     -44.401 -53.414  13.620  1.00  0.00     0.058 A 
HETATM    8 CL   UNL     1     -45.855 -54.335  13.793  1.00  0.00    -0.082 Cl
HETATM    9  C   UNL     1     -44.317 -52.072  14.022  1.00  0.00     0.058 A 
HETATM   10 CL   UNL     1     -45.663 -51.235  14.717  1.00  0.00    -0.082 Cl
HETATM   11  C   UNL     1     -43.130 -51.341  13.863  1.00  0.00     0.058 A 
HETATM   12  C   UNL     1     -42.048 -52.010  13.280  1.00  0.00     0.078 A 
ENDROOT
BRANCH   1  13
HETATM   13  C   UNL     1     -40.150 -50.345  13.036  1.00  0.00     0.183 C 
BRANCH  13  14
HETATM   14  C   UNL     1     -39.744 -49.695  11.696  1.00  0.00     0.068 C 
HETATM   15  C   UNL     1     -38.238 -49.780  11.434  1.00  0.00     0.047 C 
HETATM   16  C   UNL     1     -40.224 -48.246  11.582  1.00  0.00     0.047 C 
BRANCH  14  17
HETATM   17  O   UNL     1     -40.392 -50.451  10.658  1.00  0.00    -0.389 OA
HETATM   18  H   UNL     1     -40.600 -51.335  11.010  1.00  0.00     0.210 HD
ENDBRANCH  14  17
ENDBRANCH  13  14
ENDBRANCH   1  13
TORSDOF 3
ENDMDL
MODEL 3
REMARK VINA RESULT:      -5.1      3.109      5.113
REMARK  3 active torsions:
REMARK  status: ('A' for Active; 'I' for Inactive)
REMARK    1  A    between atoms: C_2  and  O_4 
REMARK    2  A    between atoms: C_2  and  C_5 
REMARK    3  A    between atoms: C_5  and  N_6 
ROOT
HETATM    1  N   UNL     1     -42.538 -51.840  12.830  1.00  0.00    -0.271 N 
HETATM    2  N   UNL     1     -41.677 -52.636  12.168  1.00  0.00    -0.019 NA
HETATM    3  N   UNL     1     -40.851 -51.856  11.484  1.00  0.00    -0.282 N 
ATOM      4  HN  UNL     1     -40.077 -52.171  10.899  1.00  0.00     0.184 HD
HETATM    5  C   UNL     1     -41.218 -50.557  11.698  1.00  0.00     0.075 A 
HETATM    6  C   UNL     1     -40.663 -49.364  11.218  1.00  0.00     0.058 A 
HETATM    7  C   UNL     1     -41.244 -48.150  11.612  1.00  0.00     0.058 A 
HETATM    8 CL   UNL     1     -40.519 -46.698  11.014  1.00  0.00    -0.082 Cl
HETATM    9  C   UNL     1     -42.363 -48.131  12.459  1.00  0.00     0.058 A 
HETATM   10 CL   UNL     1     -43.101 -46.651  12.972  1.00  0.00    -0.082 Cl
HETATM   11  C   UNL     1     -42.929 -49.321  12.940  1.00  0.00     0.058 A 
HETATM   12  C   UNL     1     -42.319 -50.516  12.545  1.00  0.00     0.078 A 
ENDROOT
BRANCH   1  13
HETATM   13  C   UNL     1     -43.523 -52.421  13.710  1.00  0.00     0.183 C 
BRANCH  13  14
HETATM   14  C   UNL     1     -44.766 -53.008  13.008  1.00  0.00     0.068 C 
HETATM   15  C   UNL     1     -45.909 -51.995  12.894  1.00  0.00     0.047 C 
HETATM   16  C   UNL     1     -45.258 -54.295  13.674  1.00  0.00     0.047 C 
BRANCH  14  17
HETATM   17  O   UNL     1     -44.364 -53.337  11.667  1.00  0.00    -0.389 OA
HETATM   18  H   UNL     1     -44.840 -52.749  11.053  1.00  0.00     0.210 HD
ENDBRANCH  14  17
ENDBRANCH  13  14
ENDBRANCH   1  13
TORSDOF 3
ENDMDL
MODEL 4
REMARK VINA RESULT:      -5.0      3.431      4.664
REMARK  3 active torsions:
REMARK  status: ('A' for Active; 'I' for Inactive)
REMARK    1  A    between atoms: C_2  and  O_4 
REMARK    2  A    between atoms: C_2  and  C_5 
REMARK    3  A    between atoms: C_5  and  N_6 
ROOT
HETATM    1  N   UNL     1     -42.314 -47.573  10.840  1.00  0.00    -0.271 N 
HETATM    2  N   UNL     1     -41.654 -46.457  10.478  1.00  0.00    -0.019 NA
HETATM    3  N   UNL     1     -40.360 -46.675  10.665  1.00  0.00    -0.282 N 
ATOM      4  HN  UNL     1     -39.607 -46.018  10.462  1.00  0.00     0.184 HD
HETATM    5  C   UNL     1     -40.210 -47.934  11.175  1.00  0.00     0.075 A 
HETATM    6  C   UNL     1     -39.054 -48.640  11.532  1.00  0.00     0.058 A 
HETATM    7  C   UNL     1     -39.193 -49.943  12.030  1.00  0.00     0.058 A 
HETATM    8 CL   UNL     1     -37.742 -50.790  12.441  1.00  0.00    -0.082 Cl
HETATM    9  C   UNL     1     -40.463 -50.523  12.181  1.00  0.00     0.058 A 
HETATM   10 CL   UNL     1     -40.672 -52.131  12.787  1.00  0.00    -0.082 Cl
HETATM   11  C   UNL     1     -41.627 -49.821  11.833  1.00  0.00     0.058 A 
HETATM   12  C   UNL     1     -41.457 -48.530  11.322  1.00  0.00     0.078 A 
ENDROOT
BRANCH   1  13
HETATM   13  C   UNL     1     -43.747 -47.643  10.686  1.00  0.00     0.183 C 
BRANCH  13  14
HETATM   14  C   UNL     1     -44.289 -47.119   9.339  1.00  0.00     0.068 C 
HETATM   15  C   UNL     1     -45.791 -47.369   9.173  1.00  0.00     0.047 C 
HETATM   16  C   UNL     1     -43.519 -47.683   8.142  1.00  0.00     0.047 C 
BRANCH  14  17
HETATM   17  O   UNL     1     -44.101 -45.693   9.346  1.00  0.00    -0.389 OA
HETATM   18  H   UNL     1     -44.260 -45.369  10.251  1.00  0.00     0.210 HD
ENDBRANCH  14  17
ENDBRANCH  13  14
ENDBRANCH   1  13
TORSDOF 3
ENDMDL
MODEL 5
REMARK VINA RESULT:      -5.0      4.034      5.176
REMARK  3 active torsions:
REMARK  status: ('A' for Active; 'I' for Inactive)
REMARK    1  A    between atoms: C_2  and  O_4 
REMARK    2  A    between atoms: C_2  and  C_5 
REMARK    3  A    between atoms: C_5  and  N_6 
ROOT
HETATM    1  N   UNL     1     -44.546 -53.426  13.606  1.00  0.00    -0.271 N 
HETATM    2  N   UNL     1     -45.339 -53.365  12.519  1.00  0.00    -0.019 NA
HETATM    3  N   UNL     1     -46.450 -52.728  12.867  1.00  0.00    -0.282 N 
ATOM      4  HN  UNL     1     -47.234 -52.514  12.251  1.00  0.00     0.184 HD
HETATM    5  C   UNL     1     -46.361 -52.411  14.193  1.00  0.00     0.075 A 
HETATM    6  C   UNL     1     -47.257 -51.732  15.028  1.00  0.00     0.058 A 
HETATM    7  C   UNL     1     -46.901 -51.533  16.370  1.00  0.00     0.058 A 
HETATM    8 CL   UNL     1     -48.025 -50.674  17.365  1.00  0.00    -0.082 Cl
HETATM    9  C   UNL     1     -45.680 -52.014  16.869  1.00  0.00     0.058 A 
HETATM   10 CL   UNL     1     -45.205 -51.780  18.516  1.00  0.00    -0.082 Cl
HETATM   11  C   UNL     1     -44.779 -52.701  16.041  1.00  0.00     0.058 A 
HETATM   12  C   UNL     1     -45.152 -52.869  14.703  1.00  0.00     0.078 A 
ENDROOT
BRANCH   1  13
HETATM   13  C   UNL     1     -43.234 -54.018  13.505  1.00  0.00     0.183 C 
BRANCH  13  14
HETATM   14  C   UNL     1     -42.145 -53.104  12.902  1.00  0.00     0.068 C 
HETATM   15  C   UNL     1     -40.813 -53.832  12.701  1.00  0.00     0.047 C 
HETATM   16  C   UNL     1     -41.937 -51.827  13.719  1.00  0.00     0.047 C 
BRANCH  14  17
HETATM   17  O   UNL     1     -42.610 -52.716  11.597  1.00  0.00    -0.389 OA
HETATM   18  H   UNL     1     -42.689 -51.745  11.578  1.00  0.00     0.210 HD
ENDBRANCH  14  17
ENDBRANCH  13  14
ENDBRANCH   1  13
TORSDOF 3
ENDMDL
MODEL 6
REMARK VINA RESULT:      -4.9      4.871      6.443
REMARK  3 active torsions:
REMARK  status: ('A' for Active; 'I' for Inactive)
REMARK    1  A    between atoms: C_2  and  O_4 
REMARK    2  A    between atoms: C_2  and  C_5 
REMARK    3  A    between atoms: C_5  and  N_6 
ROOT
HETATM    1  N   UNL     1     -40.019 -54.141  14.878  1.00  0.00    -0.271 N 
HETATM    2  N   UNL     1     -39.506 -54.178  13.633  1.00  0.00    -0.019 NA
HETATM    3  N   UNL     1     -40.519 -54.139  12.779  1.00  0.00    -0.282 N 
ATOM      4  HN  UNL     1     -40.444 -54.136  11.762  1.00  0.00     0.184 HD
HETATM    5  C   UNL     1     -41.681 -54.104  13.498  1.00  0.00     0.075 A 
HETATM    6  C   UNL     1     -43.014 -54.045  13.071  1.00  0.00     0.058 A 
HETATM    7  C   UNL     1     -44.026 -54.010  14.042  1.00  0.00     0.058 A 
HETATM    8 CL   UNL     1     -45.657 -53.917  13.476  1.00  0.00    -0.082 Cl
HETATM    9  C   UNL     1     -43.711 -54.046  15.409  1.00  0.00     0.058 A 
HETATM   10 CL   UNL     1     -44.933 -53.997  16.634  1.00  0.00    -0.082 Cl
HETATM   11  C   UNL     1     -42.379 -54.112  15.846  1.00  0.00     0.058 A 
HETATM   12  C   UNL     1     -41.390 -54.128  14.857  1.00  0.00     0.078 A 
ENDROOT
BRANCH   1  13
HETATM   13  C   UNL     1     -39.135 -54.111  16.019  1.00  0.00     0.183 C 
BRANCH  13  14
HETATM   14  C   UNL     1     -38.508 -55.470  16.398  1.00  0.00     0.068 C 
HETATM   15  C   UNL     1     -39.547 -56.478  16.899  1.00  0.00     0.047 C 
HETATM   16  C   UNL     1     -37.373 -55.325  17.414  1.00  0.00     0.047 C 
BRANCH  14  17
HETATM   17  O   UNL     1     -37.945 -56.015  15.191  1.00  0.00    -0.389 OA
HETATM   18  H   UNL     1     -38.362 -55.569  14.432  1.00  0.00     0.210 HD
ENDBRANCH  14  17
ENDBRANCH  13  14
ENDBRANCH   1  13
TORSDOF 3
ENDMDL
MODEL 7
REMARK VINA RESULT:      -4.8      4.564      5.095
REMARK  3 active torsions:
REMARK  status: ('A' for Active; 'I' for Inactive)
REMARK    1  A    between atoms: C_2  and  O_4 
REMARK    2  A    between atoms: C_2  and  C_5 
REMARK    3  A    between atoms: C_5  and  N_6 
ROOT
HETATM    1  N   UNL     1     -41.364 -47.134  11.465  1.00  0.00    -0.271 N 
HETATM    2  N   UNL     1     -41.940 -47.805  10.449  1.00  0.00    -0.019 NA
HETATM    3  N   UNL     1     -41.291 -48.953  10.306  1.00  0.00    -0.282 N 
ATOM      4  HN  UNL     1     -41.509 -49.682   9.627  1.00  0.00     0.184 HD
HETATM    5  C   UNL     1     -40.280 -48.988  11.224  1.00  0.00     0.075 A 
HETATM    6  C   UNL     1     -39.324 -49.977  11.488  1.00  0.00     0.058 A 
HETATM    7  C   UNL     1     -38.394 -49.751  12.512  1.00  0.00     0.058 A 
HETATM    8 CL   UNL     1     -37.242 -51.004  12.821  1.00  0.00    -0.082 Cl
HETATM    9  C   UNL     1     -38.411 -48.556  13.248  1.00  0.00     0.058 A 
HETATM   10 CL   UNL     1     -37.282 -48.247  14.524  1.00  0.00    -0.082 Cl
HETATM   11  C   UNL     1     -39.360 -47.557  12.987  1.00  0.00     0.058 A 
HETATM   12  C   UNL     1     -40.288 -47.816  11.972  1.00  0.00     0.078 A 
ENDROOT
BRANCH   1  13
HETATM   13  C   UNL     1     -41.906 -45.865  11.887  1.00  0.00     0.183 C 
BRANCH  13  14
HETATM   14  C   UNL     1     -41.583 -44.673  10.960  1.00  0.00     0.068 C 
HETATM   15  C   UNL     1     -40.487 -43.767  11.528  1.00  0.00     0.047 C 
HETATM   16  C   UNL     1     -42.826 -43.851  10.612  1.00  0.00     0.047 C 
BRANCH  14  17
HETATM   17  O   UNL     1     -41.072 -45.229   9.736  1.00  0.00    -0.389 OA
HETATM   18  H   UNL     1     -41.742 -45.103   9.040  1.00  0.00     0.210 HD
ENDBRANCH  14  17
ENDBRANCH  13  14
ENDBRANCH   1  13
TORSDOF 3
ENDMDL
MODEL 8
REMARK VINA RESULT:      -4.8      4.141      5.622
REMARK  3 active torsions:
REMARK  status: ('A' for Active; 'I' for Inactive)
REMARK    1  A    between atoms: C_2  and  O_4 
REMARK    2  A    between atoms: C_2  and  C_5 
REMARK    3  A    between atoms: C_5  and  N_6 
ROOT
HETATM    1  N   UNL     1     -40.623 -49.415  12.711  1.00  0.00    -0.271 N 
HETATM    2  N   UNL     1     -41.614 -50.315  12.861  1.00  0.00    -0.019 NA
HETATM    3  N   UNL     1     -42.665 -49.873  12.184  1.00  0.00    -0.282 N 
ATOM      4  HN  UNL     1     -43.563 -50.349  12.095  1.00  0.00     0.184 HD
HETATM    5  C   UNL     1     -42.336 -48.670  11.626  1.00  0.00     0.075 A 
HETATM    6  C   UNL     1     -43.085 -47.808  10.813  1.00  0.00     0.058 A 
HETATM    7  C   UNL     1     -42.485 -46.622  10.366  1.00  0.00     0.058 A 
HETATM    8 CL   UNL     1     -43.435 -45.594   9.350  1.00  0.00    -0.082 Cl
HETATM    9  C   UNL     1     -41.170 -46.298  10.733  1.00  0.00     0.058 A 
HETATM   10 CL   UNL     1     -40.396 -44.847  10.193  1.00  0.00    -0.082 Cl
HETATM   11  C   UNL     1     -40.414 -47.152  11.551  1.00  0.00     0.058 A 
HETATM   12  C   UNL     1     -41.031 -48.337  11.968  1.00  0.00     0.078 A 
ENDROOT
BRANCH   1  13
HETATM   13  C   UNL     1     -39.329 -49.667  13.298  1.00  0.00     0.183 C 
BRANCH  13  14
HETATM   14  C   UNL     1     -38.380 -50.536  12.445  1.00  0.00     0.068 C 
HETATM   15  C   UNL     1     -37.370 -51.312  13.296  1.00  0.00     0.047 C 
HETATM   16  C   UNL     1     -37.657 -49.725  11.367  1.00  0.00     0.047 C 
BRANCH  14  17
HETATM   17  O   UNL     1     -39.201 -51.511  11.779  1.00  0.00    -0.389 OA
HETATM   18  H   UNL     1     -39.020 -52.384  12.173  1.00  0.00     0.210 HD
ENDBRANCH  14  17
ENDBRANCH  13  14
ENDBRANCH   1  13
TORSDOF 3
ENDMDL
MODEL 9
REMARK VINA RESULT:      -4.8      4.390      6.293
REMARK  3 active torsions:
REMARK  status: ('A' for Active; 'I' for Inactive)
REMARK    1  A    between atoms: C_2  and  O_4 
REMARK    2  A    between atoms: C_2  and  C_5 
REMARK    3  A    between atoms: C_5  and  N_6 
ROOT
HETATM    1  N   UNL     1     -39.695 -51.995  13.181  1.00  0.00    -0.271 N 
HETATM    2  N   UNL     1     -40.395 -52.685  12.261  1.00  0.00    -0.019 NA
HETATM    3  N   UNL     1     -40.862 -51.816  11.375  1.00  0.00    -0.282 N 
ATOM      4  HN  UNL     1     -41.416 -52.043  10.549  1.00  0.00     0.184 HD
HETATM    5  C   UNL     1     -40.473 -50.564  11.761  1.00  0.00     0.075 A 
HETATM    6  C   UNL     1     -40.697 -49.317  11.164  1.00  0.00     0.058 A 
HETATM    7  C   UNL     1     -40.166 -48.175  11.781  1.00  0.00     0.058 A 
HETATM    8 CL   UNL     1     -40.448 -46.656  11.005  1.00  0.00    -0.082 Cl
HETATM    9  C   UNL     1     -39.435 -48.278  12.976  1.00  0.00     0.058 A 
HETATM   10 CL   UNL     1     -38.758 -46.891  13.760  1.00  0.00    -0.082 Cl
HETATM   11  C   UNL     1     -39.211 -49.522  13.584  1.00  0.00     0.058 A 
HETATM   12  C   UNL     1     -39.738 -50.646  12.937  1.00  0.00     0.078 A 
ENDROOT
BRANCH   1  13
HETATM   13  C   UNL     1     -39.018 -52.697  14.244  1.00  0.00     0.183 C 
BRANCH  13  14
HETATM   14  C   UNL     1     -39.437 -54.172  14.429  1.00  0.00     0.068 C 
HETATM   15  C   UNL     1     -40.958 -54.347  14.484  1.00  0.00     0.047 C 
HETATM   16  C   UNL     1     -38.781 -54.816  15.652  1.00  0.00     0.047 C 
BRANCH  14  17
HETATM   17  O   UNL     1     -38.977 -54.880  13.264  1.00  0.00    -0.389 OA
HETATM   18  H   UNL     1     -38.981 -55.833  13.465  1.00  0.00     0.210 HD
ENDBRANCH  14  17
ENDBRANCH  13  14
ENDBRANCH   1  13
TORSDOF 3
ENDMDL
