MODEL 1
REMARK VINA RESULT:      -5.0      0.000      0.000
REMARK  2 active torsions:
REMARK  status: ('A' for Active; 'I' for Inactive)
REMARK    1  A    between atoms: C_2  and  C_5 
REMARK    2  A    between atoms: C_8  and  C_11 
ROOT
HETATM    1  C   UNL     1     -42.589 -47.039   9.928  1.00  0.00     0.024 A 
HETATM    2  C   UNL     1     -42.115 -48.022  10.780  1.00  0.00     0.077 A 
HETATM    3  S   UNL     1     -40.641 -47.538  11.495  1.00  0.00    -0.084 SA
HETATM    4  C   UNL     1     -40.763 -46.011  10.698  1.00  0.00     0.082 A 
HETATM    5  N   UNL     1     -41.783 -45.918   9.866  1.00  0.00    -0.354 N 
ATOM      6  HN  UNL     1     -41.956 -45.119   9.256  1.00  0.00     0.166 HD
ENDROOT
BRANCH   4   7
HETATM    7  C   UNL     1     -39.727 -44.933  10.964  1.00  0.00     0.206 C 
HETATM    8  C   UNL     1     -39.319 -44.808  12.454  1.00  0.00     0.308 C 
HETATM    9  N   UNL     1     -40.382 -44.263  13.317  1.00  0.00     0.088 N 
HETATM   10  C   UNL     1     -40.836 -42.980  12.754  1.00  0.00     0.295 C 
HETATM   11  H   UNL     1     -40.022 -44.113  14.257  1.00  0.00     0.316 HD
HETATM   12  C   UNL     1     -41.215 -43.077  11.268  1.00  0.00     0.198 C 
HETATM   13  O   UNL     1     -40.171 -43.649  10.466  1.00  0.00    -0.376 OA
ENDBRANCH   4   7
BRANCH   1  14
HETATM   14  C   UNL     1     -43.874 -47.084   9.115  1.00  0.00    -0.008 C 
HETATM   15  C   UNL     1     -43.624 -47.824   7.786  1.00  0.00     0.021 C 
HETATM   16  C   UNL     1     -44.364 -45.653   8.816  1.00  0.00     0.021 C 
HETATM   17  C   UNL     1     -44.999 -47.824   9.869  1.00  0.00     0.021 C 
ENDBRANCH   1  14
TORSDOF 2
ENDMDL
MODEL 2
REMARK VINA RESULT:      -5.0      6.565      7.798
REMARK  2 active torsions:
REMARK  status: ('A' for Active; 'I' for Inactive)
REMARK    1  A    between atoms: C_2  and  C_5 
REMARK    2  A    between atoms: C_8  and  C_11 
ROOT
HETATM    1  C   UNL     1     -44.349 -51.619  13.257  1.00  0.00     0.024 A 
HETATM    2  C   UNL     1     -43.864 -50.323  13.212  1.00  0.00     0.077 A 
HETATM    3  S   UNL     1     -42.195 -50.319  12.844  1.00  0.00    -0.084 SA
HETATM    4  C   UNL     1     -42.234 -52.037  12.678  1.00  0.00     0.082 A 
HETATM    5  N   UNL     1     -43.395 -52.583  12.988  1.00  0.00    -0.354 N 
ATOM      6  HN  UNL     1     -43.568 -53.587  13.024  1.00  0.00     0.166 HD
ENDROOT
BRANCH   4   7
HETATM    7  C   UNL     1     -40.987 -52.784  12.237  1.00  0.00     0.206 C 
HETATM    8  C   UNL     1     -40.879 -54.220  12.810  1.00  0.00     0.308 C 
HETATM    9  N   UNL     1     -40.620 -54.263  14.260  1.00  0.00     0.088 N 
HETATM   10  C   UNL     1     -39.422 -53.456  14.549  1.00  0.00     0.295 C 
HETATM   11  H   UNL     1     -40.461 -55.223  14.555  1.00  0.00     0.316 HD
HETATM   12  C   UNL     1     -39.496 -52.038  13.961  1.00  0.00     0.198 C 
HETATM   13  O   UNL     1     -39.790 -52.035  12.556  1.00  0.00    -0.376 OA
ENDBRANCH   4   7
BRANCH   1  14
HETATM   14  C   UNL     1     -45.783 -52.043  13.540  1.00  0.00    -0.008 C 
HETATM   15  C   UNL     1     -45.835 -53.562  13.797  1.00  0.00     0.021 C 
HETATM   16  C   UNL     1     -46.686 -51.698  12.340  1.00  0.00     0.021 C 
HETATM   17  C   UNL     1     -46.352 -51.329  14.785  1.00  0.00     0.021 C 
ENDBRANCH   1  14
TORSDOF 2
ENDMDL
MODEL 3
REMARK VINA RESULT:      -4.8      3.104      4.739
REMARK  2 active torsions:
REMARK  status: ('A' for Active; 'I' for Inactive)
REMARK    1  A    between atoms: C_2  and  C_5 
REMARK    2  A    between atoms: C_8  and  C_11 
ROOT
HETATM    1  C   UNL     1     -43.033 -47.244  10.349  1.00  0.00     0.024 A 
HETATM    2  C   UNL     1     -42.582 -46.225  11.171  1.00  0.00     0.077 A 
HETATM    3  S   UNL     1     -41.476 -46.831  12.325  1.00  0.00    -0.084 SA
HETATM    4  C   UNL     1     -41.593 -48.396  11.606  1.00  0.00     0.082 A 
HETATM    5  N   UNL     1     -42.486 -48.480  10.638  1.00  0.00    -0.354 N 
ATOM      6  HN  UNL     1     -42.741 -49.346  10.164  1.00  0.00     0.166 HD
ENDROOT
BRANCH   4   7
HETATM    7  C   UNL     1     -40.728 -49.533  12.122  1.00  0.00     0.206 C 
HETATM    8  C   UNL     1     -41.125 -50.926  11.570  1.00  0.00     0.308 C 
HETATM    9  N   UNL     1     -42.414 -51.423  12.085  1.00  0.00     0.088 N 
HETATM   10  C   UNL     1     -42.376 -51.397  13.556  1.00  0.00     0.295 C 
HETATM   11  H   UNL     1     -42.570 -52.376  11.765  1.00  0.00     0.316 HD
HETATM   12  C   UNL     1     -41.953 -50.033  14.123  1.00  0.00     0.198 C 
HETATM   13  O   UNL     1     -40.715 -49.562  13.570  1.00  0.00    -0.376 OA
ENDBRANCH   4   7
BRANCH   1  14
HETATM   14  C   UNL     1     -44.014 -47.111   9.193  1.00  0.00    -0.008 C 
HETATM   15  C   UNL     1     -44.225 -45.621   8.858  1.00  0.00     0.021 C 
HETATM   16  C   UNL     1     -45.367 -47.746   9.569  1.00  0.00     0.021 C 
HETATM   17  C   UNL     1     -43.494 -47.816   7.922  1.00  0.00     0.021 C 
ENDBRANCH   1  14
TORSDOF 2
ENDMDL
MODEL 4
REMARK VINA RESULT:      -4.8      7.129      8.290
REMARK  2 active torsions:
REMARK  status: ('A' for Active; 'I' for Inactive)
REMARK    1  A    between atoms: C_2  and  C_5 
REMARK    2  A    between atoms: C_8  and  C_11 
ROOT
HETATM    1  C   UNL     1     -44.252 -52.870  13.917  1.00  0.00     0.024 A 
HETATM    2  C   UNL     1     -44.291 -53.826  14.917  1.00  0.00     0.077 A 
HETATM    3  S   UNL     1     -42.897 -54.813  14.859  1.00  0.00    -0.084 SA
HETATM    4  C   UNL     1     -42.279 -53.854  13.563  1.00  0.00     0.082 A 
HETATM    5  N   UNL     1     -43.115 -52.927  13.132  1.00  0.00    -0.354 N 
ATOM      6  HN  UNL     1     -42.945 -52.329  12.324  1.00  0.00     0.166 HD
ENDROOT
BRANCH   4   7
HETATM    7  C   UNL     1     -40.896 -54.136  13.004  1.00  0.00     0.206 C 
HETATM    8  C   UNL     1     -39.835 -54.463  14.086  1.00  0.00     0.308 C 
HETATM    9  N   UNL     1     -39.466 -53.308  14.923  1.00  0.00     0.088 N 
HETATM   10  C   UNL     1     -39.044 -52.204  14.045  1.00  0.00     0.295 C 
HETATM   11  H   UNL     1     -38.700 -53.560  15.543  1.00  0.00     0.316 HD
HETATM   12  C   UNL     1     -40.069 -51.886  12.945  1.00  0.00     0.198 C 
HETATM   13  O   UNL     1     -40.434 -53.041  12.176  1.00  0.00    -0.376 OA
ENDBRANCH   4   7
BRANCH   1  14
HETATM   14  C   UNL     1     -45.297 -51.798  13.644  1.00  0.00    -0.008 C 
HETATM   15  C   UNL     1     -44.601 -50.484  13.238  1.00  0.00     0.021 C 
HETATM   16  C   UNL     1     -46.150 -51.554  14.904  1.00  0.00     0.021 C 
HETATM   17  C   UNL     1     -46.247 -52.208  12.498  1.00  0.00     0.021 C 
ENDBRANCH   1  14
TORSDOF 2
ENDMDL
MODEL 5
REMARK VINA RESULT:      -4.7      2.886      4.397
REMARK  2 active torsions:
REMARK  status: ('A' for Active; 'I' for Inactive)
REMARK    1  A    between atoms: C_2  and  C_5 
REMARK    2  A    between atoms: C_8  and  C_11 
ROOT
HETATM    1  C   UNL     1     -39.711 -48.893  11.712  1.00  0.00     0.024 A 
HETATM    2  C   UNL     1     -40.944 -49.437  11.395  1.00  0.00     0.077 A 
HETATM    3  S   UNL     1     -41.992 -48.233  10.786  1.00  0.00    -0.084 SA
HETATM    4  C   UNL     1     -40.716 -47.075  10.895  1.00  0.00     0.082 A 
HETATM    5  N   UNL     1     -39.615 -47.538  11.456  1.00  0.00    -0.354 N 
ATOM      6  HN  UNL     1     -38.797 -46.970  11.673  1.00  0.00     0.166 HD
ENDROOT
BRANCH   4   7
HETATM    7  C   UNL     1     -40.934 -45.659  10.394  1.00  0.00     0.206 C 
HETATM    8  C   UNL     1     -39.757 -44.696  10.697  1.00  0.00     0.308 C 
HETATM    9  N   UNL     1     -39.611 -44.369  12.126  1.00  0.00     0.088 N 
HETATM   10  C   UNL     1     -40.896 -43.851  12.626  1.00  0.00     0.295 C 
HETATM   11  H   UNL     1     -38.890 -43.662  12.248  1.00  0.00     0.316 HD
HETATM   12  C   UNL     1     -42.081 -44.776  12.307  1.00  0.00     0.198 C 
HETATM   13  O   UNL     1     -42.168 -45.106  10.913  1.00  0.00    -0.376 OA
ENDBRANCH   4   7
BRANCH   1  14
HETATM   14  C   UNL     1     -38.506 -49.637  12.269  1.00  0.00    -0.008 C 
HETATM   15  C   UNL     1     -37.872 -48.820  13.411  1.00  0.00     0.021 C 
HETATM   16  C   UNL     1     -37.459 -49.859  11.159  1.00  0.00     0.021 C 
HETATM   17  C   UNL     1     -38.900 -51.019  12.833  1.00  0.00     0.021 C 
ENDBRANCH   1  14
TORSDOF 2
ENDMDL
MODEL 6
REMARK VINA RESULT:      -4.5      8.673      9.972
REMARK  2 active torsions:
REMARK  status: ('A' for Active; 'I' for Inactive)
REMARK    1  A    between atoms: C_2  and  C_5 
REMARK    2  A    between atoms: C_8  and  C_11 
ROOT
HETATM    1  C   UNL     1     -46.444 -51.856  15.699  1.00  0.00     0.024 A 
HETATM    2  C   UNL     1     -46.926 -51.296  14.528  1.00  0.00     0.077 A 
HETATM    3  S   UNL     1     -46.364 -52.169  13.171  1.00  0.00    -0.084 SA
HETATM    4  C   UNL     1     -45.586 -53.295  14.223  1.00  0.00     0.082 A 
HETATM    5  N   UNL     1     -45.651 -52.971  15.502  1.00  0.00    -0.354 N 
ATOM      6  HN  UNL     1     -45.177 -53.478  16.249  1.00  0.00     0.166 HD
ENDROOT
BRANCH   4   7
HETATM    7  C   UNL     1     -44.883 -54.511  13.647  1.00  0.00     0.206 C 
HETATM    8  C   UNL     1     -43.808 -55.118  14.583  1.00  0.00     0.308 C 
HETATM    9  N   UNL     1     -42.613 -54.271  14.743  1.00  0.00     0.088 N 
HETATM   10  C   UNL     1     -42.076 -53.955  13.409  1.00  0.00     0.295 C 
HETATM   11  H   UNL     1     -41.908 -54.765  15.285  1.00  0.00     0.316 HD
HETATM   12  C   UNL     1     -43.135 -53.381  12.455  1.00  0.00     0.198 C 
HETATM   13  O   UNL     1     -44.301 -54.213  12.355  1.00  0.00    -0.376 OA
ENDBRANCH   4   7
BRANCH   1  14
HETATM   14  C   UNL     1     -46.726 -51.379  17.116  1.00  0.00    -0.008 C 
HETATM   15  C   UNL     1     -48.201 -50.948  17.237  1.00  0.00     0.021 C 
HETATM   16  C   UNL     1     -45.816 -50.186  17.467  1.00  0.00     0.021 C 
HETATM   17  C   UNL     1     -46.470 -52.493  18.153  1.00  0.00     0.021 C 
ENDBRANCH   1  14
TORSDOF 2
ENDMDL
MODEL 7
REMARK VINA RESULT:      -4.5      5.669      6.899
REMARK  2 active torsions:
REMARK  status: ('A' for Active; 'I' for Inactive)
REMARK    1  A    between atoms: C_2  and  C_5 
REMARK    2  A    between atoms: C_8  and  C_11 
ROOT
HETATM    1  C   UNL     1     -44.371 -52.659  13.435  1.00  0.00     0.024 A 
HETATM    2  C   UNL     1     -43.641 -53.752  13.869  1.00  0.00     0.077 A 
HETATM    3  S   UNL     1     -42.027 -53.654  13.314  1.00  0.00    -0.084 SA
HETATM    4  C   UNL     1     -42.371 -52.119  12.604  1.00  0.00     0.082 A 
HETATM    5  N   UNL     1     -43.639 -51.760  12.683  1.00  0.00    -0.354 N 
ATOM      6  HN  UNL     1     -44.029 -50.925  12.246  1.00  0.00     0.166 HD
ENDROOT
BRANCH   4   7
HETATM    7  C   UNL     1     -41.260 -51.326  11.939  1.00  0.00     0.206 C 
HETATM    8  C   UNL     1     -39.888 -51.447  12.650  1.00  0.00     0.308 C 
HETATM    9  N   UNL     1     -39.838 -50.775  13.961  1.00  0.00     0.088 N 
HETATM   10  C   UNL     1     -40.255 -49.373  13.789  1.00  0.00     0.295 C 
HETATM   11  H   UNL     1     -38.890 -50.804  14.329  1.00  0.00     0.316 HD
HETATM   12  C   UNL     1     -41.598 -49.231  13.056  1.00  0.00     0.198 C 
HETATM   13  O   UNL     1     -41.623 -49.931  11.803  1.00  0.00    -0.376 OA
ENDBRANCH   4   7
BRANCH   1  14
HETATM   14  C   UNL     1     -45.837 -52.372  13.728  1.00  0.00    -0.008 C 
HETATM   15  C   UNL     1     -46.505 -53.628  14.321  1.00  0.00     0.021 C 
HETATM   16  C   UNL     1     -46.568 -51.969  12.432  1.00  0.00     0.021 C 
HETATM   17  C   UNL     1     -45.999 -51.221  14.743  1.00  0.00     0.021 C 
ENDBRANCH   1  14
TORSDOF 2
ENDMDL
MODEL 8
REMARK VINA RESULT:      -4.5      7.810      9.786
REMARK  2 active torsions:
REMARK  status: ('A' for Active; 'I' for Inactive)
REMARK    1  A    between atoms: C_2  and  C_5 
REMARK    2  A    between atoms: C_8  and  C_11 
ROOT
HETATM    1  C   UNL     1     -41.394 -53.075  14.263  1.00  0.00     0.024 A 
HETATM    2  C   UNL     1     -41.493 -51.695  14.198  1.00  0.00     0.077 A 
HETATM    3  S   UNL     1     -42.886 -51.234  13.323  1.00  0.00    -0.084 SA
HETATM    4  C   UNL     1     -43.326 -52.895  13.157  1.00  0.00     0.082 A 
HETATM    5  N   UNL     1     -42.428 -53.740  13.630  1.00  0.00    -0.354 N 
ATOM      6  HN  UNL     1     -42.489 -54.754  13.541  1.00  0.00     0.166 HD
ENDROOT
BRANCH   4   7
HETATM    7  C   UNL     1     -44.635 -53.269  12.486  1.00  0.00     0.206 C 
HETATM    8  C   UNL     1     -45.802 -52.298  12.799  1.00  0.00     0.308 C 
HETATM    9  N   UNL     1     -46.278 -52.372  14.192  1.00  0.00     0.088 N 
HETATM   10  C   UNL     1     -46.619 -53.770  14.501  1.00  0.00     0.295 C 
HETATM   11  H   UNL     1     -47.103 -51.788  14.307  1.00  0.00     0.316 HD
HETATM   12  C   UNL     1     -45.486 -54.753  14.167  1.00  0.00     0.198 C 
HETATM   13  O   UNL     1     -45.021 -54.625  12.815  1.00  0.00    -0.376 OA
ENDBRANCH   4   7
BRANCH   1  14
HETATM   14  C   UNL     1     -40.306 -53.876  14.962  1.00  0.00    -0.008 C 
HETATM   15  C   UNL     1     -39.472 -52.944  15.864  1.00  0.00     0.021 C 
HETATM   16  C   UNL     1     -39.382 -54.539  13.922  1.00  0.00     0.021 C 
HETATM   17  C   UNL     1     -40.900 -54.990  15.849  1.00  0.00     0.021 C 
ENDBRANCH   1  14
TORSDOF 2
ENDMDL
MODEL 9
REMARK VINA RESULT:      -4.5      6.633      8.201
REMARK  2 active torsions:
REMARK  status: ('A' for Active; 'I' for Inactive)
REMARK    1  A    between atoms: C_2  and  C_5 
REMARK    2  A    between atoms: C_8  and  C_11 
ROOT
HETATM    1  C   UNL     1     -44.918 -52.357  15.148  1.00  0.00     0.024 A 
HETATM    2  C   UNL     1     -44.383 -52.969  16.268  1.00  0.00     0.077 A 
HETATM    3  S   UNL     1     -42.679 -52.840  16.265  1.00  0.00    -0.084 SA
HETATM    4  C   UNL     1     -42.758 -51.897  14.821  1.00  0.00     0.082 A 
HETATM    5  N   UNL     1     -43.973 -51.785  14.317  1.00  0.00    -0.354 N 
ATOM      6  HN  UNL     1     -44.188 -51.335  13.428  1.00  0.00     0.166 HD
ENDROOT
BRANCH   4   7
HETATM    7  C   UNL     1     -41.490 -51.309  14.230  1.00  0.00     0.206 C 
HETATM    8  C   UNL     1     -41.685 -50.669  12.832  1.00  0.00     0.308 C 
HETATM    9  N   UNL     1     -41.953 -51.648  11.763  1.00  0.00     0.088 N 
HETATM   10  C   UNL     1     -40.881 -52.658  11.769  1.00  0.00     0.295 C 
HETATM   11  H   UNL     1     -41.973 -51.179  10.861  1.00  0.00     0.316 HD
HETATM   12  C   UNL     1     -40.649 -53.281  13.154  1.00  0.00     0.198 C 
HETATM   13  O   UNL     1     -40.432 -52.296  14.176  1.00  0.00    -0.376 OA
ENDBRANCH   4   7
BRANCH   1  14
HETATM   14  C   UNL     1     -46.394 -52.245  14.792  1.00  0.00    -0.008 C 
HETATM   15  C   UNL     1     -47.029 -53.649  14.763  1.00  0.00     0.021 C 
HETATM   16  C   UNL     1     -46.558 -51.583  13.410  1.00  0.00     0.021 C 
HETATM   17  C   UNL     1     -47.166 -51.394  15.822  1.00  0.00     0.021 C 
ENDBRANCH   1  14
TORSDOF 2
ENDMDL
