MODEL 1
REMARK VINA RESULT:      -6.0      0.000      0.000
REMARK  2 active torsions:
REMARK  status: ('A' for Active; 'I' for Inactive)
REMARK    1  A    between atoms: C_9  and  N_10 
REMARK    2  A    between atoms: N_10  and  C_11 
ROOT
HETATM    1  N   UNL     1     -38.919 -54.499  14.366  1.00  0.00    -0.191 NA
HETATM    2  C   UNL     1     -39.931 -54.145  13.919  1.00  0.00     0.102 C 
HETATM    3  C   UNL     1     -41.194 -53.768  13.364  1.00  0.00     0.083 A 
HETATM    4  C   UNL     1     -42.355 -54.409  13.815  1.00  0.00     0.027 A 
HETATM    5  C   UNL     1     -43.579 -54.079  13.250  1.00  0.00     0.019 A 
HETATM    6  C   UNL     1     -43.595 -53.110  12.265  1.00  0.00     0.089 A 
HETATM    7  N   UNL     1     -42.498 -52.433  11.858  1.00  0.00    -0.356 N 
ATOM      8  HN  UNL     1     -42.570 -51.697  11.154  1.00  0.00     0.166 HD
HETATM    9  C   UNL     1     -41.305 -52.752  12.403  1.00  0.00     0.101 A 
ENDROOT
BRANCH   9  10
HETATM   10  N   UNL     1     -40.164 -52.041  11.999  1.00  0.00    -0.271 NA
HETATM   11  H   UNL     1     -40.147 -52.002  10.981  1.00  0.00     0.129 HD
BRANCH  10  12
HETATM   12  C   UNL     1     -39.965 -50.720  12.603  1.00  0.00     0.093 C 
HETATM   13  C   UNL     1     -39.831 -49.661  11.492  1.00  0.00     0.054 C 
HETATM   14  C   UNL     1     -38.414 -49.136  11.707  1.00  0.00     0.123 C 
HETATM   15  C   UNL     1     -37.360 -50.190  11.363  1.00  0.00     0.034 C 
HETATM   16  O   UNL     1     -38.354 -49.120  13.151  1.00  0.00    -0.379 OA
HETATM   17  C   UNL     1     -37.430 -51.121  12.573  1.00  0.00     0.036 C 
HETATM   18  C   UNL     1     -38.615 -50.541  13.345  1.00  0.00     0.140 C 
ENDBRANCH  10  12
ENDBRANCH   9  10
TORSDOF 2
ENDMDL
MODEL 2
REMARK VINA RESULT:      -5.7      3.469      5.918
REMARK  2 active torsions:
REMARK  status: ('A' for Active; 'I' for Inactive)
REMARK    1  A    between atoms: C_9  and  N_10 
REMARK    2  A    between atoms: N_10  and  C_11 
ROOT
HETATM    1  N   UNL     1     -43.673 -55.499  15.429  1.00  0.00    -0.191 NA
HETATM    2  C   UNL     1     -43.174 -54.853  14.602  1.00  0.00     0.102 C 
HETATM    3  C   UNL     1     -42.523 -54.035  13.626  1.00  0.00     0.083 A 
HETATM    4  C   UNL     1     -41.124 -53.967  13.618  1.00  0.00     0.027 A 
HETATM    5  C   UNL     1     -40.487 -53.143  12.702  1.00  0.00     0.019 A 
HETATM    6  C   UNL     1     -41.274 -52.429  11.819  1.00  0.00     0.089 A 
HETATM    7  N   UNL     1     -42.622 -52.526  11.764  1.00  0.00    -0.356 N 
ATOM      8  HN  UNL     1     -43.155 -52.007  11.066  1.00  0.00     0.166 HD
HETATM    9  C   UNL     1     -43.246 -53.325  12.655  1.00  0.00     0.101 A 
ENDROOT
BRANCH   9  10
HETATM   10  N   UNL     1     -44.643 -53.446  12.593  1.00  0.00    -0.271 NA
HETATM   11  H   UNL     1     -44.933 -54.201  13.213  1.00  0.00     0.129 HD
BRANCH  10  12
HETATM   12  C   UNL     1     -45.420 -52.223  12.816  1.00  0.00     0.093 C 
HETATM   13  C   UNL     1     -44.710 -51.345  13.863  1.00  0.00     0.054 C 
HETATM   14  C   UNL     1     -45.730 -51.296  14.997  1.00  0.00     0.123 C 
HETATM   15  C   UNL     1     -45.888 -52.657  15.678  1.00  0.00     0.034 C 
HETATM   16  O   UNL     1     -46.959 -51.199  14.243  1.00  0.00    -0.379 OA
HETATM   17  C   UNL     1     -46.732 -53.427  14.664  1.00  0.00     0.036 C 
HETATM   18  C   UNL     1     -46.795 -52.441  13.498  1.00  0.00     0.140 C 
ENDBRANCH  10  12
ENDBRANCH   9  10
TORSDOF 2
ENDMDL
MODEL 3
REMARK VINA RESULT:      -5.2      2.274      4.785
REMARK  2 active torsions:
REMARK  status: ('A' for Active; 'I' for Inactive)
REMARK    1  A    between atoms: C_9  and  N_10 
REMARK    2  A    between atoms: N_10  and  C_11 
ROOT
HETATM    1  N   UNL     1     -37.677 -51.428  12.786  1.00  0.00    -0.191 NA
HETATM    2  C   UNL     1     -38.517 -50.740  12.374  1.00  0.00     0.102 C 
HETATM    3  C   UNL     1     -39.537 -49.851  11.909  1.00  0.00     0.083 A 
HETATM    4  C   UNL     1     -39.248 -48.486  11.789  1.00  0.00     0.027 A 
HETATM    5  C   UNL     1     -40.245 -47.611  11.380  1.00  0.00     0.019 A 
HETATM    6  C   UNL     1     -41.489 -48.140  11.094  1.00  0.00     0.089 A 
HETATM    7  N   UNL     1     -41.775 -49.460  11.142  1.00  0.00    -0.356 N 
ATOM      8  HN  UNL     1     -42.700 -49.804  10.882  1.00  0.00     0.166 HD
HETATM    9  C   UNL     1     -40.809 -50.314  11.541  1.00  0.00     0.101 A 
ENDROOT
BRANCH   9  10
HETATM   10  N   UNL     1     -41.092 -51.689  11.575  1.00  0.00    -0.271 NA
HETATM   11  H   UNL     1     -40.223 -52.198  11.725  1.00  0.00     0.129 HD
BRANCH  10  12
HETATM   12  C   UNL     1     -42.148 -52.120  12.497  1.00  0.00     0.093 C 
HETATM   13  C   UNL     1     -41.932 -51.460  13.872  1.00  0.00     0.054 C 
HETATM   14  C   UNL     1     -41.694 -52.663  14.780  1.00  0.00     0.123 C 
HETATM   15  C   UNL     1     -40.364 -53.353  14.471  1.00  0.00     0.034 C 
HETATM   16  O   UNL     1     -42.647 -53.601  14.232  1.00  0.00    -0.379 OA
HETATM   17  C   UNL     1     -40.688 -54.115  13.187  1.00  0.00     0.036 C 
HETATM   18  C   UNL     1     -42.102 -53.622  12.880  1.00  0.00     0.140 C 
ENDBRANCH  10  12
ENDBRANCH   9  10
TORSDOF 2
ENDMDL
MODEL 4
REMARK VINA RESULT:      -5.1      3.062      4.347
REMARK  2 active torsions:
REMARK  status: ('A' for Active; 'I' for Inactive)
REMARK    1  A    between atoms: C_9  and  N_10 
REMARK    2  A    between atoms: N_10  and  C_11 
ROOT
HETATM    1  N   UNL     1     -42.505 -50.410  16.291  1.00  0.00    -0.191 NA
HETATM    2  C   UNL     1     -43.379 -50.661  15.569  1.00  0.00     0.102 C 
HETATM    3  C   UNL     1     -44.479 -51.007  14.723  1.00  0.00     0.083 A 
HETATM    4  C   UNL     1     -45.768 -51.063  15.268  1.00  0.00     0.027 A 
HETATM    5  C   UNL     1     -46.834 -51.439  14.464  1.00  0.00     0.019 A 
HETATM    6  C   UNL     1     -46.570 -51.733  13.139  1.00  0.00     0.089 A 
HETATM    7  N   UNL     1     -45.346 -51.626  12.574  1.00  0.00    -0.356 N 
ATOM      8  HN  UNL     1     -45.212 -51.815  11.580  1.00  0.00     0.166 HD
HETATM    9  C   UNL     1     -44.307 -51.261  13.354  1.00  0.00     0.101 A 
ENDROOT
BRANCH   9  10
HETATM   10  N   UNL     1     -43.037 -51.129  12.770  1.00  0.00    -0.271 NA
HETATM   11  H   UNL     1     -42.422 -50.655  13.430  1.00  0.00     0.129 HD
BRANCH  10  12
HETATM   12  C   UNL     1     -42.429 -52.351  12.233  1.00  0.00     0.093 C 
HETATM   13  C   UNL     1     -42.559 -53.487  13.265  1.00  0.00     0.054 C 
HETATM   14  C   UNL     1     -41.102 -53.808  13.585  1.00  0.00     0.123 C 
HETATM   15  C   UNL     1     -40.425 -52.669  14.349  1.00  0.00     0.034 C 
HETATM   16  O   UNL     1     -40.508 -53.678  12.274  1.00  0.00    -0.379 OA
HETATM   17  C   UNL     1     -40.180 -51.642  13.245  1.00  0.00     0.036 C 
HETATM   18  C   UNL     1     -40.890 -52.288  12.056  1.00  0.00     0.140 C 
ENDBRANCH  10  12
ENDBRANCH   9  10
TORSDOF 2
ENDMDL
MODEL 5
REMARK VINA RESULT:      -4.9      3.317      5.070
REMARK  2 active torsions:
REMARK  status: ('A' for Active; 'I' for Inactive)
REMARK    1  A    between atoms: C_9  and  N_10 
REMARK    2  A    between atoms: N_10  and  C_11 
ROOT
HETATM    1  N   UNL     1     -40.396 -46.677  14.395  1.00  0.00    -0.191 NA
HETATM    2  C   UNL     1     -40.872 -46.913  13.361  1.00  0.00     0.102 C 
HETATM    3  C   UNL     1     -41.511 -47.213  12.117  1.00  0.00     0.083 A 
HETATM    4  C   UNL     1     -42.779 -46.678  11.856  1.00  0.00     0.027 A 
HETATM    5  C   UNL     1     -43.423 -47.000  10.670  1.00  0.00     0.019 A 
HETATM    6  C   UNL     1     -42.768 -47.834   9.785  1.00  0.00     0.089 A 
HETATM    7  N   UNL     1     -41.518 -48.312   9.985  1.00  0.00    -0.356 N 
ATOM      8  HN  UNL     1     -41.062 -48.892   9.281  1.00  0.00     0.166 HD
HETATM    9  C   UNL     1     -40.889 -48.003  11.139  1.00  0.00     0.101 A 
ENDROOT
BRANCH   9  10
HETATM   10  N   UNL     1     -39.585 -48.479  11.346  1.00  0.00    -0.271 NA
HETATM   11  H   UNL     1     -39.189 -48.005  12.157  1.00  0.00     0.129 HD
BRANCH  10  12
HETATM   12  C   UNL     1     -39.421 -49.934  11.426  1.00  0.00     0.093 C 
HETATM   13  C   UNL     1     -40.471 -50.519  12.389  1.00  0.00     0.054 C 
HETATM   14  C   UNL     1     -39.605 -51.120  13.493  1.00  0.00     0.123 C 
HETATM   15  C   UNL     1     -38.894 -50.040  14.309  1.00  0.00     0.034 C 
HETATM   16  O   UNL     1     -38.518 -51.663  12.710  1.00  0.00    -0.379 OA
HETATM   17  C   UNL     1     -37.771 -49.612  13.365  1.00  0.00     0.036 C 
HETATM   18  C   UNL     1     -38.106 -50.404  12.102  1.00  0.00     0.140 C 
ENDBRANCH  10  12
ENDBRANCH   9  10
TORSDOF 2
ENDMDL
MODEL 6
REMARK VINA RESULT:      -4.8      3.377      6.415
REMARK  2 active torsions:
REMARK  status: ('A' for Active; 'I' for Inactive)
REMARK    1  A    between atoms: C_9  and  N_10 
REMARK    2  A    between atoms: N_10  and  C_11 
ROOT
HETATM    1  N   UNL     1     -42.956 -50.022  12.939  1.00  0.00    -0.191 NA
HETATM    2  C   UNL     1     -42.324 -50.953  13.227  1.00  0.00     0.102 C 
HETATM    3  C   UNL     1     -41.502 -52.080  13.544  1.00  0.00     0.083 A 
HETATM    4  C   UNL     1     -40.137 -51.881  13.785  1.00  0.00     0.027 A 
HETATM    5  C   UNL     1     -39.325 -52.975  14.051  1.00  0.00     0.019 A 
HETATM    6  C   UNL     1     -39.915 -54.224  14.079  1.00  0.00     0.089 A 
HETATM    7  N   UNL     1     -41.240 -54.435  13.913  1.00  0.00    -0.356 N 
ATOM      8  HN  UNL     1     -41.632 -55.375  13.983  1.00  0.00     0.166 HD
HETATM    9  C   UNL     1     -42.032 -53.374  13.652  1.00  0.00     0.101 A 
ENDROOT
BRANCH   9  10
HETATM   10  N   UNL     1     -43.412 -53.582  13.497  1.00  0.00    -0.271 NA
HETATM   11  H   UNL     1     -43.591 -53.891  12.543  1.00  0.00     0.129 HD
BRANCH  10  12
HETATM   12  C   UNL     1     -44.062 -54.449  14.486  1.00  0.00     0.093 C 
HETATM   13  C   UNL     1     -45.330 -55.070  13.871  1.00  0.00     0.054 C 
HETATM   14  C   UNL     1     -46.436 -54.505  14.759  1.00  0.00     0.123 C 
HETATM   15  C   UNL     1     -46.609 -52.998  14.560  1.00  0.00     0.034 C 
HETATM   16  O   UNL     1     -45.791 -54.559  16.051  1.00  0.00    -0.379 OA
HETATM   17  C   UNL     1     -45.412 -52.433  15.323  1.00  0.00     0.036 C 
HETATM   18  C   UNL     1     -44.660 -53.706  15.708  1.00  0.00     0.140 C 
ENDBRANCH  10  12
ENDBRANCH   9  10
TORSDOF 2
ENDMDL
MODEL 7
REMARK VINA RESULT:      -4.7      3.303      5.438
REMARK  2 active torsions:
REMARK  status: ('A' for Active; 'I' for Inactive)
REMARK    1  A    between atoms: C_9  and  N_10 
REMARK    2  A    between atoms: N_10  and  C_11 
ROOT
HETATM    1  N   UNL     1     -43.065 -49.349  13.123  1.00  0.00    -0.191 NA
HETATM    2  C   UNL     1     -42.503 -48.495  12.573  1.00  0.00     0.102 C 
HETATM    3  C   UNL     1     -41.863 -47.426  11.869  1.00  0.00     0.083 A 
HETATM    4  C   UNL     1     -42.484 -46.171  11.825  1.00  0.00     0.027 A 
HETATM    5  C   UNL     1     -41.891 -45.141  11.109  1.00  0.00     0.019 A 
HETATM    6  C   UNL     1     -40.691 -45.404  10.475  1.00  0.00     0.089 A 
HETATM    7  N   UNL     1     -40.041 -46.587  10.555  1.00  0.00    -0.356 N 
ATOM      8  HN  UNL     1     -39.136 -46.716  10.101  1.00  0.00     0.166 HD
HETATM    9  C   UNL     1     -40.616 -47.591  11.249  1.00  0.00     0.101 A 
ENDROOT
BRANCH   9  10
HETATM   10  N   UNL     1     -39.938 -48.817  11.352  1.00  0.00    -0.271 NA
HETATM   11  H   UNL     1     -39.895 -49.245  10.429  1.00  0.00     0.129 HD
BRANCH  10  12
HETATM   12  C   UNL     1     -38.626 -48.789  12.007  1.00  0.00     0.093 C 
HETATM   13  C   UNL     1     -37.776 -49.972  11.505  1.00  0.00     0.054 C 
HETATM   14  C   UNL     1     -37.553 -50.780  12.780  1.00  0.00     0.123 C 
HETATM   15  C   UNL     1     -38.848 -51.421  13.280  1.00  0.00     0.034 C 
HETATM   16  O   UNL     1     -37.362 -49.715  13.739  1.00  0.00    -0.379 OA
HETATM   17  C   UNL     1     -39.576 -50.232  13.905  1.00  0.00     0.036 C 
HETATM   18  C   UNL     1     -38.654 -49.072  13.531  1.00  0.00     0.140 C 
ENDBRANCH  10  12
ENDBRANCH   9  10
TORSDOF 2
ENDMDL
MODEL 8
REMARK VINA RESULT:      -4.7     15.320     16.690
REMARK  2 active torsions:
REMARK  status: ('A' for Active; 'I' for Inactive)
REMARK    1  A    between atoms: C_9  and  N_10 
REMARK    2  A    between atoms: N_10  and  C_11 
ROOT
HETATM    1  N   UNL     1     -48.391 -52.671  -0.670  1.00  0.00    -0.191 NA
HETATM    2  C   UNL     1     -49.547 -52.552  -0.658  1.00  0.00     0.102 C 
HETATM    3  C   UNL     1     -50.973 -52.449  -0.686  1.00  0.00     0.083 A 
HETATM    4  C   UNL     1     -51.741 -53.619  -0.725  1.00  0.00     0.027 A 
HETATM    5  C   UNL     1     -53.124 -53.526  -0.796  1.00  0.00     0.019 A 
HETATM    6  C   UNL     1     -53.685 -52.264  -0.811  1.00  0.00     0.089 A 
HETATM    7  N   UNL     1     -52.970 -51.121  -0.710  1.00  0.00    -0.356 N 
ATOM      8  HN  UNL     1     -53.437 -50.214  -0.685  1.00  0.00     0.166 HD
HETATM    9  C   UNL     1     -51.625 -51.207  -0.643  1.00  0.00     0.101 A 
ENDROOT
BRANCH   9  10
HETATM   10  N   UNL     1     -50.877 -50.026  -0.520  1.00  0.00    -0.271 NA
HETATM   11  H   UNL     1     -51.301 -49.308  -1.105  1.00  0.00     0.129 HD
BRANCH  10  12
HETATM   12  C   UNL     1     -50.625 -49.546   0.843  1.00  0.00     0.093 C 
HETATM   13  C   UNL     1     -51.474 -48.289   1.112  1.00  0.00     0.054 C 
HETATM   14  C   UNL     1     -50.412 -47.220   1.350  1.00  0.00     0.123 C 
HETATM   15  C   UNL     1     -49.636 -46.895   0.072  1.00  0.00     0.034 C 
HETATM   16  O   UNL     1     -49.438 -47.978   2.102  1.00  0.00    -0.379 OA
HETATM   17  C   UNL     1     -48.704 -48.100  -0.052  1.00  0.00     0.036 C 
HETATM   18  C   UNL     1     -49.196 -48.994   1.084  1.00  0.00     0.140 C 
ENDBRANCH  10  12
ENDBRANCH   9  10
TORSDOF 2
ENDMDL
MODEL 9
REMARK VINA RESULT:      -4.6      3.574      6.214
REMARK  2 active torsions:
REMARK  status: ('A' for Active; 'I' for Inactive)
REMARK    1  A    between atoms: C_9  and  N_10 
REMARK    2  A    between atoms: N_10  and  C_11 
ROOT
HETATM    1  N   UNL     1     -42.755 -48.738  15.176  1.00  0.00    -0.191 NA
HETATM    2  C   UNL     1     -42.405 -49.589  14.468  1.00  0.00     0.102 C 
HETATM    3  C   UNL     1     -41.927 -50.603  13.579  1.00  0.00     0.083 A 
HETATM    4  C   UNL     1     -40.555 -50.883  13.539  1.00  0.00     0.027 A 
HETATM    5  C   UNL     1     -40.080 -51.835  12.648  1.00  0.00     0.019 A 
HETATM    6  C   UNL     1     -40.998 -52.479  11.841  1.00  0.00     0.089 A 
HETATM    7  N   UNL     1     -42.332 -52.272  11.905  1.00  0.00    -0.356 N 
ATOM      8  HN  UNL     1     -42.972 -52.803  11.314  1.00  0.00     0.166 HD
HETATM    9  C   UNL     1     -42.799 -51.346  12.769  1.00  0.00     0.101 A 
ENDROOT
BRANCH   9  10
HETATM   10  N   UNL     1     -44.185 -51.138  12.855  1.00  0.00    -0.271 NA
HETATM   11  H   UNL     1     -44.486 -50.602  12.042  1.00  0.00     0.129 HD
BRANCH  10  12
HETATM   12  C   UNL     1     -45.016 -52.327  13.068  1.00  0.00     0.093 C 
HETATM   13  C   UNL     1     -46.504 -51.935  12.994  1.00  0.00     0.054 C 
HETATM   14  C   UNL     1     -47.000 -52.266  14.398  1.00  0.00     0.123 C 
HETATM   15  C   UNL     1     -46.405 -51.325  15.447  1.00  0.00     0.034 C 
HETATM   16  O   UNL     1     -46.275 -53.489  14.655  1.00  0.00    -0.379 OA
HETATM   17  C   UNL     1     -44.983 -51.862  15.591  1.00  0.00     0.036 C 
HETATM   18  C   UNL     1     -44.939 -52.926  14.496  1.00  0.00     0.140 C 
ENDBRANCH  10  12
ENDBRANCH   9  10
TORSDOF 2
ENDMDL
