MODEL 1
REMARK VINA RESULT:      -5.9      0.000      0.000
REMARK  4 active torsions:
REMARK  status: ('A' for Active; 'I' for Inactive)
REMARK    1  A    between atoms: O_2  and  C_3 
REMARK    2  A    between atoms: C_3  and  C_4 
REMARK    3  A    between atoms: C_4  and  N_5 
REMARK       I    between atoms: N_5  and  C_6 
REMARK       I    between atoms: C_6  and  N_8 
REMARK    4  A    between atoms: N_8  and  C_9 
ROOT
HETATM    1  N   UNL     1     -40.533 -49.692  10.676  1.00  0.00    -0.340 N 
HETATM    2  C   UNL     1     -41.616 -48.829  10.708  1.00  0.00     0.320 C 
HETATM    3  O   UNL     1     -42.181 -48.526  11.752  1.00  0.00    -0.247 OA
HETATM    4  N   UNL     1     -41.905 -48.301   9.467  1.00  0.00    -0.306 N 
HETATM    5  H   UNL     1     -40.465 -50.293   9.865  1.00  0.00     0.164 HD
HETATM    6  H   UNL     1     -41.085 -48.160   8.888  1.00  0.00     0.171 HD
ENDROOT
BRANCH   1   7
HETATM    7  C   UNL     1     -40.063 -50.190  11.956  1.00  0.00     0.162 C 
BRANCH   7   8
HETATM    8  C   UNL     1     -38.722 -49.554  12.338  1.00  0.00     0.076 C 
HETATM    9  C   UNL     1     -37.928 -50.443  13.347  1.00  0.00     0.040 C 
HETATM   10  C   UNL     1     -37.155 -51.047  12.165  1.00  0.00     0.006 C 
HETATM   11  C   UNL     1     -37.558 -49.820  11.334  1.00  0.00     0.040 C 
BRANCH   8  12
HETATM   12  O   UNL     1     -38.855 -48.150  12.694  1.00  0.00    -0.383 OA
HETATM   13  C   UNL     1     -38.509 -47.773  14.022  1.00  0.00     0.202 C 
ENDBRANCH   8  12
ENDBRANCH   7   8
ENDBRANCH   1   7
BRANCH   4  14
HETATM   14  C   UNL     1     -42.945 -47.350   9.316  1.00  0.00     0.077 A 
HETATM   15  C   UNL     1     -44.240 -47.724   8.957  1.00  0.00     0.050 A 
HETATM   16  C   UNL     1     -45.215 -46.743   8.886  1.00  0.00     0.090 A 
HETATM   17  N   UNL     1     -44.989 -45.434   9.150  1.00  0.00    -0.372 N 
HETATM   18  C   UNL     1     -43.721 -45.099   9.488  1.00  0.00     0.132 A 
ATOM     19  HN  UNL     1     -45.733 -44.739   9.097  1.00  0.00     0.164 HD
HETATM   20  C   UNL     1     -42.680 -46.006   9.558  1.00  0.00     0.158 A 
HETATM   21  F   UNL     1     -41.451 -45.606   9.916  1.00  0.00    -0.202 F 
ENDBRANCH   4  14
TORSDOF 4
ENDMDL
MODEL 2
REMARK VINA RESULT:      -5.9      4.673      5.835
REMARK  4 active torsions:
REMARK  status: ('A' for Active; 'I' for Inactive)
REMARK    1  A    between atoms: O_2  and  C_3 
REMARK    2  A    between atoms: C_3  and  C_4 
REMARK    3  A    between atoms: C_4  and  N_5 
REMARK       I    between atoms: N_5  and  C_6 
REMARK       I    between atoms: C_6  and  N_8 
REMARK    4  A    between atoms: N_8  and  C_9 
ROOT
HETATM    1  N   UNL     1     -41.185 -51.938  11.752  1.00  0.00    -0.340 N 
HETATM    2  C   UNL     1     -42.153 -52.409  12.624  1.00  0.00     0.320 C 
HETATM    3  O   UNL     1     -41.991 -52.417  13.839  1.00  0.00    -0.247 OA
HETATM    4  N   UNL     1     -43.316 -52.767  11.976  1.00  0.00    -0.306 N 
HETATM    5  H   UNL     1     -41.118 -52.413  10.861  1.00  0.00     0.164 HD
HETATM    6  H   UNL     1     -43.516 -52.197  11.162  1.00  0.00     0.171 HD
ENDROOT
BRANCH   1   7
HETATM    7  C   UNL     1     -39.975 -51.405  12.351  1.00  0.00     0.162 C 
BRANCH   7   8
HETATM    8  C   UNL     1     -39.653 -50.012  11.800  1.00  0.00     0.076 C 
HETATM    9  C   UNL     1     -39.420 -48.977  12.946  1.00  0.00     0.040 C 
HETATM   10  C   UNL     1     -37.909 -49.229  12.830  1.00  0.00     0.006 C 
HETATM   11  C   UNL     1     -38.157 -49.784  11.419  1.00  0.00     0.040 C 
BRANCH   8  12
HETATM   12  O   UNL     1     -40.574 -49.602  10.751  1.00  0.00    -0.383 OA
HETATM   13  C   UNL     1     -41.311 -48.402  10.954  1.00  0.00     0.202 C 
ENDBRANCH   8  12
ENDBRANCH   7   8
ENDBRANCH   1   7
BRANCH   4  14
HETATM   14  C   UNL     1     -44.440 -53.215  12.714  1.00  0.00     0.077 A 
HETATM   15  C   UNL     1     -44.578 -54.544  13.115  1.00  0.00     0.050 A 
HETATM   16  C   UNL     1     -45.677 -54.892  13.883  1.00  0.00     0.090 A 
HETATM   17  N   UNL     1     -46.629 -54.015  14.277  1.00  0.00    -0.372 N 
HETATM   18  C   UNL     1     -46.474 -52.733  13.868  1.00  0.00     0.132 A 
ATOM     19  HN  UNL     1     -47.422 -54.303  14.851  1.00  0.00     0.164 HD
HETATM   20  C   UNL     1     -45.424 -52.302  13.077  1.00  0.00     0.158 A 
HETATM   21  F   UNL     1     -45.325 -51.012  12.722  1.00  0.00    -0.202 F 
ENDBRANCH   4  14
TORSDOF 4
ENDMDL
MODEL 3
REMARK VINA RESULT:      -5.8      4.884      6.052
REMARK  4 active torsions:
REMARK  status: ('A' for Active; 'I' for Inactive)
REMARK    1  A    between atoms: O_2  and  C_3 
REMARK    2  A    between atoms: C_3  and  C_4 
REMARK    3  A    between atoms: C_4  and  N_5 
REMARK       I    between atoms: N_5  and  C_6 
REMARK       I    between atoms: C_6  and  N_8 
REMARK    4  A    between atoms: N_8  and  C_9 
ROOT
HETATM    1  N   UNL     1     -41.135 -51.643  11.471  1.00  0.00    -0.340 N 
HETATM    2  C   UNL     1     -42.188 -51.842  12.349  1.00  0.00     0.320 C 
HETATM    3  O   UNL     1     -42.386 -51.109  13.311  1.00  0.00    -0.247 OA
HETATM    4  N   UNL     1     -43.009 -52.879  11.960  1.00  0.00    -0.306 N 
HETATM    5  H   UNL     1     -40.713 -52.477  11.084  1.00  0.00     0.164 HD
HETATM    6  H   UNL     1     -43.084 -52.979  10.954  1.00  0.00     0.171 HD
ENDROOT
BRANCH   1   7
HETATM    7  C   UNL     1     -40.294 -50.486  11.718  1.00  0.00     0.162 C 
BRANCH   7   8
HETATM    8  C   UNL     1     -39.070 -50.862  12.559  1.00  0.00     0.076 C 
HETATM    9  C   UNL     1     -37.754 -50.269  11.960  1.00  0.00     0.040 C 
HETATM   10  C   UNL     1     -37.886 -49.078  12.922  1.00  0.00     0.006 C 
HETATM   11  C   UNL     1     -38.811 -49.942  13.793  1.00  0.00     0.040 C 
BRANCH   8  12
HETATM   12  O   UNL     1     -39.036 -52.278  12.890  1.00  0.00    -0.383 OA
HETATM   13  C   UNL     1     -39.021 -52.630  14.269  1.00  0.00     0.202 C 
ENDBRANCH   8  12
ENDBRANCH   7   8
ENDBRANCH   1   7
BRANCH   4  14
HETATM   14  C   UNL     1     -44.175 -53.191  12.704  1.00  0.00     0.077 A 
HETATM   15  C   UNL     1     -45.385 -52.530  12.489  1.00  0.00     0.050 A 
HETATM   16  C   UNL     1     -46.494 -52.931  13.215  1.00  0.00     0.090 A 
HETATM   17  N   UNL     1     -46.478 -53.935  14.123  1.00  0.00    -0.372 N 
HETATM   18  C   UNL     1     -45.289 -54.554  14.316  1.00  0.00     0.132 A 
ATOM     19  HN  UNL     1     -47.317 -54.212  14.634  1.00  0.00     0.164 HD
HETATM   20  C   UNL     1     -44.125 -54.203  13.656  1.00  0.00     0.158 A 
HETATM   21  F   UNL     1     -42.985 -54.870  13.885  1.00  0.00    -0.202 F 
ENDBRANCH   4  14
TORSDOF 4
ENDMDL
MODEL 4
REMARK VINA RESULT:      -5.7      4.261      5.758
REMARK  4 active torsions:
REMARK  status: ('A' for Active; 'I' for Inactive)
REMARK    1  A    between atoms: O_2  and  C_3 
REMARK    2  A    between atoms: C_3  and  C_4 
REMARK    3  A    between atoms: C_4  and  N_5 
REMARK       I    between atoms: N_5  and  C_6 
REMARK       I    between atoms: C_6  and  N_8 
REMARK    4  A    between atoms: N_8  and  C_9 
ROOT
HETATM    1  N   UNL     1     -43.170 -51.159  12.693  1.00  0.00    -0.340 N 
HETATM    2  C   UNL     1     -42.906 -49.811  12.513  1.00  0.00     0.320 C 
HETATM    3  O   UNL     1     -43.202 -48.968  13.352  1.00  0.00    -0.247 OA
HETATM    4  N   UNL     1     -42.207 -49.562  11.350  1.00  0.00    -0.306 N 
HETATM    5  H   UNL     1     -43.410 -51.681  11.860  1.00  0.00     0.164 HD
HETATM    6  H   UNL     1     -41.563 -50.303  11.100  1.00  0.00     0.171 HD
ENDROOT
BRANCH   1   7
HETATM    7  C   UNL     1     -43.778 -51.538  13.955  1.00  0.00     0.162 C 
BRANCH   7   8
HETATM    8  C   UNL     1     -45.027 -52.397  13.731  1.00  0.00     0.076 C 
HETATM    9  C   UNL     1     -45.901 -52.492  15.021  1.00  0.00     0.040 C 
HETATM   10  C   UNL     1     -46.762 -51.335  14.491  1.00  0.00     0.006 C 
HETATM   11  C   UNL     1     -46.233 -51.648  13.082  1.00  0.00     0.040 C 
BRANCH   8  12
HETATM   12  O   UNL     1     -44.723 -53.659  13.074  1.00  0.00    -0.383 OA
HETATM   13  C   UNL     1     -45.248 -54.847  13.656  1.00  0.00     0.202 C 
ENDBRANCH   8  12
ENDBRANCH   7   8
ENDBRANCH   1   7
BRANCH   4  14
HETATM   14  C   UNL     1     -41.794 -48.245  11.029  1.00  0.00     0.077 A 
HETATM   15  C   UNL     1     -40.535 -47.759  11.385  1.00  0.00     0.050 A 
HETATM   16  C   UNL     1     -40.183 -46.481  10.984  1.00  0.00     0.090 A 
HETATM   17  N   UNL     1     -40.988 -45.670  10.257  1.00  0.00    -0.372 N 
HETATM   18  C   UNL     1     -42.205 -46.165   9.932  1.00  0.00     0.132 A 
ATOM     19  HN  UNL     1     -40.693 -44.736   9.970  1.00  0.00     0.164 HD
HETATM   20  C   UNL     1     -42.652 -47.417  10.312  1.00  0.00     0.158 A 
HETATM   21  F   UNL     1     -43.865 -47.849   9.940  1.00  0.00    -0.202 F 
ENDBRANCH   4  14
TORSDOF 4
ENDMDL
MODEL 5
REMARK VINA RESULT:      -5.7      4.830      5.988
REMARK  4 active torsions:
REMARK  status: ('A' for Active; 'I' for Inactive)
REMARK    1  A    between atoms: O_2  and  C_3 
REMARK    2  A    between atoms: C_3  and  C_4 
REMARK    3  A    between atoms: C_4  and  N_5 
REMARK       I    between atoms: N_5  and  C_6 
REMARK       I    between atoms: C_6  and  N_8 
REMARK    4  A    between atoms: N_8  and  C_9 
ROOT
HETATM    1  N   UNL     1     -41.672 -51.240  11.777  1.00  0.00    -0.340 N 
HETATM    2  C   UNL     1     -42.605 -51.766  12.656  1.00  0.00     0.320 C 
HETATM    3  O   UNL     1     -42.661 -51.424  13.832  1.00  0.00    -0.247 OA
HETATM    4  N   UNL     1     -43.490 -52.622  12.036  1.00  0.00    -0.306 N 
HETATM    5  H   UNL     1     -41.321 -51.872  11.069  1.00  0.00     0.164 HD
HETATM    6  H   UNL     1     -43.698 -52.363  11.078  1.00  0.00     0.171 HD
ENDROOT
BRANCH   1   7
HETATM    7  C   UNL     1     -40.784 -50.221  12.305  1.00  0.00     0.162 C 
BRANCH   7   8
HETATM    8  C   UNL     1     -39.401 -50.802  12.620  1.00  0.00     0.076 C 
HETATM    9  C   UNL     1     -38.297 -50.192  11.698  1.00  0.00     0.040 C 
HETATM   10  C   UNL     1     -37.976 -49.174  12.803  1.00  0.00     0.006 C 
HETATM   11  C   UNL     1     -38.655 -50.117  13.807  1.00  0.00     0.040 C 
BRANCH   8  12
HETATM   12  O   UNL     1     -39.417 -52.252  12.720  1.00  0.00    -0.383 OA
HETATM   13  C   UNL     1     -39.244 -52.825  14.011  1.00  0.00     0.202 C 
ENDBRANCH   8  12
ENDBRANCH   7   8
ENDBRANCH   1   7
BRANCH   4  14
HETATM   14  C   UNL     1     -44.554 -53.208  12.766  1.00  0.00     0.077 A 
HETATM   15  C   UNL     1     -44.489 -54.520  13.239  1.00  0.00     0.050 A 
HETATM   16  C   UNL     1     -45.545 -55.002  13.995  1.00  0.00     0.090 A 
HETATM   17  N   UNL     1     -46.641 -54.273  14.310  1.00  0.00    -0.372 N 
HETATM   18  C   UNL     1     -46.680 -53.007  13.833  1.00  0.00     0.132 A 
ATOM     19  HN  UNL     1     -47.397 -54.657  14.878  1.00  0.00     0.164 HD
HETATM   20  C   UNL     1     -45.685 -52.451  13.049  1.00  0.00     0.158 A 
HETATM   21  F   UNL     1     -45.783 -51.183  12.624  1.00  0.00    -0.202 F 
ENDBRANCH   4  14
TORSDOF 4
ENDMDL
MODEL 6
REMARK VINA RESULT:      -5.5      1.529      2.059
REMARK  4 active torsions:
REMARK  status: ('A' for Active; 'I' for Inactive)
REMARK    1  A    between atoms: O_2  and  C_3 
REMARK    2  A    between atoms: C_3  and  C_4 
REMARK    3  A    between atoms: C_4  and  N_5 
REMARK       I    between atoms: N_5  and  C_6 
REMARK       I    between atoms: C_6  and  N_8 
REMARK    4  A    between atoms: N_8  and  C_9 
ROOT
HETATM    1  N   UNL     1     -40.506 -50.312  11.193  1.00  0.00    -0.340 N 
HETATM    2  C   UNL     1     -41.449 -49.296  11.168  1.00  0.00     0.320 C 
HETATM    3  O   UNL     1     -42.149 -49.030  12.139  1.00  0.00    -0.247 OA
HETATM    4  N   UNL     1     -41.432 -48.590   9.984  1.00  0.00    -0.306 N 
HETATM    5  H   UNL     1     -40.374 -50.818  10.327  1.00  0.00     0.164 HD
HETATM    6  H   UNL     1     -40.508 -48.516   9.573  1.00  0.00     0.171 HD
ENDROOT
BRANCH   1   7
HETATM    7  C   UNL     1     -40.351 -51.022  12.449  1.00  0.00     0.162 C 
BRANCH   7   8
HETATM    8  C   UNL     1     -38.886 -51.035  12.899  1.00  0.00     0.076 C 
HETATM    9  C   UNL     1     -37.986 -50.170  11.959  1.00  0.00     0.040 C 
HETATM   10  C   UNL     1     -38.140 -48.995  12.937  1.00  0.00     0.006 C 
HETATM   11  C   UNL     1     -38.534 -50.010  14.022  1.00  0.00     0.040 C 
BRANCH   8  12
HETATM   12  O   UNL     1     -38.403 -52.377  13.184  1.00  0.00    -0.383 OA
HETATM   13  C   UNL     1     -38.987 -53.066  14.283  1.00  0.00     0.202 C 
ENDBRANCH   8  12
ENDBRANCH   7   8
ENDBRANCH   1   7
BRANCH   4  14
HETATM   14  C   UNL     1     -42.286 -47.474   9.801  1.00  0.00     0.077 A 
HETATM   15  C   UNL     1     -43.490 -47.574   9.102  1.00  0.00     0.050 A 
HETATM   16  C   UNL     1     -44.298 -46.453   9.015  1.00  0.00     0.090 A 
HETATM   17  N   UNL     1     -43.994 -45.259   9.575  1.00  0.00    -0.372 N 
HETATM   18  C   UNL     1     -42.816 -45.189  10.241  1.00  0.00     0.132 A 
ATOM     19  HN  UNL     1     -44.617 -44.455   9.500  1.00  0.00     0.164 HD
HETATM   20  C   UNL     1     -41.935 -46.249  10.355  1.00  0.00     0.158 A 
HETATM   21  F   UNL     1     -40.793 -46.112  11.044  1.00  0.00    -0.202 F 
ENDBRANCH   4  14
TORSDOF 4
ENDMDL
MODEL 7
REMARK VINA RESULT:      -5.4      2.698      3.452
REMARK  4 active torsions:
REMARK  status: ('A' for Active; 'I' for Inactive)
REMARK    1  A    between atoms: O_2  and  C_3 
REMARK    2  A    between atoms: C_3  and  C_4 
REMARK    3  A    between atoms: C_4  and  N_5 
REMARK       I    between atoms: N_5  and  C_6 
REMARK       I    between atoms: C_6  and  N_8 
REMARK    4  A    between atoms: N_8  and  C_9 
ROOT
HETATM    1  N   UNL     1     -40.857 -51.307  11.242  1.00  0.00    -0.340 N 
HETATM    2  C   UNL     1     -41.383 -50.047  11.476  1.00  0.00     0.320 C 
HETATM    3  O   UNL     1     -42.208 -49.835  12.358  1.00  0.00    -0.247 OA
HETATM    4  N   UNL     1     -40.809 -49.081  10.677  1.00  0.00    -0.306 N 
HETATM    5  H   UNL     1     -40.652 -51.533  10.278  1.00  0.00     0.164 HD
HETATM    6  H   UNL     1     -39.833 -49.257  10.469  1.00  0.00     0.171 HD
ENDROOT
BRANCH   1   7
HETATM    7  C   UNL     1     -41.296 -52.368  12.130  1.00  0.00     0.162 C 
BRANCH   7   8
HETATM    8  C   UNL     1     -40.240 -52.666  13.199  1.00  0.00     0.076 C 
HETATM    9  C   UNL     1     -40.792 -52.422  14.640  1.00  0.00     0.040 C 
HETATM   10  C   UNL     1     -41.124 -53.919  14.737  1.00  0.00     0.006 C 
HETATM   11  C   UNL     1     -40.118 -54.169  13.603  1.00  0.00     0.040 C 
BRANCH   8  12
HETATM   12  O   UNL     1     -38.956 -52.053  12.898  1.00  0.00    -0.383 OA
HETATM   13  C   UNL     1     -38.344 -51.273  13.919  1.00  0.00     0.202 C 
ENDBRANCH   8  12
ENDBRANCH   7   8
ENDBRANCH   1   7
BRANCH   4  14
HETATM   14  C   UNL     1     -41.179 -47.720  10.819  1.00  0.00     0.077 A 
HETATM   15  C   UNL     1     -40.446 -46.835  11.611  1.00  0.00     0.050 A 
HETATM   16  C   UNL     1     -40.836 -45.506  11.652  1.00  0.00     0.090 A 
HETATM   17  N   UNL     1     -41.889 -45.009  10.962  1.00  0.00    -0.372 N 
HETATM   18  C   UNL     1     -42.586 -45.891  10.207  1.00  0.00     0.132 A 
ATOM     19  HN  UNL     1     -42.144 -44.022  11.008  1.00  0.00     0.164 HD
HETATM   20  C   UNL     1     -42.285 -47.238  10.128  1.00  0.00     0.158 A 
HETATM   21  F   UNL     1     -43.010 -48.052   9.346  1.00  0.00    -0.202 F 
ENDBRANCH   4  14
TORSDOF 4
ENDMDL
MODEL 8
REMARK VINA RESULT:      -5.2      3.642      4.730
REMARK  4 active torsions:
REMARK  status: ('A' for Active; 'I' for Inactive)
REMARK    1  A    between atoms: O_2  and  C_3 
REMARK    2  A    between atoms: C_3  and  C_4 
REMARK    3  A    between atoms: C_4  and  N_5 
REMARK       I    between atoms: N_5  and  C_6 
REMARK       I    between atoms: C_6  and  N_8 
REMARK    4  A    between atoms: N_8  and  C_9 
ROOT
HETATM    1  N   UNL     1     -42.272 -51.397  12.184  1.00  0.00    -0.340 N 
HETATM    2  C   UNL     1     -42.243 -50.013  12.131  1.00  0.00     0.320 C 
HETATM    3  O   UNL     1     -42.648 -49.314  13.053  1.00  0.00    -0.247 OA
HETATM    4  N   UNL     1     -41.636 -49.542  10.986  1.00  0.00    -0.306 N 
HETATM    5  H   UNL     1     -42.449 -51.873  11.309  1.00  0.00     0.164 HD
HETATM    6  H   UNL     1     -40.885 -50.137  10.654  1.00  0.00     0.171 HD
ENDROOT
BRANCH   1   7
HETATM    7  C   UNL     1     -42.765 -51.989  13.414  1.00  0.00     0.162 C 
BRANCH   7   8
HETATM    8  C   UNL     1     -42.746 -53.520  13.337  1.00  0.00     0.076 C 
HETATM    9  C   UNL     1     -41.356 -54.057  12.867  1.00  0.00     0.040 C 
HETATM   10  C   UNL     1     -40.966 -54.257  14.340  1.00  0.00     0.006 C 
HETATM   11  C   UNL     1     -42.462 -54.243  14.690  1.00  0.00     0.040 C 
BRANCH   8  12
HETATM   12  O   UNL     1     -43.904 -54.055  12.639  1.00  0.00    -0.383 OA
HETATM   13  C   UNL     1     -44.942 -54.625  13.428  1.00  0.00     0.202 C 
ENDBRANCH   8  12
ENDBRANCH   7   8
ENDBRANCH   1   7
BRANCH   4  14
HETATM   14  C   UNL     1     -41.460 -48.150  10.786  1.00  0.00     0.077 A 
HETATM   15  C   UNL     1     -42.433 -47.366  10.164  1.00  0.00     0.050 A 
HETATM   16  C   UNL     1     -42.213 -46.003  10.058  1.00  0.00     0.090 A 
HETATM   17  N   UNL     1     -41.108 -45.378  10.529  1.00  0.00    -0.372 N 
HETATM   18  C   UNL     1     -40.179 -46.164  11.122  1.00  0.00     0.132 A 
ATOM     19  HN  UNL     1     -40.983 -44.369  10.442  1.00  0.00     0.164 HD
HETATM   20  C   UNL     1     -40.301 -47.536  11.248  1.00  0.00     0.158 A 
HETATM   21  F   UNL     1     -39.347 -48.251  11.862  1.00  0.00    -0.202 F 
ENDBRANCH   4  14
TORSDOF 4
ENDMDL
MODEL 9
REMARK VINA RESULT:      -5.2      3.012      4.004
REMARK  4 active torsions:
REMARK  status: ('A' for Active; 'I' for Inactive)
REMARK    1  A    between atoms: O_2  and  C_3 
REMARK    2  A    between atoms: C_3  and  C_4 
REMARK    3  A    between atoms: C_4  and  N_5 
REMARK       I    between atoms: N_5  and  C_6 
REMARK       I    between atoms: C_6  and  N_8 
REMARK    4  A    between atoms: N_8  and  C_9 
ROOT
HETATM    1  N   UNL     1     -40.716 -50.987  11.219  1.00  0.00    -0.340 N 
HETATM    2  C   UNL     1     -41.079 -49.698  11.573  1.00  0.00     0.320 C 
HETATM    3  O   UNL     1     -42.016 -49.466  12.328  1.00  0.00    -0.247 OA
HETATM    4  N   UNL     1     -40.221 -48.749  11.059  1.00  0.00    -0.306 N 
HETATM    5  H   UNL     1     -40.365 -51.108  10.278  1.00  0.00     0.164 HD
HETATM    6  H   UNL     1     -39.262 -49.068  10.990  1.00  0.00     0.171 HD
ENDROOT
BRANCH   1   7
HETATM    7  C   UNL     1     -41.475 -52.065  11.826  1.00  0.00     0.162 C 
BRANCH   7   8
HETATM    8  C   UNL     1     -40.675 -52.741  12.945  1.00  0.00     0.076 C 
HETATM    9  C   UNL     1     -41.424 -52.668  14.314  1.00  0.00     0.040 C 
HETATM   10  C   UNL     1     -41.989 -54.071  14.049  1.00  0.00     0.006 C 
HETATM   11  C   UNL     1     -40.853 -54.288  13.038  1.00  0.00     0.040 C 
BRANCH   8  12
HETATM   12  O   UNL     1     -39.281 -52.327  12.960  1.00  0.00    -0.383 OA
HETATM   13  C   UNL     1     -38.753 -51.838  14.188  1.00  0.00     0.202 C 
ENDBRANCH   8  12
ENDBRANCH   7   8
ENDBRANCH   1   7
BRANCH   4  14
HETATM   14  C   UNL     1     -40.399 -47.377  11.367  1.00  0.00     0.077 A 
HETATM   15  C   UNL     1     -41.247 -46.557  10.621  1.00  0.00     0.050 A 
HETATM   16  C   UNL     1     -41.414 -45.241  11.021  1.00  0.00     0.090 A 
HETATM   17  N   UNL     1     -40.805 -44.699  12.101  1.00  0.00    -0.372 N 
HETATM   18  C   UNL     1     -39.983 -45.515  12.802  1.00  0.00     0.132 A 
ATOM     19  HN  UNL     1     -40.957 -43.727  12.373  1.00  0.00     0.164 HD
HETATM   20  C   UNL     1     -39.736 -46.832  12.462  1.00  0.00     0.158 A 
HETATM   21  F   UNL     1     -38.921 -47.588  13.212  1.00  0.00    -0.202 F 
ENDBRANCH   4  14
TORSDOF 4
ENDMDL
