MODEL 1
REMARK VINA RESULT:      -6.9      0.000      0.000
REMARK  5 active torsions:
REMARK  status: ('A' for Active; 'I' for Inactive)
REMARK    1  A    between atoms: O_2  and  C_3 
REMARK    2  A    between atoms: C_6  and  N_7 
REMARK       I    between atoms: N_7  and  C_8 
REMARK       I    between atoms: C_8  and  N_10 
REMARK    3  A    between atoms: N_10  and  C_11 
REMARK    4  A    between atoms: C_11  and  C_12 
REMARK       I    between atoms: C_12  and  N_14 
REMARK    5  A    between atoms: N_14  and  C_15 
ROOT
HETATM    1  N   UNL     1     -41.352 -49.157  10.506  1.00  0.00    -0.308 N 
HETATM    2  C   UNL     1     -41.172 -49.920  11.637  1.00  0.00     0.321 C 
HETATM    3  O   UNL     1     -41.345 -49.549  12.792  1.00  0.00    -0.247 OA
HETATM    4  N   UNL     1     -40.811 -51.222  11.348  1.00  0.00    -0.334 N 
HETATM    5  H   UNL     1     -41.398 -49.665   9.636  1.00  0.00     0.170 HD
HETATM    6  H   UNL     1     -40.284 -51.411  10.506  1.00  0.00     0.164 HD
ENDROOT
BRANCH   1   7
HETATM    7  C   UNL     1     -41.711 -47.785  10.476  1.00  0.00     0.051 A 
HETATM    8  C   UNL     1     -40.833 -46.737  10.745  1.00  0.00     0.035 A 
HETATM    9  C   UNL     1     -41.280 -45.418  10.703  1.00  0.00     0.058 A 
HETATM   10  C   UNL     1     -42.606 -45.174  10.384  1.00  0.00     0.141 A 
HETATM   11  N   UNL     1     -43.491 -46.151  10.103  1.00  0.00    -0.345 N 
HETATM   12  C   UNL     1     -43.020 -47.425  10.155  1.00  0.00     0.119 A 
ATOM     13  HN  UNL     1     -44.462 -45.946   9.863  1.00  0.00     0.167 HD
BRANCH  10  14
HETATM   14  O   UNL     1     -42.997 -43.850  10.366  1.00  0.00    -0.341 OA
HETATM   15  C   UNL     1     -42.546 -43.113  11.497  1.00  0.00     0.211 C 
ENDBRANCH  10  14
ENDBRANCH   1   7
BRANCH   4  16
HETATM   16  C   UNL     1     -40.579 -52.109  12.473  1.00  0.00     0.227 C 
BRANCH  16  17
HETATM   17  C   UNL     1     -41.710 -53.084  12.848  1.00  0.00     0.235 C 
HETATM   18  O   UNL     1     -41.561 -54.298  12.901  1.00  0.00    -0.272 OA
HETATM   19  N   UNL     1     -42.880 -52.404  13.137  1.00  0.00    -0.355 N 
HETATM   20  H   UNL     1     -42.801 -51.394  13.159  1.00  0.00     0.162 HD
BRANCH  19  21
HETATM   21  C   UNL     1     -44.142 -52.914  13.672  1.00  0.00     0.084 C 
HETATM   22  C   UNL     1     -45.281 -52.836  12.648  1.00  0.00     0.025 C 
HETATM   23  C   UNL     1     -46.129 -51.577  12.764  1.00  0.00     0.002 C 
HETATM   24  C   UNL     1     -46.665 -51.427  14.180  1.00  0.00     0.000 C 
HETATM   25  C   UNL     1     -45.520 -51.297  15.175  1.00  0.00     0.002 C 
HETATM   26  C   UNL     1     -44.521 -52.451  15.087  1.00  0.00     0.025 C 
ENDBRANCH  19  21
ENDBRANCH  16  17
ENDBRANCH   4  16
TORSDOF 5
ENDMDL
MODEL 2
REMARK VINA RESULT:      -6.2      2.172      2.961
REMARK  5 active torsions:
REMARK  status: ('A' for Active; 'I' for Inactive)
REMARK    1  A    between atoms: O_2  and  C_3 
REMARK    2  A    between atoms: C_6  and  N_7 
REMARK       I    between atoms: N_7  and  C_8 
REMARK       I    between atoms: C_8  and  N_10 
REMARK    3  A    between atoms: N_10  and  C_11 
REMARK    4  A    between atoms: C_11  and  C_12 
REMARK       I    between atoms: C_12  and  N_14 
REMARK    5  A    between atoms: N_14  and  C_15 
ROOT
HETATM    1  N   UNL     1     -41.890 -50.758  13.190  1.00  0.00    -0.308 N 
HETATM    2  C   UNL     1     -42.190 -52.089  13.014  1.00  0.00     0.321 C 
HETATM    3  O   UNL     1     -42.645 -52.597  11.996  1.00  0.00    -0.247 OA
HETATM    4  N   UNL     1     -41.873 -52.856  14.119  1.00  0.00    -0.334 N 
HETATM    5  H   UNL     1     -41.311 -50.539  13.988  1.00  0.00     0.170 HD
HETATM    6  H   UNL     1     -41.906 -52.434  15.037  1.00  0.00     0.164 HD
ENDROOT
BRANCH   1   7
HETATM    7  C   UNL     1     -42.110 -49.723  12.246  1.00  0.00     0.051 A 
HETATM    8  C   UNL     1     -43.234 -48.899  12.231  1.00  0.00     0.035 A 
HETATM    9  C   UNL     1     -43.370 -47.914  11.254  1.00  0.00     0.058 A 
HETATM   10  C   UNL     1     -42.367 -47.770  10.310  1.00  0.00     0.141 A 
HETATM   11  N   UNL     1     -41.255 -48.532  10.289  1.00  0.00    -0.345 N 
HETATM   12  C   UNL     1     -41.157 -49.483  11.255  1.00  0.00     0.119 A 
ATOM     13  HN  UNL     1     -40.526 -48.401   9.587  1.00  0.00     0.167 HD
BRANCH  10  14
HETATM   14  O   UNL     1     -42.558 -46.785   9.361  1.00  0.00    -0.341 OA
HETATM   15  C   UNL     1     -43.930 -46.500   9.112  1.00  0.00     0.211 C 
ENDBRANCH  10  14
ENDBRANCH   1   7
BRANCH   4  16
HETATM   16  C   UNL     1     -42.165 -54.276  14.044  1.00  0.00     0.227 C 
BRANCH  16  17
HETATM   17  C   UNL     1     -43.510 -54.751  14.624  1.00  0.00     0.235 C 
HETATM   18  O   UNL     1     -43.657 -55.832  15.178  1.00  0.00    -0.272 OA
HETATM   19  N   UNL     1     -44.493 -53.792  14.457  1.00  0.00    -0.355 N 
HETATM   20  H   UNL     1     -44.175 -52.905  14.083  1.00  0.00     0.162 HD
BRANCH  19  21
HETATM   21  C   UNL     1     -45.859 -53.763  14.978  1.00  0.00     0.084 C 
HETATM   22  C   UNL     1     -46.774 -52.843  14.159  1.00  0.00     0.025 C 
HETATM   23  C   UNL     1     -46.888 -51.432  14.718  1.00  0.00     0.002 C 
HETATM   24  C   UNL     1     -47.328 -51.473  16.175  1.00  0.00     0.000 C 
HETATM   25  C   UNL     1     -46.303 -52.215  17.022  1.00  0.00     0.002 C 
HETATM   26  C   UNL     1     -46.006 -53.621  16.501  1.00  0.00     0.025 C 
ENDBRANCH  19  21
ENDBRANCH  16  17
ENDBRANCH   4  16
TORSDOF 5
ENDMDL
MODEL 3
REMARK VINA RESULT:      -5.9      1.643      2.341
REMARK  5 active torsions:
REMARK  status: ('A' for Active; 'I' for Inactive)
REMARK    1  A    between atoms: O_2  and  C_3 
REMARK    2  A    between atoms: C_6  and  N_7 
REMARK       I    between atoms: N_7  and  C_8 
REMARK       I    between atoms: C_8  and  N_10 
REMARK    3  A    between atoms: N_10  and  C_11 
REMARK    4  A    between atoms: C_11  and  C_12 
REMARK       I    between atoms: C_12  and  N_14 
REMARK    5  A    between atoms: N_14  and  C_15 
ROOT
HETATM    1  N   UNL     1     -40.969 -47.673  10.413  1.00  0.00    -0.308 N 
HETATM    2  C   UNL     1     -40.584 -48.626  11.327  1.00  0.00     0.321 C 
HETATM    3  O   UNL     1     -40.399 -48.443  12.525  1.00  0.00    -0.247 OA
HETATM    4  N   UNL     1     -40.464 -49.883  10.766  1.00  0.00    -0.334 N 
HETATM    5  H   UNL     1     -41.303 -48.024   9.528  1.00  0.00     0.170 HD
HETATM    6  H   UNL     1     -40.206 -49.966   9.792  1.00  0.00     0.164 HD
ENDROOT
BRANCH   1   7
HETATM    7  C   UNL     1     -41.163 -46.294  10.680  1.00  0.00     0.051 A 
HETATM    8  C   UNL     1     -40.142 -45.345  10.698  1.00  0.00     0.035 A 
HETATM    9  C   UNL     1     -40.428 -44.012  10.983  1.00  0.00     0.058 A 
HETATM   10  C   UNL     1     -41.740 -43.652  11.240  1.00  0.00     0.141 A 
HETATM   11  N   UNL     1     -42.766 -44.528  11.221  1.00  0.00    -0.345 N 
HETATM   12  C   UNL     1     -42.449 -45.820  10.941  1.00  0.00     0.119 A 
ATOM     13  HN  UNL     1     -43.726 -44.237  11.406  1.00  0.00     0.167 HD
BRANCH  10  14
HETATM   14  O   UNL     1     -41.965 -42.319  11.525  1.00  0.00    -0.341 OA
HETATM   15  C   UNL     1     -40.787 -41.619  11.908  1.00  0.00     0.211 C 
ENDBRANCH  10  14
ENDBRANCH   1   7
BRANCH   4  16
HETATM   16  C   UNL     1     -40.044 -50.961  11.644  1.00  0.00     0.227 C 
BRANCH  16  17
HETATM   17  C   UNL     1     -41.131 -51.932  12.140  1.00  0.00     0.235 C 
HETATM   18  O   UNL     1     -41.048 -53.148  12.028  1.00  0.00    -0.272 OA
HETATM   19  N   UNL     1     -42.174 -51.249  12.740  1.00  0.00    -0.355 N 
HETATM   20  H   UNL     1     -42.032 -50.252  12.855  1.00  0.00     0.162 HD
BRANCH  19  21
HETATM   21  C   UNL     1     -43.329 -51.773  13.470  1.00  0.00     0.084 C 
HETATM   22  C   UNL     1     -42.941 -52.332  14.845  1.00  0.00     0.025 C 
HETATM   23  C   UNL     1     -42.681 -53.832  14.849  1.00  0.00     0.002 C 
HETATM   24  C   UNL     1     -43.878 -54.579  14.281  1.00  0.00     0.000 C 
HETATM   25  C   UNL     1     -44.131 -54.167  12.837  1.00  0.00     0.002 C 
HETATM   26  C   UNL     1     -44.299 -52.657  12.670  1.00  0.00     0.025 C 
ENDBRANCH  19  21
ENDBRANCH  16  17
ENDBRANCH   4  16
TORSDOF 5
ENDMDL
MODEL 4
REMARK VINA RESULT:      -5.8      1.835      2.282
REMARK  5 active torsions:
REMARK  status: ('A' for Active; 'I' for Inactive)
REMARK    1  A    between atoms: O_2  and  C_3 
REMARK    2  A    between atoms: C_6  and  N_7 
REMARK       I    between atoms: N_7  and  C_8 
REMARK       I    between atoms: C_8  and  N_10 
REMARK    3  A    between atoms: N_10  and  C_11 
REMARK    4  A    between atoms: C_11  and  C_12 
REMARK       I    between atoms: C_12  and  N_14 
REMARK    5  A    between atoms: N_14  and  C_15 
ROOT
HETATM    1  N   UNL     1     -39.866 -50.704  12.639  1.00  0.00    -0.308 N 
HETATM    2  C   UNL     1     -40.714 -51.779  12.505  1.00  0.00     0.321 C 
HETATM    3  O   UNL     1     -41.767 -51.793  11.876  1.00  0.00    -0.247 OA
HETATM    4  N   UNL     1     -40.234 -52.915  13.127  1.00  0.00    -0.334 N 
HETATM    5  H   UNL     1     -38.941 -50.914  12.982  1.00  0.00     0.170 HD
HETATM    6  H   UNL     1     -39.644 -52.818  13.943  1.00  0.00     0.164 HD
ENDROOT
BRANCH   1   7
HETATM    7  C   UNL     1     -40.087 -49.400  12.124  1.00  0.00     0.051 A 
HETATM    8  C   UNL     1     -39.602 -48.232  12.709  1.00  0.00     0.035 A 
HETATM    9  C   UNL     1     -39.881 -46.992  12.136  1.00  0.00     0.058 A 
HETATM   10  C   UNL     1     -40.639 -46.949  10.978  1.00  0.00     0.141 A 
HETATM   11  N   UNL     1     -41.119 -48.050  10.366  1.00  0.00    -0.345 N 
HETATM   12  C   UNL     1     -40.829 -49.241  10.953  1.00  0.00     0.119 A 
ATOM     13  HN  UNL     1     -41.669 -47.993   9.509  1.00  0.00     0.167 HD
BRANCH  10  14
HETATM   14  O   UNL     1     -40.892 -45.694  10.460  1.00  0.00    -0.341 OA
HETATM   15  C   UNL     1     -39.714 -44.925  10.246  1.00  0.00     0.211 C 
ENDBRANCH  10  14
ENDBRANCH   1   7
BRANCH   4  16
HETATM   16  C   UNL     1     -41.062 -54.105  13.060  1.00  0.00     0.227 C 
BRANCH  16  17
HETATM   17  C   UNL     1     -42.139 -54.278  14.146  1.00  0.00     0.235 C 
HETATM   18  O   UNL     1     -41.914 -54.772  15.243  1.00  0.00    -0.272 OA
HETATM   19  N   UNL     1     -43.359 -53.781  13.723  1.00  0.00    -0.355 N 
HETATM   20  H   UNL     1     -43.346 -53.299  12.831  1.00  0.00     0.162 HD
BRANCH  19  21
HETATM   21  C   UNL     1     -44.602 -53.607  14.475  1.00  0.00     0.084 C 
HETATM   22  C   UNL     1     -45.842 -53.701  13.576  1.00  0.00     0.025 C 
HETATM   23  C   UNL     1     -46.347 -52.354  13.081  1.00  0.00     0.002 C 
HETATM   24  C   UNL     1     -46.601 -51.418  14.253  1.00  0.00     0.000 C 
HETATM   25  C   UNL     1     -45.312 -51.165  15.024  1.00  0.00     0.002 C 
HETATM   26  C   UNL     1     -44.632 -52.453  15.488  1.00  0.00     0.025 C 
ENDBRANCH  19  21
ENDBRANCH  16  17
ENDBRANCH   4  16
TORSDOF 5
ENDMDL
MODEL 5
REMARK VINA RESULT:      -5.5      2.472      3.068
REMARK  5 active torsions:
REMARK  status: ('A' for Active; 'I' for Inactive)
REMARK    1  A    between atoms: O_2  and  C_3 
REMARK    2  A    between atoms: C_6  and  N_7 
REMARK       I    between atoms: N_7  and  C_8 
REMARK       I    between atoms: C_8  and  N_10 
REMARK    3  A    between atoms: N_10  and  C_11 
REMARK    4  A    between atoms: C_11  and  C_12 
REMARK       I    between atoms: C_12  and  N_14 
REMARK    5  A    between atoms: N_14  and  C_15 
ROOT
HETATM    1  N   UNL     1     -42.065 -50.714  11.742  1.00  0.00    -0.308 N 
HETATM    2  C   UNL     1     -42.191 -51.790  12.589  1.00  0.00     0.321 C 
HETATM    3  O   UNL     1     -41.730 -51.874  13.722  1.00  0.00    -0.247 OA
HETATM    4  N   UNL     1     -42.962 -52.803  12.051  1.00  0.00    -0.334 N 
HETATM    5  H   UNL     1     -42.690 -50.703  10.950  1.00  0.00     0.170 HD
HETATM    6  H   UNL     1     -42.980 -52.928  11.048  1.00  0.00     0.164 HD
ENDROOT
BRANCH   1   7
HETATM    7  C   UNL     1     -41.328 -49.530  12.004  1.00  0.00     0.051 A 
HETATM    8  C   UNL     1     -39.968 -49.378  11.741  1.00  0.00     0.035 A 
HETATM    9  C   UNL     1     -39.325 -48.179  12.043  1.00  0.00     0.058 A 
HETATM   10  C   UNL     1     -40.063 -47.149  12.601  1.00  0.00     0.141 A 
HETATM   11  N   UNL     1     -41.383 -47.241  12.862  1.00  0.00    -0.345 N 
HETATM   12  C   UNL     1     -41.977 -48.425  12.555  1.00  0.00     0.119 A 
ATOM     13  HN  UNL     1     -41.908 -46.465  13.266  1.00  0.00     0.167 HD
BRANCH  10  14
HETATM   14  O   UNL     1     -39.373 -45.988  12.888  1.00  0.00    -0.341 OA
HETATM   15  C   UNL     1     -40.215 -44.924  13.318  1.00  0.00     0.211 C 
ENDBRANCH  10  14
ENDBRANCH   1   7
BRANCH   4  16
HETATM   16  C   UNL     1     -43.144 -53.995  12.859  1.00  0.00     0.227 C 
BRANCH  16  17
HETATM   17  C   UNL     1     -44.519 -54.196  13.522  1.00  0.00     0.235 C 
HETATM   18  O   UNL     1     -45.363 -54.973  13.095  1.00  0.00    -0.272 OA
HETATM   19  N   UNL     1     -44.646 -53.414  14.656  1.00  0.00    -0.355 N 
HETATM   20  H   UNL     1     -43.808 -52.916  14.936  1.00  0.00     0.162 HD
BRANCH  19  21
HETATM   21  C   UNL     1     -45.710 -53.399  15.659  1.00  0.00     0.084 C 
HETATM   22  C   UNL     1     -47.001 -52.763  15.127  1.00  0.00     0.025 C 
HETATM   23  C   UNL     1     -47.136 -51.282  15.449  1.00  0.00     0.002 C 
HETATM   24  C   UNL     1     -46.998 -51.050  16.947  1.00  0.00     0.000 C 
HETATM   25  C   UNL     1     -45.626 -51.497  17.433  1.00  0.00     0.002 C 
HETATM   26  C   UNL     1     -45.310 -52.949  17.073  1.00  0.00     0.025 C 
ENDBRANCH  19  21
ENDBRANCH  16  17
ENDBRANCH   4  16
TORSDOF 5
ENDMDL
MODEL 6
REMARK VINA RESULT:      -5.4      2.529      8.296
REMARK  5 active torsions:
REMARK  status: ('A' for Active; 'I' for Inactive)
REMARK    1  A    between atoms: O_2  and  C_3 
REMARK    2  A    between atoms: C_6  and  N_7 
REMARK       I    between atoms: N_7  and  C_8 
REMARK       I    between atoms: C_8  and  N_10 
REMARK    3  A    between atoms: N_10  and  C_11 
REMARK    4  A    between atoms: C_11  and  C_12 
REMARK       I    between atoms: C_12  and  N_14 
REMARK    5  A    between atoms: N_14  and  C_15 
ROOT
HETATM    1  N   UNL     1     -41.613 -52.816  12.242  1.00  0.00    -0.308 N 
HETATM    2  C   UNL     1     -40.991 -51.590  12.307  1.00  0.00     0.321 C 
HETATM    3  O   UNL     1     -40.556 -51.054  13.320  1.00  0.00    -0.247 OA
HETATM    4  N   UNL     1     -40.844 -51.003  11.065  1.00  0.00    -0.334 N 
HETATM    5  H   UNL     1     -41.698 -53.217  11.320  1.00  0.00     0.170 HD
HETATM    6  H   UNL     1     -41.521 -51.203  10.342  1.00  0.00     0.164 HD
ENDROOT
BRANCH   1   7
HETATM    7  C   UNL     1     -41.917 -53.654  13.346  1.00  0.00     0.051 A 
HETATM    8  C   UNL     1     -40.969 -54.154  14.237  1.00  0.00     0.035 A 
HETATM    9  C   UNL     1     -41.362 -54.982  15.287  1.00  0.00     0.058 A 
HETATM   10  C   UNL     1     -42.705 -55.289  15.427  1.00  0.00     0.141 A 
HETATM   11  N   UNL     1     -43.662 -54.820  14.601  1.00  0.00    -0.345 N 
HETATM   12  C   UNL     1     -43.242 -54.017  13.588  1.00  0.00     0.119 A 
ATOM     13  HN  UNL     1     -44.646 -55.054  14.729  1.00  0.00     0.167 HD
BRANCH  10  14
HETATM   14  O   UNL     1     -43.035 -56.120  16.479  1.00  0.00    -0.341 OA
HETATM   15  C   UNL     1     -42.220 -55.927  17.629  1.00  0.00     0.211 C 
ENDBRANCH  10  14
ENDBRANCH   1   7
BRANCH   4  16
HETATM   16  C   UNL     1     -40.214 -49.696  11.022  1.00  0.00     0.227 C 
BRANCH  16  17
HETATM   17  C   UNL     1     -41.133 -48.465  11.120  1.00  0.00     0.235 C 
HETATM   18  O   UNL     1     -42.263 -48.432  10.652  1.00  0.00    -0.272 OA
HETATM   19  N   UNL     1     -40.523 -47.441  11.821  1.00  0.00    -0.355 N 
HETATM   20  H   UNL     1     -39.631 -47.674  12.243  1.00  0.00     0.162 HD
BRANCH  19  21
HETATM   21  C   UNL     1     -41.079 -46.165  12.273  1.00  0.00     0.084 C 
HETATM   22  C   UNL     1     -41.286 -45.180  11.115  1.00  0.00     0.025 C 
HETATM   23  C   UNL     1     -40.125 -44.218  10.909  1.00  0.00     0.002 C 
HETATM   24  C   UNL     1     -39.816 -43.475  12.200  1.00  0.00     0.000 C 
HETATM   25  C   UNL     1     -39.407 -44.452  13.295  1.00  0.00     0.002 C 
HETATM   26  C   UNL     1     -40.444 -45.550  13.530  1.00  0.00     0.025 C 
ENDBRANCH  19  21
ENDBRANCH  16  17
ENDBRANCH   4  16
TORSDOF 5
ENDMDL
MODEL 7
REMARK VINA RESULT:      -5.4      4.948      6.106
REMARK  5 active torsions:
REMARK  status: ('A' for Active; 'I' for Inactive)
REMARK    1  A    between atoms: O_2  and  C_3 
REMARK    2  A    between atoms: C_6  and  N_7 
REMARK       I    between atoms: N_7  and  C_8 
REMARK       I    between atoms: C_8  and  N_10 
REMARK    3  A    between atoms: N_10  and  C_11 
REMARK    4  A    between atoms: C_11  and  C_12 
REMARK       I    between atoms: C_12  and  N_14 
REMARK    5  A    between atoms: N_14  and  C_15 
ROOT
HETATM    1  N   UNL     1     -38.850 -51.553  15.819  1.00  0.00    -0.308 N 
HETATM    2  C   UNL     1     -39.125 -52.198  14.635  1.00  0.00     0.321 C 
HETATM    3  O   UNL     1     -38.452 -52.145  13.612  1.00  0.00    -0.247 OA
HETATM    4  N   UNL     1     -40.253 -52.992  14.712  1.00  0.00    -0.334 N 
HETATM    5  H   UNL     1     -39.360 -51.880  16.626  1.00  0.00     0.170 HD
HETATM    6  H   UNL     1     -40.997 -52.731  15.345  1.00  0.00     0.164 HD
ENDROOT
BRANCH   1   7
HETATM    7  C   UNL     1     -37.771 -50.662  16.051  1.00  0.00     0.051 A 
HETATM    8  C   UNL     1     -36.684 -50.942  16.877  1.00  0.00     0.035 A 
HETATM    9  C   UNL     1     -35.675 -49.997  17.054  1.00  0.00     0.058 A 
HETATM   10  C   UNL     1     -35.773 -48.786  16.390  1.00  0.00     0.141 A 
HETATM   11  N   UNL     1     -36.796 -48.472  15.569  1.00  0.00    -0.345 N 
HETATM   12  C   UNL     1     -37.762 -49.416  15.422  1.00  0.00     0.119 A 
ATOM     13  HN  UNL     1     -36.841 -47.575  15.085  1.00  0.00     0.167 HD
BRANCH  10  14
HETATM   14  O   UNL     1     -34.750 -47.885  16.608  1.00  0.00    -0.341 OA
HETATM   15  C   UNL     1     -34.888 -47.159  17.824  1.00  0.00     0.211 C 
ENDBRANCH  10  14
ENDBRANCH   1   7
BRANCH   4  16
HETATM   16  C   UNL     1     -40.642 -53.705  13.509  1.00  0.00     0.227 C 
BRANCH  16  17
HETATM   17  C   UNL     1     -41.928 -53.244  12.799  1.00  0.00     0.235 C 
HETATM   18  O   UNL     1     -41.926 -52.540  11.798  1.00  0.00    -0.272 OA
HETATM   19  N   UNL     1     -43.053 -53.751  13.424  1.00  0.00    -0.355 N 
HETATM   20  H   UNL     1     -42.874 -54.413  14.171  1.00  0.00     0.162 HD
BRANCH  19  21
HETATM   21  C   UNL     1     -44.454 -53.690  13.007  1.00  0.00     0.084 C 
HETATM   22  C   UNL     1     -45.035 -52.275  13.132  1.00  0.00     0.025 C 
HETATM   23  C   UNL     1     -45.763 -52.022  14.443  1.00  0.00     0.002 C 
HETATM   24  C   UNL     1     -46.844 -53.070  14.661  1.00  0.00     0.000 C 
HETATM   25  C   UNL     1     -46.231 -54.462  14.744  1.00  0.00     0.002 C 
HETATM   26  C   UNL     1     -45.371 -54.807  13.528  1.00  0.00     0.025 C 
ENDBRANCH  19  21
ENDBRANCH  16  17
ENDBRANCH   4  16
TORSDOF 5
ENDMDL
MODEL 8
REMARK VINA RESULT:      -5.3      2.764      3.781
REMARK  5 active torsions:
REMARK  status: ('A' for Active; 'I' for Inactive)
REMARK    1  A    between atoms: O_2  and  C_3 
REMARK    2  A    between atoms: C_6  and  N_7 
REMARK       I    between atoms: N_7  and  C_8 
REMARK       I    between atoms: C_8  and  N_10 
REMARK    3  A    between atoms: N_10  and  C_11 
REMARK    4  A    between atoms: C_11  and  C_12 
REMARK       I    between atoms: C_12  and  N_14 
REMARK    5  A    between atoms: N_14  and  C_15 
ROOT
HETATM    1  N   UNL     1     -40.883 -49.439  10.717  1.00  0.00    -0.308 N 
HETATM    2  C   UNL     1     -41.156 -50.281  11.770  1.00  0.00     0.321 C 
HETATM    3  O   UNL     1     -41.579 -49.944  12.871  1.00  0.00    -0.247 OA
HETATM    4  N   UNL     1     -40.950 -51.610  11.456  1.00  0.00    -0.334 N 
HETATM    5  H   UNL     1     -40.770 -49.883   9.818  1.00  0.00     0.170 HD
HETATM    6  H   UNL     1     -40.250 -51.851  10.768  1.00  0.00     0.164 HD
ENDROOT
BRANCH   1   7
HETATM    7  C   UNL     1     -40.986 -48.024  10.733  1.00  0.00     0.051 A 
HETATM    8  C   UNL     1     -40.013 -47.172  11.252  1.00  0.00     0.035 A 
HETATM    9  C   UNL     1     -40.207 -45.792  11.235  1.00  0.00     0.058 A 
HETATM   10  C   UNL     1     -41.377 -45.291  10.690  1.00  0.00     0.141 A 
HETATM   11  N   UNL     1     -42.343 -46.071  10.164  1.00  0.00    -0.345 N 
HETATM   12  C   UNL     1     -42.120 -47.412  10.198  1.00  0.00     0.119 A 
ATOM     13  HN  UNL     1     -43.193 -45.677   9.761  1.00  0.00     0.167 HD
BRANCH  10  14
HETATM   14  O   UNL     1     -41.521 -43.917  10.708  1.00  0.00    -0.341 OA
HETATM   15  C   UNL     1     -42.699 -43.482  11.378  1.00  0.00     0.211 C 
ENDBRANCH  10  14
ENDBRANCH   1   7
BRANCH   4  16
HETATM   16  C   UNL     1     -41.193 -52.583  12.505  1.00  0.00     0.227 C 
BRANCH  16  17
HETATM   17  C   UNL     1     -40.051 -52.842  13.505  1.00  0.00     0.235 C 
HETATM   18  O   UNL     1     -38.878 -52.591  13.265  1.00  0.00    -0.272 OA
HETATM   19  N   UNL     1     -40.536 -53.358  14.694  1.00  0.00    -0.355 N 
HETATM   20  H   UNL     1     -41.546 -53.394  14.772  1.00  0.00     0.162 HD
BRANCH  19  21
HETATM   21  C   UNL     1     -39.833 -53.609  15.952  1.00  0.00     0.084 C 
HETATM   22  C   UNL     1     -39.094 -54.953  15.945  1.00  0.00     0.025 C 
HETATM   23  C   UNL     1     -39.892 -56.099  16.551  1.00  0.00     0.002 C 
HETATM   24  C   UNL     1     -40.348 -55.742  17.957  1.00  0.00     0.000 C 
HETATM   25  C   UNL     1     -41.257 -54.519  17.931  1.00  0.00     0.002 C 
HETATM   26  C   UNL     1     -40.615 -53.316  17.242  1.00  0.00     0.025 C 
ENDBRANCH  19  21
ENDBRANCH  16  17
ENDBRANCH   4  16
TORSDOF 5
ENDMDL
MODEL 9
REMARK VINA RESULT:      -5.3      3.285      4.796
REMARK  5 active torsions:
REMARK  status: ('A' for Active; 'I' for Inactive)
REMARK    1  A    between atoms: O_2  and  C_3 
REMARK    2  A    between atoms: C_6  and  N_7 
REMARK       I    between atoms: N_7  and  C_8 
REMARK       I    between atoms: C_8  and  N_10 
REMARK    3  A    between atoms: N_10  and  C_11 
REMARK    4  A    between atoms: C_11  and  C_12 
REMARK       I    between atoms: C_12  and  N_14 
REMARK    5  A    between atoms: N_14  and  C_15 
ROOT
HETATM    1  N   UNL     1     -40.852 -47.076  10.450  1.00  0.00    -0.308 N 
HETATM    2  C   UNL     1     -41.167 -48.118  11.291  1.00  0.00     0.321 C 
HETATM    3  O   UNL     1     -41.787 -48.032  12.345  1.00  0.00    -0.247 OA
HETATM    4  N   UNL     1     -40.749 -49.341  10.802  1.00  0.00    -0.334 N 
HETATM    5  H   UNL     1     -40.551 -47.335   9.522  1.00  0.00     0.170 HD
HETATM    6  H   UNL     1     -39.929 -49.381  10.211  1.00  0.00     0.164 HD
ENDROOT
BRANCH   1   7
HETATM    7  C   UNL     1     -41.136 -45.705  10.680  1.00  0.00     0.051 A 
HETATM    8  C   UNL     1     -40.167 -44.729  10.907  1.00  0.00     0.035 A 
HETATM    9  C   UNL     1     -40.543 -43.407  11.136  1.00  0.00     0.058 A 
HETATM   10  C   UNL     1     -41.890 -43.086  11.127  1.00  0.00     0.141 A 
HETATM   11  N   UNL     1     -42.865 -43.990  10.898  1.00  0.00    -0.345 N 
HETATM   12  C   UNL     1     -42.461 -45.269  10.681  1.00  0.00     0.119 A 
ATOM     13  HN  UNL     1     -43.850 -43.727  10.889  1.00  0.00     0.167 HD
BRANCH  10  14
HETATM   14  O   UNL     1     -42.205 -41.764  11.368  1.00  0.00    -0.341 OA
HETATM   15  C   UNL     1     -41.234 -41.088  12.159  1.00  0.00     0.211 C 
ENDBRANCH  10  14
ENDBRANCH   1   7
BRANCH   4  16
HETATM   16  C   UNL     1     -41.017 -50.507  11.622  1.00  0.00     0.227 C 
BRANCH  16  17
HETATM   17  C   UNL     1     -39.941 -50.914  12.645  1.00  0.00     0.235 C 
HETATM   18  O   UNL     1     -39.258 -51.925  12.535  1.00  0.00    -0.272 OA
HETATM   19  N   UNL     1     -39.840 -49.982  13.662  1.00  0.00    -0.355 N 
HETATM   20  H   UNL     1     -40.397 -49.144  13.540  1.00  0.00     0.162 HD
BRANCH  19  21
HETATM   21  C   UNL     1     -38.863 -49.895  14.748  1.00  0.00     0.084 C 
HETATM   22  C   UNL     1     -39.449 -49.237  16.004  1.00  0.00     0.025 C 
HETATM   23  C   UNL     1     -39.185 -47.741  16.096  1.00  0.00     0.002 C 
HETATM   24  C   UNL     1     -37.694 -47.458  15.984  1.00  0.00     0.000 C 
HETATM   25  C   UNL     1     -37.159 -47.931  14.639  1.00  0.00     0.002 C 
HETATM   26  C   UNL     1     -37.458 -49.405  14.364  1.00  0.00     0.025 C 
ENDBRANCH  19  21
ENDBRANCH  16  17
ENDBRANCH   4  16
TORSDOF 5
ENDMDL
