MODEL 1
REMARK VINA RESULT:      -5.7      0.000      0.000
REMARK  2 active torsions:
REMARK  status: ('A' for Active; 'I' for Inactive)
REMARK    1  A    between atoms: N_4  and  C_9 
REMARK    2  A    between atoms: C_12  and  N_13 
ROOT
HETATM    1  C   UNL     1     -42.808 -53.986  13.613  1.00  0.00     0.103 A 
HETATM    2  C   UNL     1     -42.168 -54.487  14.748  1.00  0.00     0.050 A 
HETATM    3  C   UNL     1     -40.780 -54.627  14.772  1.00  0.00     0.028 A 
HETATM    4  C   UNL     1     -40.029 -54.218  13.685  1.00  0.00     0.021 A 
HETATM    5  C   UNL     1     -40.749 -53.807  12.567  1.00  0.00     0.113 A 
HETATM    6  N   UNL     1     -42.100 -53.675  12.512  1.00  0.00    -0.351 N 
ATOM      7  HN  UNL     1     -42.562 -53.349  11.663  1.00  0.00     0.166 HD
ENDROOT
BRANCH   1   8
HETATM    8  N   UNL     1     -44.177 -53.893  13.589  1.00  0.00    -0.362 N 
HETATM    9  C   UNL     1     -45.016 -54.901  14.231  1.00  0.00     0.156 C 
HETATM   10  C   UNL     1     -46.206 -54.169  14.906  1.00  0.00     0.136 C 
HETATM   11  C   UNL     1     -45.769 -53.413  16.163  1.00  0.00     0.041 C 
HETATM   12  O   UNL     1     -46.903 -53.289  13.988  1.00  0.00    -0.378 OA
HETATM   13  C   UNL     1     -46.027 -52.355  13.321  1.00  0.00     0.136 C 
HETATM   14  C   UNL     1     -44.884 -53.090  12.595  1.00  0.00     0.156 C 
HETATM   15  C   UNL     1     -46.857 -51.540  12.338  1.00  0.00     0.041 C 
ENDBRANCH   1   8
BRANCH   4  16
HETATM   16  N   UNL     1     -38.649 -54.454  13.649  1.00  0.00    -0.302 NA
HETATM   17  H   UNL     1     -38.331 -55.104  14.360  1.00  0.00     0.124 HD
HETATM   18  H   UNL     1     -38.090 -53.606  13.628  1.00  0.00     0.124 HD
ENDBRANCH   4  16
TORSDOF 2
ENDMDL
MODEL 2
REMARK VINA RESULT:      -5.4      7.249      9.038
REMARK  2 active torsions:
REMARK  status: ('A' for Active; 'I' for Inactive)
REMARK    1  A    between atoms: N_4  and  C_9 
REMARK    2  A    between atoms: C_12  and  N_13 
ROOT
HETATM    1  C   UNL     1     -43.554 -47.349   9.561  1.00  0.00     0.103 A 
HETATM    2  C   UNL     1     -44.923 -47.458   9.813  1.00  0.00     0.050 A 
HETATM    3  C   UNL     1     -45.779 -47.985   8.847  1.00  0.00     0.028 A 
HETATM    4  C   UNL     1     -45.263 -48.452   7.651  1.00  0.00     0.021 A 
HETATM    5  C   UNL     1     -43.904 -48.233   7.448  1.00  0.00     0.113 A 
HETATM    6  N   UNL     1     -43.050 -47.709   8.366  1.00  0.00    -0.351 N 
ATOM      7  HN  UNL     1     -42.058 -47.593   8.156  1.00  0.00     0.166 HD
ENDROOT
BRANCH   1   8
HETATM    8  N   UNL     1     -42.729 -46.791  10.505  1.00  0.00    -0.362 N 
HETATM    9  C   UNL     1     -42.849 -47.143  11.917  1.00  0.00     0.156 C 
HETATM   10  C   UNL     1     -41.417 -47.242  12.505  1.00  0.00     0.136 C 
HETATM   11  C   UNL     1     -40.692 -48.501  12.025  1.00  0.00     0.041 C 
HETATM   12  O   UNL     1     -40.628 -46.055  12.236  1.00  0.00    -0.378 OA
HETATM   13  C   UNL     1     -40.593 -45.702  10.837  1.00  0.00     0.136 C 
HETATM   14  C   UNL     1     -42.018 -45.538  10.272  1.00  0.00     0.156 C 
HETATM   15  C   UNL     1     -39.801 -44.410  10.689  1.00  0.00     0.041 C 
ENDBRANCH   1   8
BRANCH   4  16
HETATM   16  N   UNL     1     -46.119 -48.881   6.630  1.00  0.00    -0.302 NA
HETATM   17  H   UNL     1     -46.350 -48.152   5.963  1.00  0.00     0.124 HD
HETATM   18  H   UNL     1     -46.945 -49.368   6.965  1.00  0.00     0.124 HD
ENDBRANCH   4  16
TORSDOF 2
ENDMDL
MODEL 3
REMARK VINA RESULT:      -5.3      2.055      2.480
REMARK  2 active torsions:
REMARK  status: ('A' for Active; 'I' for Inactive)
REMARK    1  A    between atoms: N_4  and  C_9 
REMARK    2  A    between atoms: C_12  and  N_13 
ROOT
HETATM    1  C   UNL     1     -42.460 -52.052  12.784  1.00  0.00     0.103 A 
HETATM    2  C   UNL     1     -41.400 -52.777  13.329  1.00  0.00     0.050 A 
HETATM    3  C   UNL     1     -40.082 -52.394  13.086  1.00  0.00     0.028 A 
HETATM    4  C   UNL     1     -39.823 -51.257  12.342  1.00  0.00     0.021 A 
HETATM    5  C   UNL     1     -40.931 -50.638  11.769  1.00  0.00     0.113 A 
HETATM    6  N   UNL     1     -42.223 -51.000  11.978  1.00  0.00    -0.351 N 
ATOM      7  HN  UNL     1     -42.990 -50.489  11.539  1.00  0.00     0.166 HD
ENDROOT
BRANCH   1   8
HETATM    8  N   UNL     1     -43.751 -52.465  12.998  1.00  0.00    -0.362 N 
HETATM    9  C   UNL     1     -44.254 -53.708  12.417  1.00  0.00     0.156 C 
HETATM   10  C   UNL     1     -45.162 -54.392  13.473  1.00  0.00     0.136 C 
HETATM   11  C   UNL     1     -44.345 -54.998  14.616  1.00  0.00     0.041 C 
HETATM   12  O   UNL     1     -46.183 -53.498  13.983  1.00  0.00    -0.378 OA
HETATM   13  C   UNL     1     -45.651 -52.253  14.482  1.00  0.00     0.136 C 
HETATM   14  C   UNL     1     -44.805 -51.542  13.408  1.00  0.00     0.156 C 
HETATM   15  C   UNL     1     -46.817 -51.376  14.921  1.00  0.00     0.041 C 
ENDBRANCH   1   8
BRANCH   4  16
HETATM   16  N   UNL     1     -38.509 -50.921  11.996  1.00  0.00    -0.302 NA
HETATM   17  H   UNL     1     -38.445 -50.327  11.175  1.00  0.00     0.124 HD
HETATM   18  H   UNL     1     -37.884 -51.720  11.938  1.00  0.00     0.124 HD
ENDBRANCH   4  16
TORSDOF 2
ENDMDL
MODEL 4
REMARK VINA RESULT:      -5.3      7.205      9.050
REMARK  2 active torsions:
REMARK  status: ('A' for Active; 'I' for Inactive)
REMARK    1  A    between atoms: N_4  and  C_9 
REMARK    2  A    between atoms: C_12  and  N_13 
ROOT
HETATM    1  C   UNL     1     -42.791 -47.394   9.831  1.00  0.00     0.103 A 
HETATM    2  C   UNL     1     -44.028 -47.458  10.473  1.00  0.00     0.050 A 
HETATM    3  C   UNL     1     -45.185 -47.748   9.751  1.00  0.00     0.028 A 
HETATM    4  C   UNL     1     -45.100 -48.025   8.398  1.00  0.00     0.021 A 
HETATM    5  C   UNL     1     -43.844 -47.862   7.821  1.00  0.00     0.113 A 
HETATM    6  N   UNL     1     -42.704 -47.567   8.499  1.00  0.00    -0.351 N 
ATOM      7  HN  UNL     1     -41.811 -47.479   8.014  1.00  0.00     0.166 HD
ENDROOT
BRANCH   1   8
HETATM    8  N   UNL     1     -41.667 -47.068  10.548  1.00  0.00    -0.362 N 
HETATM    9  C   UNL     1     -41.051 -45.749  10.428  1.00  0.00     0.156 C 
HETATM   10  C   UNL     1     -40.583 -45.314  11.843  1.00  0.00     0.136 C 
HETATM   11  C   UNL     1     -41.762 -44.926  12.736  1.00  0.00     0.041 C 
HETATM   12  O   UNL     1     -39.756 -46.319  12.482  1.00  0.00    -0.378 OA
HETATM   13  C   UNL     1     -40.373 -47.624  12.516  1.00  0.00     0.136 C 
HETATM   14  C   UNL     1     -40.776 -48.082  11.101  1.00  0.00     0.156 C 
HETATM   15  C   UNL     1     -39.388 -48.602  13.142  1.00  0.00     0.041 C 
ENDBRANCH   1   8
BRANCH   4  16
HETATM   16  N   UNL     1     -46.261 -48.208   7.638  1.00  0.00    -0.302 NA
HETATM   17  H   UNL     1     -46.591 -47.358   7.193  1.00  0.00     0.124 HD
HETATM   18  H   UNL     1     -47.003 -48.693   8.134  1.00  0.00     0.124 HD
ENDBRANCH   4  16
TORSDOF 2
ENDMDL
MODEL 5
REMARK VINA RESULT:      -5.2      5.713      7.737
REMARK  2 active torsions:
REMARK  status: ('A' for Active; 'I' for Inactive)
REMARK    1  A    between atoms: N_4  and  C_9 
REMARK    2  A    between atoms: C_12  and  N_13 
ROOT
HETATM    1  C   UNL     1     -40.233 -48.928  11.412  1.00  0.00     0.103 A 
HETATM    2  C   UNL     1     -39.755 -47.661  11.748  1.00  0.00     0.050 A 
HETATM    3  C   UNL     1     -40.395 -46.516  11.274  1.00  0.00     0.028 A 
HETATM    4  C   UNL     1     -41.542 -46.635  10.510  1.00  0.00     0.021 A 
HETATM    5  C   UNL     1     -41.904 -47.932  10.155  1.00  0.00     0.113 A 
HETATM    6  N   UNL     1     -41.291 -49.063  10.591  1.00  0.00    -0.351 N 
ATOM      7  HN  UNL     1     -41.621 -49.984  10.304  1.00  0.00     0.166 HD
ENDROOT
BRANCH   1   8
HETATM    8  N   UNL     1     -39.569 -50.046  11.852  1.00  0.00    -0.362 N 
HETATM    9  C   UNL     1     -38.123 -50.177  11.694  1.00  0.00     0.156 C 
HETATM   10  C   UNL     1     -37.564 -50.844  12.979  1.00  0.00     0.136 C 
HETATM   11  C   UNL     1     -37.569 -49.880  14.167  1.00  0.00     0.041 C 
HETATM   12  O   UNL     1     -38.257 -52.074  13.307  1.00  0.00    -0.378 OA
HETATM   13  C   UNL     1     -39.690 -51.916  13.384  1.00  0.00     0.136 C 
HETATM   14  C   UNL     1     -40.251 -51.316  12.080  1.00  0.00     0.156 C 
HETATM   15  C   UNL     1     -40.307 -53.280  13.661  1.00  0.00     0.041 C 
ENDBRANCH   1   8
BRANCH   4  16
HETATM   16  N   UNL     1     -42.132 -45.504   9.936  1.00  0.00    -0.302 NA
HETATM   17  H   UNL     1     -41.952 -44.648  10.451  1.00  0.00     0.124 HD
HETATM   18  H   UNL     1     -43.118 -45.621   9.720  1.00  0.00     0.124 HD
ENDBRANCH   4  16
TORSDOF 2
ENDMDL
MODEL 6
REMARK VINA RESULT:      -5.1      6.615      8.703
REMARK  2 active torsions:
REMARK  status: ('A' for Active; 'I' for Inactive)
REMARK    1  A    between atoms: N_4  and  C_9 
REMARK    2  A    between atoms: C_12  and  N_13 
ROOT
HETATM    1  C   UNL     1     -40.695 -47.992  11.358  1.00  0.00     0.103 A 
HETATM    2  C   UNL     1     -40.537 -46.608  11.266  1.00  0.00     0.050 A 
HETATM    3  C   UNL     1     -41.383 -45.852  10.455  1.00  0.00     0.028 A 
HETATM    4  C   UNL     1     -42.419 -46.469   9.778  1.00  0.00     0.021 A 
HETATM    5  C   UNL     1     -42.457 -47.859   9.859  1.00  0.00     0.113 A 
HETATM    6  N   UNL     1     -41.637 -48.620  10.630  1.00  0.00    -0.351 N 
ATOM      7  HN  UNL     1     -41.733 -49.635  10.657  1.00  0.00     0.166 HD
ENDROOT
BRANCH   1   8
HETATM    8  N   UNL     1     -39.830 -48.727  12.128  1.00  0.00    -0.362 N 
HETATM    9  C   UNL     1     -39.644 -50.158  11.900  1.00  0.00     0.156 C 
HETATM   10  C   UNL     1     -38.137 -50.476  12.085  1.00  0.00     0.136 C 
HETATM   11  C   UNL     1     -37.299 -49.956  10.914  1.00  0.00     0.041 C 
HETATM   12  O   UNL     1     -37.622 -49.987  13.348  1.00  0.00    -0.378 OA
HETATM   13  C   UNL     1     -37.888 -48.585  13.566  1.00  0.00     0.136 C 
HETATM   14  C   UNL     1     -39.395 -48.284  13.449  1.00  0.00     0.156 C 
HETATM   15  C   UNL     1     -37.367 -48.208  14.946  1.00  0.00     0.041 C 
ENDBRANCH   1   8
BRANCH   4  16
HETATM   16  N   UNL     1     -43.206 -45.745   8.875  1.00  0.00    -0.302 NA
HETATM   17  H   UNL     1     -43.748 -46.332   8.249  1.00  0.00     0.124 HD
HETATM   18  H   UNL     1     -42.696 -45.023   8.375  1.00  0.00     0.124 HD
ENDBRANCH   4  16
TORSDOF 2
ENDMDL
MODEL 7
REMARK VINA RESULT:      -5.0      1.741      2.518
REMARK  2 active torsions:
REMARK  status: ('A' for Active; 'I' for Inactive)
REMARK    1  A    between atoms: N_4  and  C_9 
REMARK    2  A    between atoms: C_12  and  N_13 
ROOT
HETATM    1  C   UNL     1     -41.600 -54.089  14.483  1.00  0.00     0.103 A 
HETATM    2  C   UNL     1     -40.502 -54.021  13.624  1.00  0.00     0.050 A 
HETATM    3  C   UNL     1     -39.284 -54.596  13.986  1.00  0.00     0.028 A 
HETATM    4  C   UNL     1     -39.177 -55.284  15.181  1.00  0.00     0.021 A 
HETATM    5  C   UNL     1     -40.292 -55.235  16.014  1.00  0.00     0.113 A 
HETATM    6  N   UNL     1     -41.484 -54.670  15.692  1.00  0.00    -0.351 N 
ATOM      7  HN  UNL     1     -42.268 -54.687  16.345  1.00  0.00     0.166 HD
ENDROOT
BRANCH   1   8
HETATM    8  N   UNL     1     -42.780 -53.483  14.132  1.00  0.00    -0.362 N 
HETATM    9  C   UNL     1     -43.423 -53.766  12.851  1.00  0.00     0.156 C 
HETATM   10  C   UNL     1     -44.954 -53.833  13.093  1.00  0.00     0.136 C 
HETATM   11  C   UNL     1     -45.357 -55.113  13.829  1.00  0.00     0.041 C 
HETATM   12  O   UNL     1     -45.454 -52.660  13.782  1.00  0.00    -0.378 OA
HETATM   13  C   UNL     1     -44.745 -52.374  15.007  1.00  0.00     0.136 C 
HETATM   14  C   UNL     1     -43.231 -52.242  14.752  1.00  0.00     0.156 C 
HETATM   15  C   UNL     1     -45.310 -51.090  15.599  1.00  0.00     0.041 C 
ENDBRANCH   1   8
BRANCH   4  16
HETATM   16  N   UNL     1     -37.936 -55.770  15.610  1.00  0.00    -0.302 NA
HETATM   17  H   UNL     1     -37.149 -55.227  15.270  1.00  0.00     0.124 HD
HETATM   18  H   UNL     1     -37.810 -56.766  15.453  1.00  0.00     0.124 HD
ENDBRANCH   4  16
TORSDOF 2
ENDMDL
MODEL 8
REMARK VINA RESULT:      -4.9      5.909      7.836
REMARK  2 active torsions:
REMARK  status: ('A' for Active; 'I' for Inactive)
REMARK    1  A    between atoms: N_4  and  C_9 
REMARK    2  A    between atoms: C_12  and  N_13 
ROOT
HETATM    1  C   UNL     1     -41.360 -48.157  11.266  1.00  0.00     0.103 A 
HETATM    2  C   UNL     1     -40.919 -46.835  11.196  1.00  0.00     0.050 A 
HETATM    3  C   UNL     1     -41.582 -45.911  10.390  1.00  0.00     0.028 A 
HETATM    4  C   UNL     1     -42.715 -46.292   9.695  1.00  0.00     0.021 A 
HETATM    5  C   UNL     1     -43.039 -47.645   9.755  1.00  0.00     0.113 A 
HETATM    6  N   UNL     1     -42.402 -48.569  10.521  1.00  0.00    -0.351 N 
ATOM      7  HN  UNL     1     -42.705 -49.543  10.531  1.00  0.00     0.166 HD
ENDROOT
BRANCH   1   8
HETATM    8  N   UNL     1     -40.673 -49.066  12.032  1.00  0.00    -0.362 N 
HETATM    9  C   UNL     1     -41.307 -49.729  13.168  1.00  0.00     0.156 C 
HETATM   10  C   UNL     1     -40.828 -51.205  13.183  1.00  0.00     0.136 C 
HETATM   11  C   UNL     1     -41.475 -52.023  12.063  1.00  0.00     0.041 C 
HETATM   12  O   UNL     1     -39.384 -51.316  13.139  1.00  0.00    -0.378 OA
HETATM   13  C   UNL     1     -38.791 -50.588  12.042  1.00  0.00     0.136 C 
HETATM   14  C   UNL     1     -39.215 -49.107  12.069  1.00  0.00     0.156 C 
HETATM   15  C   UNL     1     -37.278 -50.721  12.142  1.00  0.00     0.041 C 
ENDBRANCH   1   8
BRANCH   4  16
HETATM   16  N   UNL     1     -43.326 -45.410   8.796  1.00  0.00    -0.302 NA
HETATM   17  H   UNL     1     -44.202 -45.029   9.136  1.00  0.00     0.124 HD
HETATM   18  H   UNL     1     -43.410 -45.779   7.853  1.00  0.00     0.124 HD
ENDBRANCH   4  16
TORSDOF 2
ENDMDL
MODEL 9
REMARK VINA RESULT:      -4.9      7.440      9.208
REMARK  2 active torsions:
REMARK  status: ('A' for Active; 'I' for Inactive)
REMARK    1  A    between atoms: N_4  and  C_9 
REMARK    2  A    between atoms: C_12  and  N_13 
ROOT
HETATM    1  C   UNL     1     -39.693 -46.879  12.020  1.00  0.00     0.103 A 
HETATM    2  C   UNL     1     -39.588 -45.757  12.844  1.00  0.00     0.050 A 
HETATM    3  C   UNL     1     -39.880 -44.486  12.348  1.00  0.00     0.028 A 
HETATM    4  C   UNL     1     -40.326 -44.341  11.047  1.00  0.00     0.021 A 
HETATM    5  C   UNL     1     -40.325 -45.497  10.271  1.00  0.00     0.113 A 
HETATM    6  N   UNL     1     -40.032 -46.744  10.724  1.00  0.00    -0.351 N 
ATOM      7  HN  UNL     1     -40.070 -47.552  10.103  1.00  0.00     0.166 HD
ENDROOT
BRANCH   1   8
HETATM    8  N   UNL     1     -39.363 -48.118  12.510  1.00  0.00    -0.362 N 
HETATM    9  C   UNL     1     -39.720 -49.336  11.787  1.00  0.00     0.156 C 
HETATM   10  C   UNL     1     -38.533 -50.327  11.913  1.00  0.00     0.136 C 
HETATM   11  C   UNL     1     -37.343 -49.900  11.050  1.00  0.00     0.041 C 
HETATM   12  O   UNL     1     -38.129 -50.530  13.290  1.00  0.00    -0.378 OA
HETATM   13  C   UNL     1     -37.853 -49.297  13.989  1.00  0.00     0.136 C 
HETATM   14  C   UNL     1     -39.060 -48.341  13.919  1.00  0.00     0.156 C 
HETATM   15  C   UNL     1     -37.511 -49.633  15.434  1.00  0.00     0.041 C 
ENDBRANCH   1   8
BRANCH   4  16
HETATM   16  N   UNL     1     -40.516 -43.067  10.501  1.00  0.00    -0.302 NA
HETATM   17  H   UNL     1     -41.438 -42.683  10.681  1.00  0.00     0.124 HD
HETATM   18  H   UNL     1     -40.258 -42.999   9.521  1.00  0.00     0.124 HD
ENDBRANCH   4  16
TORSDOF 2
ENDMDL
