MODEL 1
REMARK VINA RESULT:      -6.3      0.000      0.000
REMARK  4 active torsions:
REMARK  status: ('A' for Active; 'I' for Inactive)
REMARK    1  A    between atoms: C_2  and  C_3 
REMARK    2  A    between atoms: C_2  and  C_14 
REMARK    3  A    between atoms: C_3  and  N_4 
REMARK       I    between atoms: N_4  and  C_5 
REMARK       I    between atoms: C_5  and  N_7 
REMARK    4  A    between atoms: N_7  and  C_8 
ROOT
HETATM    1  N   UNL     1     -42.271 -50.130  11.748  1.00  0.00    -0.342 N 
HETATM    2  C   UNL     1     -42.842 -50.762  12.826  1.00  0.00     0.316 C 
HETATM    3  O   UNL     1     -42.852 -50.309  13.960  1.00  0.00    -0.247 OA
HETATM    4  N   UNL     1     -43.427 -51.947  12.465  1.00  0.00    -0.336 N 
HETATM    5  H   UNL     1     -41.820 -50.764  11.094  1.00  0.00     0.164 HD
HETATM    6  H   UNL     1     -43.757 -51.968  11.510  1.00  0.00     0.164 HD
ENDROOT
BRANCH   1   7
HETATM    7  C   UNL     1     -41.571 -48.875  11.979  1.00  0.00     0.135 C 
BRANCH   7   8
HETATM    8  C   UNL     1     -41.274 -48.056  10.713  1.00  0.00     0.057 C 
HETATM    9  C   UNL     1     -40.617 -46.710  11.020  1.00  0.00     0.018 C 
BRANCH   8  10
HETATM   10  C   UNL     1     -42.536 -47.874   9.907  1.00  0.00     0.056 A 
HETATM   11  N   UNL     1     -42.612 -48.031   8.599  1.00  0.00    -0.362 N 
HETATM   12  C   UNL     1     -43.890 -47.724   8.172  1.00  0.00     0.102 A 
ATOM     13  HN  UNL     1     -41.846 -48.331   7.997  1.00  0.00     0.165 HD
HETATM   14  C   UNL     1     -44.770 -47.320   9.153  1.00  0.00    -0.004 A 
HETATM   15  C   UNL     1     -46.186 -46.886   9.038  1.00  0.00     0.058 C 
HETATM   16  S   UNL     1     -43.987 -47.363  10.675  1.00  0.00    -0.080 SA
ENDBRANCH   8  10
ENDBRANCH   7   8
ENDBRANCH   1   7
BRANCH   4  17
HETATM   17  C   UNL     1     -44.141 -52.727  13.461  1.00  0.00     0.116 C 
HETATM   18  C   UNL     1     -44.224 -54.200  13.116  1.00  0.00     0.054 C 
HETATM   19  C   UNL     1     -45.504 -54.673  13.781  1.00  0.00     0.170 C 
HETATM   20  O   UNL     1     -46.203 -53.529  14.282  1.00  0.00    -0.384 OA
HETATM   21  C   UNL     1     -45.604 -52.345  13.721  1.00  0.00     0.140 C 
HETATM   22  C   UNL     1     -46.406 -51.961  12.481  1.00  0.00     0.041 C 
ENDBRANCH   4  17
TORSDOF 4
ENDMDL
MODEL 2
REMARK VINA RESULT:      -6.1      2.763      6.456
REMARK  4 active torsions:
REMARK  status: ('A' for Active; 'I' for Inactive)
REMARK    1  A    between atoms: C_2  and  C_3 
REMARK    2  A    between atoms: C_2  and  C_14 
REMARK    3  A    between atoms: C_3  and  N_4 
REMARK       I    between atoms: N_4  and  C_5 
REMARK       I    between atoms: C_5  and  N_7 
REMARK    4  A    between atoms: N_7  and  C_8 
ROOT
HETATM    1  N   UNL     1     -41.777 -50.801  11.763  1.00  0.00    -0.342 N 
HETATM    2  C   UNL     1     -41.335 -49.560  11.371  1.00  0.00     0.316 C 
HETATM    3  O   UNL     1     -40.169 -49.202  11.421  1.00  0.00    -0.247 OA
HETATM    4  N   UNL     1     -42.357 -48.788  10.889  1.00  0.00    -0.336 N 
HETATM    5  H   UNL     1     -42.687 -50.786  12.216  1.00  0.00     0.164 HD
HETATM    6  H   UNL     1     -43.111 -49.317  10.473  1.00  0.00     0.164 HD
ENDROOT
BRANCH   1   7
HETATM    7  C   UNL     1     -40.812 -51.725  12.338  1.00  0.00     0.135 C 
BRANCH   7   8
HETATM    8  C   UNL     1     -41.414 -52.812  13.243  1.00  0.00     0.057 C 
HETATM    9  C   UNL     1     -40.918 -54.215  12.891  1.00  0.00     0.018 C 
BRANCH   8  10
HETATM   10  C   UNL     1     -42.920 -52.741  13.205  1.00  0.00     0.056 A 
HETATM   11  N   UNL     1     -43.672 -53.374  12.325  1.00  0.00    -0.362 N 
HETATM   12  C   UNL     1     -44.998 -53.041  12.528  1.00  0.00     0.102 A 
ATOM     13  HN  UNL     1     -43.328 -54.010  11.607  1.00  0.00     0.165 HD
HETATM   14  C   UNL     1     -45.242 -52.144  13.547  1.00  0.00    -0.004 A 
HETATM   15  C   UNL     1     -46.525 -51.551  14.002  1.00  0.00     0.058 C 
HETATM   16  S   UNL     1     -43.766 -51.731  14.310  1.00  0.00    -0.080 SA
ENDBRANCH   8  10
ENDBRANCH   7   8
ENDBRANCH   1   7
BRANCH   4  17
HETATM   17  C   UNL     1     -42.071 -47.463  10.365  1.00  0.00     0.116 C 
HETATM   18  C   UNL     1     -42.142 -46.378  11.420  1.00  0.00     0.054 C 
HETATM   19  C   UNL     1     -42.533 -45.129  10.651  1.00  0.00     0.170 C 
HETATM   20  O   UNL     1     -42.865 -45.507   9.311  1.00  0.00    -0.384 OA
HETATM   21  C   UNL     1     -42.999 -46.940   9.261  1.00  0.00     0.140 C 
HETATM   22  C   UNL     1     -44.476 -47.277   9.439  1.00  0.00     0.041 C 
ENDBRANCH   4  17
TORSDOF 4
ENDMDL
MODEL 3
REMARK VINA RESULT:      -5.9      1.680      1.985
REMARK  4 active torsions:
REMARK  status: ('A' for Active; 'I' for Inactive)
REMARK    1  A    between atoms: C_2  and  C_3 
REMARK    2  A    between atoms: C_2  and  C_14 
REMARK    3  A    between atoms: C_3  and  N_4 
REMARK       I    between atoms: N_4  and  C_5 
REMARK       I    between atoms: C_5  and  N_7 
REMARK    4  A    between atoms: N_7  and  C_8 
ROOT
HETATM    1  N   UNL     1     -41.987 -50.538  12.005  1.00  0.00    -0.342 N 
HETATM    2  C   UNL     1     -42.100 -51.895  12.185  1.00  0.00     0.316 C 
HETATM    3  O   UNL     1     -41.217 -52.697  11.920  1.00  0.00    -0.247 OA
HETATM    4  N   UNL     1     -43.311 -52.234  12.727  1.00  0.00    -0.336 N 
HETATM    5  H   UNL     1     -42.847 -50.093  11.696  1.00  0.00     0.164 HD
HETATM    6  H   UNL     1     -43.717 -51.514  13.307  1.00  0.00     0.164 HD
ENDROOT
BRANCH   1   7
HETATM    7  C   UNL     1     -40.768 -50.024  11.398  1.00  0.00     0.135 C 
BRANCH   7   8
HETATM    8  C   UNL     1     -40.662 -48.491  11.354  1.00  0.00     0.057 C 
HETATM    9  C   UNL     1     -40.707 -47.857  12.744  1.00  0.00     0.018 C 
BRANCH   8  10
HETATM   10  C   UNL     1     -41.736 -47.923  10.462  1.00  0.00     0.056 A 
HETATM   11  N   UNL     1     -42.103 -48.452   9.310  1.00  0.00    -0.362 N 
HETATM   12  C   UNL     1     -43.060 -47.649   8.718  1.00  0.00     0.102 A 
ATOM     13  HN  UNL     1     -41.737 -49.319   8.918  1.00  0.00     0.165 HD
HETATM   14  C   UNL     1     -43.400 -46.508   9.414  1.00  0.00    -0.004 A 
HETATM   15  C   UNL     1     -44.348 -45.424   9.053  1.00  0.00     0.058 C 
HETATM   16  S   UNL     1     -42.524 -46.454  10.884  1.00  0.00    -0.080 SA
ENDBRANCH   8  10
ENDBRANCH   7   8
ENDBRANCH   1   7
BRANCH   4  17
HETATM   17  C   UNL     1     -43.589 -53.623  13.050  1.00  0.00     0.116 C 
HETATM   18  C   UNL     1     -45.053 -53.985  12.910  1.00  0.00     0.054 C 
HETATM   19  C   UNL     1     -45.261 -55.112  13.905  1.00  0.00     0.170 C 
HETATM   20  O   UNL     1     -44.076 -55.240  14.698  1.00  0.00    -0.384 OA
HETATM   21  C   UNL     1     -43.249 -54.083  14.474  1.00  0.00     0.140 C 
HETATM   22  C   UNL     1     -43.555 -53.072  15.574  1.00  0.00     0.041 C 
ENDBRANCH   4  17
TORSDOF 4
ENDMDL
MODEL 4
REMARK VINA RESULT:      -5.7      2.311      2.897
REMARK  4 active torsions:
REMARK  status: ('A' for Active; 'I' for Inactive)
REMARK    1  A    between atoms: C_2  and  C_3 
REMARK    2  A    between atoms: C_2  and  C_14 
REMARK    3  A    between atoms: C_3  and  N_4 
REMARK       I    between atoms: N_4  and  C_5 
REMARK       I    between atoms: C_5  and  N_7 
REMARK    4  A    between atoms: N_7  and  C_8 
ROOT
HETATM    1  N   UNL     1     -42.936 -49.320  11.989  1.00  0.00    -0.342 N 
HETATM    2  C   UNL     1     -43.003 -50.309  12.940  1.00  0.00     0.316 C 
HETATM    3  O   UNL     1     -42.443 -50.255  14.025  1.00  0.00    -0.247 OA
HETATM    4  N   UNL     1     -43.798 -51.348  12.536  1.00  0.00    -0.336 N 
HETATM    5  H   UNL     1     -42.902 -49.671  11.036  1.00  0.00     0.164 HD
HETATM    6  H   UNL     1     -44.532 -51.077  11.896  1.00  0.00     0.164 HD
ENDROOT
BRANCH   1   7
HETATM    7  C   UNL     1     -42.093 -48.164  12.257  1.00  0.00     0.135 C 
BRANCH   7   8
HETATM    8  C   UNL     1     -40.893 -48.005  11.310  1.00  0.00     0.057 C 
HETATM    9  C   UNL     1     -39.633 -48.697  11.831  1.00  0.00     0.018 C 
BRANCH   8  10
HETATM   10  C   UNL     1     -40.638 -46.544  11.039  1.00  0.00     0.056 A 
HETATM   11  N   UNL     1     -39.682 -46.088  10.252  1.00  0.00    -0.362 N 
HETATM   12  C   UNL     1     -39.683 -44.706  10.277  1.00  0.00     0.102 A 
ATOM     13  HN  UNL     1     -39.042 -46.667   9.709  1.00  0.00     0.165 HD
HETATM   14  C   UNL     1     -40.627 -44.122  11.096  1.00  0.00    -0.004 A 
HETATM   15  C   UNL     1     -40.874 -42.686  11.384  1.00  0.00     0.058 C 
HETATM   16  S   UNL     1     -41.578 -45.341  11.832  1.00  0.00    -0.080 SA
ENDBRANCH   8  10
ENDBRANCH   7   8
ENDBRANCH   1   7
BRANCH   4  17
HETATM   17  C   UNL     1     -44.042 -52.459  13.438  1.00  0.00     0.116 C 
HETATM   18  C   UNL     1     -44.334 -53.759  12.716  1.00  0.00     0.054 C 
HETATM   19  C   UNL     1     -45.217 -54.535  13.677  1.00  0.00     0.170 C 
HETATM   20  O   UNL     1     -45.574 -53.671  14.761  1.00  0.00    -0.384 OA
HETATM   21  C   UNL     1     -45.226 -52.321  14.403  1.00  0.00     0.140 C 
HETATM   22  C   UNL     1     -46.469 -51.659  13.816  1.00  0.00     0.041 C 
ENDBRANCH   4  17
TORSDOF 4
ENDMDL
MODEL 5
REMARK VINA RESULT:      -5.5      3.866      7.884
REMARK  4 active torsions:
REMARK  status: ('A' for Active; 'I' for Inactive)
REMARK    1  A    between atoms: C_2  and  C_3 
REMARK    2  A    between atoms: C_2  and  C_14 
REMARK    3  A    between atoms: C_3  and  N_4 
REMARK       I    between atoms: N_4  and  C_5 
REMARK       I    between atoms: C_5  and  N_7 
REMARK    4  A    between atoms: N_7  and  C_8 
ROOT
HETATM    1  N   UNL     1     -41.955 -51.111  11.972  1.00  0.00    -0.342 N 
HETATM    2  C   UNL     1     -41.407 -49.958  11.463  1.00  0.00     0.316 C 
HETATM    3  O   UNL     1     -40.208 -49.774  11.323  1.00  0.00    -0.247 OA
HETATM    4  N   UNL     1     -42.372 -49.055  11.103  1.00  0.00    -0.336 N 
HETATM    5  H   UNL     1     -42.774 -50.953  12.553  1.00  0.00     0.164 HD
HETATM    6  H   UNL     1     -43.247 -49.478  10.828  1.00  0.00     0.164 HD
ENDROOT
BRANCH   1   7
HETATM    7  C   UNL     1     -41.053 -52.153  12.438  1.00  0.00     0.135 C 
BRANCH   7   8
HETATM    8  C   UNL     1     -41.725 -53.501  12.746  1.00  0.00     0.057 C 
HETATM    9  C   UNL     1     -43.237 -53.378  12.936  1.00  0.00     0.018 C 
BRANCH   8  10
HETATM   10  C   UNL     1     -41.076 -54.140  13.948  1.00  0.00     0.056 A 
HETATM   11  N   UNL     1     -41.737 -54.617  14.985  1.00  0.00    -0.362 N 
HETATM   12  C   UNL     1     -40.841 -55.069  15.935  1.00  0.00     0.102 A 
ATOM     13  HN  UNL     1     -42.753 -54.649  15.071  1.00  0.00     0.165 HD
HETATM   14  C   UNL     1     -39.507 -54.915  15.623  1.00  0.00    -0.004 A 
HETATM   15  C   UNL     1     -38.301 -55.250  16.422  1.00  0.00     0.058 C 
HETATM   16  S   UNL     1     -39.362 -54.218  14.066  1.00  0.00    -0.080 SA
ENDBRANCH   8  10
ENDBRANCH   7   8
ENDBRANCH   1   7
BRANCH   4  17
HETATM   17  C   UNL     1     -41.984 -47.800  10.484  1.00  0.00     0.116 C 
HETATM   18  C   UNL     1     -41.831 -46.667  11.479  1.00  0.00     0.054 C 
HETATM   19  C   UNL     1     -42.145 -45.416  10.679  1.00  0.00     0.170 C 
HETATM   20  O   UNL     1     -42.642 -45.812   9.396  1.00  0.00    -0.384 OA
HETATM   21  C   UNL     1     -42.945 -47.219   9.438  1.00  0.00     0.140 C 
HETATM   22  C   UNL     1     -44.428 -47.368   9.763  1.00  0.00     0.041 C 
ENDBRANCH   4  17
TORSDOF 4
ENDMDL
MODEL 6
REMARK VINA RESULT:      -5.5      2.258      2.821
REMARK  4 active torsions:
REMARK  status: ('A' for Active; 'I' for Inactive)
REMARK    1  A    between atoms: C_2  and  C_3 
REMARK    2  A    between atoms: C_2  and  C_14 
REMARK    3  A    between atoms: C_3  and  N_4 
REMARK       I    between atoms: N_4  and  C_5 
REMARK       I    between atoms: C_5  and  N_7 
REMARK    4  A    between atoms: N_7  and  C_8 
ROOT
HETATM    1  N   UNL     1     -42.191 -52.041  11.932  1.00  0.00    -0.342 N 
HETATM    2  C   UNL     1     -42.680 -52.748  13.003  1.00  0.00     0.316 C 
HETATM    3  O   UNL     1     -41.984 -53.383  13.780  1.00  0.00    -0.247 OA
HETATM    4  N   UNL     1     -44.040 -52.626  13.112  1.00  0.00    -0.336 N 
HETATM    5  H   UNL     1     -42.791 -52.074  11.112  1.00  0.00     0.164 HD
HETATM    6  H   UNL     1     -44.404 -51.757  12.746  1.00  0.00     0.164 HD
ENDROOT
BRANCH   1   7
HETATM    7  C   UNL     1     -40.762 -52.107  11.659  1.00  0.00     0.135 C 
BRANCH   7   8
HETATM    8  C   UNL     1     -39.979 -50.828  11.997  1.00  0.00     0.057 C 
HETATM    9  C   UNL     1     -39.537 -50.775  13.460  1.00  0.00     0.018 C 
BRANCH   8  10
HETATM   10  C   UNL     1     -40.791 -49.612  11.630  1.00  0.00     0.056 A 
HETATM   11  N   UNL     1     -41.031 -49.224  10.392  1.00  0.00    -0.362 N 
HETATM   12  C   UNL     1     -41.745 -48.040  10.410  1.00  0.00     0.102 A 
ATOM     13  HN  UNL     1     -40.736 -49.721   9.552  1.00  0.00     0.165 HD
HETATM   14  C   UNL     1     -42.026 -47.528  11.659  1.00  0.00    -0.004 A 
HETATM   15  C   UNL     1     -42.729 -46.275  12.034  1.00  0.00     0.058 C 
HETATM   16  S   UNL     1     -41.413 -48.583  12.860  1.00  0.00    -0.080 SA
ENDBRANCH   8  10
ENDBRANCH   7   8
ENDBRANCH   1   7
BRANCH   4  17
HETATM   17  C   UNL     1     -44.730 -53.251  14.226  1.00  0.00     0.116 C 
HETATM   18  C   UNL     1     -45.520 -54.480  13.823  1.00  0.00     0.054 C 
HETATM   19  C   UNL     1     -46.656 -54.545  14.827  1.00  0.00     0.170 C 
HETATM   20  O   UNL     1     -46.643 -53.343  15.605  1.00  0.00    -0.384 OA
HETATM   21  C   UNL     1     -45.767 -52.396  14.966  1.00  0.00     0.140 C 
HETATM   22  C   UNL     1     -46.621 -51.496  14.078  1.00  0.00     0.041 C 
ENDBRANCH   4  17
TORSDOF 4
ENDMDL
MODEL 7
REMARK VINA RESULT:      -5.4      2.733      6.797
REMARK  4 active torsions:
REMARK  status: ('A' for Active; 'I' for Inactive)
REMARK    1  A    between atoms: C_2  and  C_3 
REMARK    2  A    between atoms: C_2  and  C_14 
REMARK    3  A    between atoms: C_3  and  N_4 
REMARK       I    between atoms: N_4  and  C_5 
REMARK       I    between atoms: C_5  and  N_7 
REMARK    4  A    between atoms: N_7  and  C_8 
ROOT
HETATM    1  N   UNL     1     -41.705 -50.115  12.450  1.00  0.00    -0.342 N 
HETATM    2  C   UNL     1     -42.534 -49.056  12.174  1.00  0.00     0.316 C 
HETATM    3  O   UNL     1     -43.235 -48.499  13.006  1.00  0.00    -0.247 OA
HETATM    4  N   UNL     1     -42.455 -48.680  10.860  1.00  0.00    -0.336 N 
HETATM    5  H   UNL     1     -41.662 -50.806  11.706  1.00  0.00     0.164 HD
HETATM    6  H   UNL     1     -41.560 -48.872  10.432  1.00  0.00     0.164 HD
ENDROOT
BRANCH   1   7
HETATM    7  C   UNL     1     -41.709 -50.657  13.801  1.00  0.00     0.135 C 
BRANCH   7   8
HETATM    8  C   UNL     1     -41.378 -52.155  13.899  1.00  0.00     0.057 C 
HETATM    9  C   UNL     1     -40.212 -52.563  12.997  1.00  0.00     0.018 C 
BRANCH   8  10
HETATM   10  C   UNL     1     -42.607 -52.977  13.604  1.00  0.00     0.056 A 
HETATM   11  N   UNL     1     -43.054 -53.238  12.391  1.00  0.00    -0.362 N 
HETATM   12  C   UNL     1     -44.232 -53.956  12.478  1.00  0.00     0.102 A 
ATOM     13  HN  UNL     1     -42.600 -52.954  11.523  1.00  0.00     0.165 HD
HETATM   14  C   UNL     1     -44.681 -54.219  13.755  1.00  0.00    -0.004 A 
HETATM   15  C   UNL     1     -45.911 -54.921  14.202  1.00  0.00     0.058 C 
HETATM   16  S   UNL     1     -43.571 -53.584  14.893  1.00  0.00    -0.080 SA
ENDBRANCH   8  10
ENDBRANCH   7   8
ENDBRANCH   1   7
BRANCH   4  17
HETATM   17  C   UNL     1     -43.213 -47.532  10.394  1.00  0.00     0.116 C 
HETATM   18  C   UNL     1     -43.446 -47.540   8.897  1.00  0.00     0.054 C 
HETATM   19  C   UNL     1     -43.560 -46.073   8.524  1.00  0.00     0.170 C 
HETATM   20  O   UNL     1     -43.212 -45.286   9.669  1.00  0.00    -0.384 OA
HETATM   21  C   UNL     1     -42.599 -46.149  10.646  1.00  0.00     0.140 C 
HETATM   22  C   UNL     1     -41.087 -46.065  10.459  1.00  0.00     0.041 C 
ENDBRANCH   4  17
TORSDOF 4
ENDMDL
MODEL 8
REMARK VINA RESULT:      -5.2      2.066      2.899
REMARK  4 active torsions:
REMARK  status: ('A' for Active; 'I' for Inactive)
REMARK    1  A    between atoms: C_2  and  C_3 
REMARK    2  A    between atoms: C_2  and  C_14 
REMARK    3  A    between atoms: C_3  and  N_4 
REMARK       I    between atoms: N_4  and  C_5 
REMARK       I    between atoms: C_5  and  N_7 
REMARK    4  A    between atoms: N_7  and  C_8 
ROOT
HETATM    1  N   UNL     1     -41.038 -51.405  13.310  1.00  0.00    -0.342 N 
HETATM    2  C   UNL     1     -42.328 -50.931  13.333  1.00  0.00     0.316 C 
HETATM    3  O   UNL     1     -42.625 -49.749  13.257  1.00  0.00    -0.247 OA
HETATM    4  N   UNL     1     -43.239 -51.949  13.420  1.00  0.00    -0.336 N 
HETATM    5  H   UNL     1     -40.884 -52.201  13.923  1.00  0.00     0.164 HD
HETATM    6  H   UNL     1     -42.924 -52.818  13.012  1.00  0.00     0.164 HD
ENDROOT
BRANCH   1   7
HETATM    7  C   UNL     1     -39.952 -50.438  13.261  1.00  0.00     0.135 C 
BRANCH   7   8
HETATM    8  C   UNL     1     -39.495 -50.048  11.846  1.00  0.00     0.057 C 
HETATM    9  C   UNL     1     -37.999 -49.742  11.772  1.00  0.00     0.018 C 
BRANCH   8  10
HETATM   10  C   UNL     1     -40.313 -48.888  11.339  1.00  0.00     0.056 A 
HETATM   11  N   UNL     1     -41.307 -48.998  10.479  1.00  0.00    -0.362 N 
HETATM   12  C   UNL     1     -41.797 -47.741  10.177  1.00  0.00     0.102 A 
ATOM     13  HN  UNL     1     -41.660 -49.875  10.097  1.00  0.00     0.165 HD
HETATM   14  C   UNL     1     -41.161 -46.685  10.794  1.00  0.00    -0.004 A 
HETATM   15  C   UNL     1     -41.402 -45.226  10.664  1.00  0.00     0.058 C 
HETATM   16  S   UNL     1     -39.931 -47.283  11.824  1.00  0.00    -0.080 SA
ENDBRANCH   8  10
ENDBRANCH   7   8
ENDBRANCH   1   7
BRANCH   4  17
HETATM   17  C   UNL     1     -44.660 -51.646  13.391  1.00  0.00     0.116 C 
HETATM   18  C   UNL     1     -45.212 -51.252  14.746  1.00  0.00     0.054 C 
HETATM   19  C   UNL     1     -46.670 -51.672  14.696  1.00  0.00     0.170 C 
HETATM   20  O   UNL     1     -46.882 -52.431  13.501  1.00  0.00    -0.384 OA
HETATM   21  C   UNL     1     -45.599 -52.773  12.944  1.00  0.00     0.140 C 
HETATM   22  C   UNL     1     -45.229 -54.165  13.446  1.00  0.00     0.041 C 
ENDBRANCH   4  17
TORSDOF 4
ENDMDL
MODEL 9
REMARK VINA RESULT:      -5.1      3.418      4.676
REMARK  4 active torsions:
REMARK  status: ('A' for Active; 'I' for Inactive)
REMARK    1  A    between atoms: C_2  and  C_3 
REMARK    2  A    between atoms: C_2  and  C_14 
REMARK    3  A    between atoms: C_3  and  N_4 
REMARK       I    between atoms: N_4  and  C_5 
REMARK       I    between atoms: C_5  and  N_7 
REMARK    4  A    between atoms: N_7  and  C_8 
ROOT
HETATM    1  N   UNL     1     -39.893 -51.850  14.158  1.00  0.00    -0.342 N 
HETATM    2  C   UNL     1     -40.821 -52.227  13.217  1.00  0.00     0.316 C 
HETATM    3  O   UNL     1     -40.539 -52.587  12.084  1.00  0.00    -0.247 OA
HETATM    4  N   UNL     1     -42.095 -52.180  13.715  1.00  0.00    -0.336 N 
HETATM    5  H   UNL     1     -40.200 -51.084  14.751  1.00  0.00     0.164 HD
HETATM    6  H   UNL     1     -42.152 -52.335  14.712  1.00  0.00     0.164 HD
ENDROOT
BRANCH   1   7
HETATM    7  C   UNL     1     -38.493 -51.809  13.765  1.00  0.00     0.135 C 
BRANCH   7   8
HETATM    8  C   UNL     1     -37.739 -50.536  14.183  1.00  0.00     0.057 C 
HETATM    9  C   UNL     1     -37.521 -50.447  15.693  1.00  0.00     0.018 C 
BRANCH   8  10
HETATM   10  C   UNL     1     -38.458 -49.316  13.664  1.00  0.00     0.056 A 
HETATM   11  N   UNL     1     -38.969 -48.372  14.431  1.00  0.00    -0.362 N 
HETATM   12  C   UNL     1     -39.614 -47.437  13.643  1.00  0.00     0.102 A 
ATOM     13  HN  UNL     1     -38.899 -48.337  15.447  1.00  0.00     0.165 HD
HETATM   14  C   UNL     1     -39.604 -47.686  12.287  1.00  0.00    -0.004 A 
HETATM   15  C   UNL     1     -40.226 -46.920  11.177  1.00  0.00     0.058 C 
HETATM   16  S   UNL     1     -38.722 -49.120  11.976  1.00  0.00    -0.080 SA
ENDBRANCH   8  10
ENDBRANCH   7   8
ENDBRANCH   1   7
BRANCH   4  17
HETATM   17  C   UNL     1     -43.207 -52.607  12.884  1.00  0.00     0.116 C 
HETATM   18  C   UNL     1     -44.485 -51.841  13.160  1.00  0.00     0.054 C 
HETATM   19  C   UNL     1     -45.594 -52.815  12.804  1.00  0.00     0.170 C 
HETATM   20  O   UNL     1     -45.007 -54.096  12.551  1.00  0.00    -0.384 OA
HETATM   21  C   UNL     1     -43.643 -54.073  13.012  1.00  0.00     0.140 C 
HETATM   22  C   UNL     1     -43.619 -54.637  14.429  1.00  0.00     0.041 C 
ENDBRANCH   4  17
TORSDOF 4
ENDMDL
