MODEL 1
REMARK VINA RESULT:      -4.9      0.000      0.000
REMARK  3 active torsions:
REMARK  status: ('A' for Active; 'I' for Inactive)
REMARK    1  A    between atoms: O_3  and  C_4 
REMARK    2  A    between atoms: C_4  and  C_6 
REMARK    3  A    between atoms: C_6  and  C_9 
ROOT
HETATM    1  C   UNL     2     -44.182 -54.173  14.438  1.00  0.00     0.074 A 
HETATM    2  C   UNL     2     -44.023 -54.327  15.954  1.00  0.00     0.027 A 
HETATM    3  C   UNL     2     -44.535 -53.017  15.391  1.00  0.00     0.027 A 
ENDROOT
BRANCH   1   4
HETATM    4  C   UNL     2     -45.447 -54.658  13.746  1.00  0.00     0.153 C 
HETATM    5  O   UNL     2     -45.798 -55.824  13.856  1.00  0.00    -0.649 OA
BRANCH   4   6
HETATM    6  O   UNL     2     -46.183 -53.837  12.963  1.00  0.00    -0.776 OA
HETATM    7  H   UNL     2     -46.941 -53.333  13.291  1.00  0.00     0.167 HD
ENDBRANCH   4   6
ENDBRANCH   1   4
BRANCH   1   8
HETATM    8  C   UNL     2     -43.031 -53.704  13.575  1.00  0.00    -0.024 A 
HETATM    9  C   UNL     2     -41.727 -54.156  13.819  1.00  0.00     0.011 A 
HETATM   10  C   UNL     2     -40.677 -53.728  13.003  1.00  0.00     0.018 A 
HETATM   11  C   UNL     2     -40.939 -52.847  11.949  1.00  0.00     0.087 A 
HETATM   12  N   UNL     2     -42.208 -52.417  11.723  1.00  0.00    -0.375 N 
HETATM   13  C   UNL     2     -43.246 -52.821  12.500  1.00  0.00     0.096 A 
ATOM     14  HN  UNL     2     -42.384 -51.775  10.951  1.00  0.00     0.164 HD
ENDBRANCH   1   8
TORSDOF 3
ENDMDL
MODEL 2
REMARK VINA RESULT:      -4.7      1.888      2.483
REMARK  3 active torsions:
REMARK  status: ('A' for Active; 'I' for Inactive)
REMARK    1  A    between atoms: O_3  and  C_4 
REMARK    2  A    between atoms: C_4  and  C_6 
REMARK    3  A    between atoms: C_6  and  C_9 
ROOT
HETATM    1  C   UNL     2     -45.501 -52.529  13.974  1.00  0.00     0.074 A 
HETATM    2  C   UNL     2     -46.532 -51.503  14.456  1.00  0.00     0.027 A 
HETATM    3  C   UNL     2     -46.640 -52.059  13.051  1.00  0.00     0.027 A 
ENDROOT
BRANCH   1   4
HETATM    4  C   UNL     2     -45.685 -54.006  14.286  1.00  0.00     0.153 C 
HETATM    5  O   UNL     2     -45.710 -54.390  15.446  1.00  0.00    -0.649 OA
BRANCH   4   6
HETATM    6  O   UNL     2     -45.779 -54.930  13.303  1.00  0.00    -0.776 OA
HETATM    7  H   UNL     2     -45.177 -54.961  12.547  1.00  0.00     0.167 HD
ENDBRANCH   4   6
ENDBRANCH   1   4
BRANCH   1   8
HETATM    8  C   UNL     2     -44.201 -52.090  13.337  1.00  0.00    -0.024 A 
HETATM    9  C   UNL     2     -43.609 -50.871  13.694  1.00  0.00     0.011 A 
HETATM   10  C   UNL     2     -42.399 -50.487  13.111  1.00  0.00     0.018 A 
HETATM   11  C   UNL     2     -41.791 -51.324  12.171  1.00  0.00     0.087 A 
HETATM   12  N   UNL     2     -42.376 -52.503  11.834  1.00  0.00    -0.375 N 
HETATM   13  C   UNL     2     -43.550 -52.901  12.389  1.00  0.00     0.096 A 
ATOM     14  HN  UNL     2     -41.922 -53.104  11.146  1.00  0.00     0.164 HD
ENDBRANCH   1   8
TORSDOF 3
ENDMDL
MODEL 3
REMARK VINA RESULT:      -4.5      3.013      4.265
REMARK  3 active torsions:
REMARK  status: ('A' for Active; 'I' for Inactive)
REMARK    1  A    between atoms: O_3  and  C_4 
REMARK    2  A    between atoms: C_4  and  C_6 
REMARK    3  A    between atoms: C_6  and  C_9 
ROOT
HETATM    1  C   UNL     2     -41.836 -52.866  13.465  1.00  0.00     0.074 A 
HETATM    2  C   UNL     2     -41.294 -53.397  14.796  1.00  0.00     0.027 A 
HETATM    3  C   UNL     2     -41.808 -54.376  13.761  1.00  0.00     0.027 A 
ENDROOT
BRANCH   1   4
HETATM    4  C   UNL     2     -40.886 -52.561  12.317  1.00  0.00     0.153 C 
HETATM    5  O   UNL     2     -39.750 -52.172  12.547  1.00  0.00    -0.649 OA
BRANCH   4   6
HETATM    6  O   UNL     2     -41.279 -52.665  11.027  1.00  0.00    -0.776 OA
HETATM    7  H   UNL     2     -42.072 -53.147  10.753  1.00  0.00     0.167 HD
ENDBRANCH   4   6
ENDBRANCH   1   4
BRANCH   1   8
HETATM    8  C   UNL     2     -43.288 -52.468  13.316  1.00  0.00    -0.024 A 
HETATM    9  C   UNL     2     -43.838 -51.463  14.123  1.00  0.00     0.011 A 
HETATM   10  C   UNL     2     -45.176 -51.094  13.962  1.00  0.00     0.018 A 
HETATM   11  C   UNL     2     -45.956 -51.735  12.995  1.00  0.00     0.087 A 
HETATM   12  N   UNL     2     -45.409 -52.707  12.219  1.00  0.00    -0.375 N 
HETATM   13  C   UNL     2     -44.111 -53.082  12.353  1.00  0.00     0.096 A 
ATOM     14  HN  UNL     2     -45.990 -53.167  11.517  1.00  0.00     0.164 HD
ENDBRANCH   1   8
TORSDOF 3
ENDMDL
MODEL 4
REMARK VINA RESULT:      -4.5      3.418      5.293
REMARK  3 active torsions:
REMARK  status: ('A' for Active; 'I' for Inactive)
REMARK    1  A    between atoms: O_3  and  C_4 
REMARK    2  A    between atoms: C_4  and  C_6 
REMARK    3  A    between atoms: C_6  and  C_9 
ROOT
HETATM    1  C   UNL     2     -46.141 -52.191  14.110  1.00  0.00     0.074 A 
HETATM    2  C   UNL     2     -46.588 -51.559  12.788  1.00  0.00     0.027 A 
HETATM    3  C   UNL     2     -45.186 -51.299  13.297  1.00  0.00     0.027 A 
ENDROOT
BRANCH   1   4
HETATM    4  C   UNL     2     -45.600 -53.613  14.136  1.00  0.00     0.153 C 
HETATM    5  O   UNL     2     -44.994 -54.020  15.116  1.00  0.00    -0.649 OA
BRANCH   4   6
HETATM    6  O   UNL     2     -45.731 -54.439  13.074  1.00  0.00    -0.776 OA
HETATM    7  H   UNL     2     -45.357 -55.330  13.047  1.00  0.00     0.167 HD
ENDBRANCH   4   6
ENDBRANCH   1   4
BRANCH   1   8
HETATM    8  C   UNL     2     -46.386 -51.496  15.431  1.00  0.00    -0.024 A 
HETATM    9  C   UNL     2     -47.652 -51.531  16.030  1.00  0.00     0.011 A 
HETATM   10  C   UNL     2     -47.859 -50.899  17.259  1.00  0.00     0.018 A 
HETATM   11  C   UNL     2     -46.797 -50.234  17.879  1.00  0.00     0.087 A 
HETATM   12  N   UNL     2     -45.574 -50.209  17.287  1.00  0.00    -0.375 N 
HETATM   13  C   UNL     2     -45.346 -50.818  16.094  1.00  0.00     0.096 A 
ATOM     14  HN  UNL     2     -44.808 -49.720  17.750  1.00  0.00     0.164 HD
ENDBRANCH   1   8
TORSDOF 3
ENDMDL
MODEL 5
REMARK VINA RESULT:      -4.4      2.952      4.193
REMARK  3 active torsions:
REMARK  status: ('A' for Active; 'I' for Inactive)
REMARK    1  A    between atoms: O_3  and  C_4 
REMARK    2  A    between atoms: C_4  and  C_6 
REMARK    3  A    between atoms: C_6  and  C_9 
ROOT
HETATM    1  C   UNL     2     -42.520 -52.054  12.785  1.00  0.00     0.074 A 
HETATM    2  C   UNL     2     -42.765 -50.547  12.914  1.00  0.00     0.027 A 
HETATM    3  C   UNL     2     -42.101 -51.290  14.054  1.00  0.00     0.027 A 
ENDROOT
BRANCH   1   4
HETATM    4  C   UNL     2     -41.277 -52.571  12.077  1.00  0.00     0.153 C 
HETATM    5  O   UNL     2     -40.280 -52.862  12.722  1.00  0.00    -0.649 OA
BRANCH   4   6
HETATM    6  O   UNL     2     -41.224 -52.678  10.730  1.00  0.00    -0.776 OA
HETATM    7  H   UNL     2     -40.421 -52.923  10.251  1.00  0.00     0.167 HD
ENDBRANCH   4   6
ENDBRANCH   1   4
BRANCH   1   8
HETATM    8  C   UNL     2     -43.576 -53.055  13.197  1.00  0.00    -0.024 A 
HETATM    9  C   UNL     2     -43.228 -54.194  13.936  1.00  0.00     0.011 A 
HETATM   10  C   UNL     2     -44.217 -55.101  14.324  1.00  0.00     0.018 A 
HETATM   11  C   UNL     2     -45.548 -54.864  13.968  1.00  0.00     0.087 A 
HETATM   12  N   UNL     2     -45.871 -53.756  13.251  1.00  0.00    -0.375 N 
HETATM   13  C   UNL     2     -44.929 -52.857  12.864  1.00  0.00     0.096 A 
ATOM     14  HN  UNL     2     -46.846 -53.595  12.997  1.00  0.00     0.164 HD
ENDBRANCH   1   8
TORSDOF 3
ENDMDL
MODEL 6
REMARK VINA RESULT:      -4.4      3.348      4.495
REMARK  3 active torsions:
REMARK  status: ('A' for Active; 'I' for Inactive)
REMARK    1  A    between atoms: O_3  and  C_4 
REMARK    2  A    between atoms: C_4  and  C_6 
REMARK    3  A    between atoms: C_6  and  C_9 
ROOT
HETATM    1  C   UNL     2     -40.568 -54.040  14.902  1.00  0.00     0.074 A 
HETATM    2  C   UNL     2     -40.402 -53.867  16.416  1.00  0.00     0.027 A 
HETATM    3  C   UNL     2     -40.376 -55.260  15.821  1.00  0.00     0.027 A 
ENDROOT
BRANCH   1   4
HETATM    4  C   UNL     2     -39.365 -53.912  13.979  1.00  0.00     0.153 C 
HETATM    5  O   UNL     2     -38.854 -52.818  13.787  1.00  0.00    -0.649 OA
BRANCH   4   6
HETATM    6  O   UNL     2     -38.864 -54.980  13.319  1.00  0.00    -0.776 OA
HETATM    7  H   UNL     2     -38.319 -54.902  12.524  1.00  0.00     0.167 HD
ENDBRANCH   4   6
ENDBRANCH   1   4
BRANCH   1   8
HETATM    8  C   UNL     2     -41.939 -54.165  14.275  1.00  0.00    -0.024 A 
HETATM    9  C   UNL     2     -43.002 -54.729  14.995  1.00  0.00     0.011 A 
HETATM   10  C   UNL     2     -44.267 -54.822  14.409  1.00  0.00     0.018 A 
HETATM   11  C   UNL     2     -44.460 -54.352  13.107  1.00  0.00     0.087 A 
HETATM   12  N   UNL     2     -43.421 -53.808  12.421  1.00  0.00    -0.375 N 
HETATM   13  C   UNL     2     -42.182 -53.702  12.969  1.00  0.00     0.096 A 
ATOM     14  HN  UNL     2     -43.575 -53.469  11.472  1.00  0.00     0.164 HD
ENDBRANCH   1   8
TORSDOF 3
ENDMDL
MODEL 7
REMARK VINA RESULT:      -4.3      2.880      4.384
REMARK  3 active torsions:
REMARK  status: ('A' for Active; 'I' for Inactive)
REMARK    1  A    between atoms: O_3  and  C_4 
REMARK    2  A    between atoms: C_4  and  C_6 
REMARK    3  A    between atoms: C_6  and  C_9 
ROOT
HETATM    1  C   UNL     2     -41.645 -52.990  13.378  1.00  0.00     0.074 A 
HETATM    2  C   UNL     2     -40.411 -53.140  14.275  1.00  0.00     0.027 A 
HETATM    3  C   UNL     2     -40.708 -54.204  13.238  1.00  0.00     0.027 A 
ENDROOT
BRANCH   1   4
HETATM    4  C   UNL     2     -41.574 -52.153  12.109  1.00  0.00     0.153 C 
HETATM    5  O   UNL     2     -41.832 -50.959  12.148  1.00  0.00    -0.649 OA
BRANCH   4   6
HETATM    6  O   UNL     2     -41.274 -52.706  10.913  1.00  0.00    -0.776 OA
HETATM    7  H   UNL     2     -41.536 -52.315  10.069  1.00  0.00     0.167 HD
ENDBRANCH   4   6
ENDBRANCH   1   4
BRANCH   1   8
HETATM    8  C   UNL     2     -42.995 -53.517  13.812  1.00  0.00    -0.024 A 
HETATM    9  C   UNL     2     -43.933 -53.940  12.860  1.00  0.00     0.011 A 
HETATM   10  C   UNL     2     -45.170 -54.441  13.277  1.00  0.00     0.018 A 
HETATM   11  C   UNL     2     -45.460 -54.512  14.642  1.00  0.00     0.087 A 
HETATM   12  N   UNL     2     -44.540 -54.099  15.553  1.00  0.00    -0.375 N 
HETATM   13  C   UNL     2     -43.330 -53.611  15.175  1.00  0.00     0.096 A 
ATOM     14  HN  UNL     2     -44.765 -54.156  16.547  1.00  0.00     0.164 HD
ENDBRANCH   1   8
TORSDOF 3
ENDMDL
MODEL 8
REMARK VINA RESULT:      -4.3      9.708     10.875
REMARK  3 active torsions:
REMARK  status: ('A' for Active; 'I' for Inactive)
REMARK    1  A    between atoms: O_3  and  C_4 
REMARK    2  A    between atoms: C_4  and  C_6 
REMARK    3  A    between atoms: C_6  and  C_9 
ROOT
HETATM    1  C   UNL     2     -51.543 -57.425  20.932  1.00  0.00     0.074 A 
HETATM    2  C   UNL     2     -52.036 -56.311  21.861  1.00  0.00     0.027 A 
HETATM    3  C   UNL     2     -51.728 -55.988  20.413  1.00  0.00     0.027 A 
ENDROOT
BRANCH   1   4
HETATM    4  C   UNL     2     -52.538 -58.342  20.237  1.00  0.00     0.153 C 
HETATM    5  O   UNL     2     -53.736 -58.216  20.446  1.00  0.00    -0.649 OA
BRANCH   4   6
HETATM    6  O   UNL     2     -52.131 -59.336  19.418  1.00  0.00    -0.776 OA
HETATM    7  H   UNL     2     -52.035 -60.254  19.706  1.00  0.00     0.167 HD
ENDBRANCH   4   6
ENDBRANCH   1   4
BRANCH   1   8
HETATM    8  C   UNL     2     -50.070 -57.753  20.818  1.00  0.00    -0.024 A 
HETATM    9  C   UNL     2     -49.261 -57.805  21.962  1.00  0.00     0.011 A 
HETATM   10  C   UNL     2     -47.907 -58.126  21.844  1.00  0.00     0.018 A 
HETATM   11  C   UNL     2     -47.370 -58.392  20.581  1.00  0.00     0.087 A 
HETATM   12  N   UNL     2     -48.165 -58.339  19.481  1.00  0.00    -0.375 N 
HETATM   13  C   UNL     2     -49.486 -58.032  19.569  1.00  0.00     0.096 A 
ATOM     14  HN  UNL     2     -47.761 -58.535  18.565  1.00  0.00     0.164 HD
ENDBRANCH   1   8
TORSDOF 3
ENDMDL
MODEL 9
REMARK VINA RESULT:      -4.3      1.585      2.208
REMARK  3 active torsions:
REMARK  status: ('A' for Active; 'I' for Inactive)
REMARK    1  A    between atoms: O_3  and  C_4 
REMARK    2  A    between atoms: C_4  and  C_6 
REMARK    3  A    between atoms: C_6  and  C_9 
ROOT
HETATM    1  C   UNL     2     -44.511 -53.893  14.403  1.00  0.00     0.074 A 
HETATM    2  C   UNL     2     -45.914 -53.808  13.792  1.00  0.00     0.027 A 
HETATM    3  C   UNL     2     -45.192 -55.140  13.810  1.00  0.00     0.027 A 
ENDROOT
BRANCH   1   4
HETATM    4  C   UNL     2     -44.338 -54.081  15.903  1.00  0.00     0.153 C 
HETATM    5  O   UNL     2     -44.715 -53.213  16.677  1.00  0.00    -0.649 OA
BRANCH   4   6
HETATM    6  O   UNL     2     -43.730 -55.175  16.413  1.00  0.00    -0.776 OA
HETATM    7  H   UNL     2     -43.262 -55.175  17.258  1.00  0.00     0.167 HD
ENDBRANCH   4   6
ENDBRANCH   1   4
BRANCH   1   8
HETATM    8  C   UNL     2     -43.278 -53.620  13.571  1.00  0.00    -0.024 A 
HETATM    9  C   UNL     2     -42.072 -54.278  13.847  1.00  0.00     0.011 A 
HETATM   10  C   UNL     2     -40.946 -54.028  13.058  1.00  0.00     0.018 A 
HETATM   11  C   UNL     2     -41.034 -53.120  11.999  1.00  0.00     0.087 A 
HETATM   12  N   UNL     2     -42.210 -52.490  11.742  1.00  0.00    -0.375 N 
HETATM   13  C   UNL     2     -43.320 -52.717  12.492  1.00  0.00     0.096 A 
ATOM     14  HN  UNL     2     -42.260 -51.830  10.966  1.00  0.00     0.164 HD
ENDBRANCH   1   8
TORSDOF 3
ENDMDL
