MODEL 1
REMARK VINA RESULT:      -6.9      0.000      0.000
REMARK  4 active torsions:
REMARK  status: ('A' for Active; 'I' for Inactive)
REMARK    1  A    between atoms: C_6  and  N_7 
REMARK       I    between atoms: N_7  and  C_8 
REMARK       I    between atoms: C_8  and  N_10 
REMARK    2  A    between atoms: N_10  and  C_11 
REMARK    3  A    between atoms: N_15  and  C_16 
REMARK    4  A    between atoms: C_16  and  C_17 
ROOT
HETATM    1  N   UNL     1     -40.407 -49.153  11.115  1.00  0.00    -0.295 N 
HETATM    2  C   UNL     1     -40.503 -50.272  11.889  1.00  0.00     0.322 C 
HETATM    3  O   UNL     1     -39.513 -50.982  12.053  1.00  0.00    -0.247 OA
HETATM    4  N   UNL     1     -41.704 -50.516  12.474  1.00  0.00    -0.330 N 
HETATM    5  H   UNL     1     -39.464 -48.951  10.819  1.00  0.00     0.172 HD
HETATM    6  H   UNL     1     -42.474 -49.929  12.161  1.00  0.00     0.165 HD
ENDROOT
BRANCH   4   7
HETATM    7  C   UNL     1     -41.975 -51.683  13.299  1.00  0.00     0.178 C 
HETATM    8  C   UNL     1     -42.289 -52.885  12.403  1.00  0.00     0.037 C 
HETATM    9  C   UNL     1     -43.774 -53.191  12.300  1.00  0.00     0.022 C 
HETATM   10  C   UNL     1     -44.343 -53.292  13.699  1.00  0.00     0.126 C 
HETATM   11  N   UNL     1     -44.239 -52.009  14.372  1.00  0.00    -0.342 N 
HETATM   12  C   UNL     1     -43.041 -51.305  14.370  1.00  0.00     0.242 C 
HETATM   13  O   UNL     1     -42.867 -50.360  15.142  1.00  0.00    -0.271 OA
BRANCH  11  14
HETATM   14  C   UNL     1     -45.293 -51.646  15.341  1.00  0.00     0.243 C 
BRANCH  14  15
HETATM   15  C   UNL     1     -46.738 -51.649  14.823  1.00  0.00     0.403 C 
HETATM   16  F   UNL     1     -47.586 -50.968  15.626  1.00  0.00    -0.169 F 
HETATM   17  F   UNL     1     -46.832 -51.123  13.583  1.00  0.00    -0.169 F 
HETATM   18  F   UNL     1     -47.203 -52.923  14.754  1.00  0.00    -0.169 F 
ENDBRANCH  14  15
ENDBRANCH  11  14
ENDBRANCH   4   7
BRANCH   1  19
HETATM   19  C   UNL     1     -41.432 -48.292  10.718  1.00  0.00     0.109 A 
HETATM   20  C   UNL     1     -41.818 -47.276  11.579  1.00  0.00     0.049 A 
HETATM   21  C   UNL     1     -42.864 -46.441  11.195  1.00  0.00     0.006 A 
HETATM   22  C   UNL     1     -43.470 -46.626   9.954  1.00  0.00     0.025 A 
HETATM   23  C   UNL     1     -43.004 -47.642   9.134  1.00  0.00     0.007 A 
HETATM   24  C   UNL     1     -43.601 -47.912   7.789  1.00  0.00     0.068 C 
HETATM   25  N   UNL     1     -42.011 -48.477   9.512  1.00  0.00    -0.346 N 
ATOM     26  HN  UNL     1     -41.706 -49.233   8.898  1.00  0.00     0.167 HD
ENDBRANCH   1  19
TORSDOF 4
ENDMDL
MODEL 2
REMARK VINA RESULT:      -6.9      2.267      3.081
REMARK  4 active torsions:
REMARK  status: ('A' for Active; 'I' for Inactive)
REMARK    1  A    between atoms: C_6  and  N_7 
REMARK       I    between atoms: N_7  and  C_8 
REMARK       I    between atoms: C_8  and  N_10 
REMARK    2  A    between atoms: N_10  and  C_11 
REMARK    3  A    between atoms: N_15  and  C_16 
REMARK    4  A    between atoms: C_16  and  C_17 
ROOT
HETATM    1  N   UNL     1     -43.102 -47.250  11.832  1.00  0.00    -0.295 N 
HETATM    2  C   UNL     1     -42.748 -48.194  12.751  1.00  0.00     0.322 C 
HETATM    3  O   UNL     1     -42.202 -47.848  13.797  1.00  0.00    -0.247 OA
HETATM    4  N   UNL     1     -43.064 -49.483  12.463  1.00  0.00    -0.330 N 
HETATM    5  H   UNL     1     -42.965 -46.305  12.157  1.00  0.00     0.172 HD
HETATM    6  H   UNL     1     -43.397 -49.654  11.518  1.00  0.00     0.165 HD
ENDROOT
BRANCH   4   7
HETATM    7  C   UNL     1     -42.726 -50.606  13.324  1.00  0.00     0.178 C 
HETATM    8  C   UNL     1     -41.327 -51.121  12.972  1.00  0.00     0.037 C 
HETATM    9  C   UNL     1     -41.342 -52.380  12.121  1.00  0.00     0.022 C 
HETATM   10  C   UNL     1     -42.232 -53.403  12.791  1.00  0.00     0.126 C 
HETATM   11  N   UNL     1     -43.603 -52.923  12.829  1.00  0.00    -0.342 N 
HETATM   12  C   UNL     1     -43.890 -51.641  13.281  1.00  0.00     0.242 C 
HETATM   13  O   UNL     1     -45.045 -51.318  13.560  1.00  0.00    -0.271 OA
BRANCH  11  14
HETATM   14  C   UNL     1     -44.689 -53.917  12.727  1.00  0.00     0.243 C 
BRANCH  14  15
HETATM   15  C   UNL     1     -44.954 -54.783  13.968  1.00  0.00     0.403 C 
HETATM   16  F   UNL     1     -43.833 -55.361  14.454  1.00  0.00    -0.169 F 
HETATM   17  F   UNL     1     -45.521 -54.074  14.967  1.00  0.00    -0.169 F 
HETATM   18  F   UNL     1     -45.810 -55.790  13.656  1.00  0.00    -0.169 F 
ENDBRANCH  14  15
ENDBRANCH  11  14
ENDBRANCH   4   7
BRANCH   1  19
HETATM   19  C   UNL     1     -43.618 -47.449  10.551  1.00  0.00     0.109 A 
HETATM   20  C   UNL     1     -42.735 -47.668   9.504  1.00  0.00     0.049 A 
HETATM   21  C   UNL     1     -43.252 -47.831   8.222  1.00  0.00     0.006 A 
HETATM   22  C   UNL     1     -44.631 -47.804   8.028  1.00  0.00     0.025 A 
HETATM   23  C   UNL     1     -45.451 -47.617   9.131  1.00  0.00     0.007 A 
HETATM   24  C   UNL     1     -46.942 -47.570   9.011  1.00  0.00     0.068 C 
HETATM   25  N   UNL     1     -44.958 -47.425  10.374  1.00  0.00    -0.346 N 
ATOM     26  HN  UNL     1     -45.584 -47.264  11.162  1.00  0.00     0.167 HD
ENDBRANCH   1  19
TORSDOF 4
ENDMDL
MODEL 3
REMARK VINA RESULT:      -6.8      3.156      6.315
REMARK  4 active torsions:
REMARK  status: ('A' for Active; 'I' for Inactive)
REMARK    1  A    between atoms: C_6  and  N_7 
REMARK       I    between atoms: N_7  and  C_8 
REMARK       I    between atoms: C_8  and  N_10 
REMARK    2  A    between atoms: N_10  and  C_11 
REMARK    3  A    between atoms: N_15  and  C_16 
REMARK    4  A    between atoms: C_16  and  C_17 
ROOT
HETATM    1  N   UNL     1     -42.795 -51.642  13.325  1.00  0.00    -0.295 N 
HETATM    2  C   UNL     1     -41.924 -50.612  13.127  1.00  0.00     0.322 C 
HETATM    3  O   UNL     1     -40.718 -50.841  13.061  1.00  0.00    -0.247 OA
HETATM    4  N   UNL     1     -42.459 -49.373  12.972  1.00  0.00    -0.330 N 
HETATM    5  H   UNL     1     -42.354 -52.549  13.299  1.00  0.00     0.172 HD
HETATM    6  H   UNL     1     -43.453 -49.294  13.172  1.00  0.00     0.165 HD
ENDROOT
BRANCH   4   7
HETATM    7  C   UNL     1     -41.663 -48.170  12.786  1.00  0.00     0.178 C 
HETATM    8  C   UNL     1     -41.975 -47.169  13.903  1.00  0.00     0.037 C 
HETATM    9  C   UNL     1     -42.913 -46.054  13.470  1.00  0.00     0.022 C 
HETATM   10  C   UNL     1     -42.366 -45.427  12.206  1.00  0.00     0.126 C 
HETATM   11  N   UNL     1     -42.367 -46.399  11.127  1.00  0.00    -0.342 N 
HETATM   12  C   UNL     1     -41.842 -47.671  11.321  1.00  0.00     0.242 C 
HETATM   13  O   UNL     1     -41.603 -48.404  10.360  1.00  0.00    -0.271 OA
BRANCH  11  14
HETATM   14  C   UNL     1     -42.598 -45.910   9.753  1.00  0.00     0.243 C 
BRANCH  14  15
HETATM   15  C   UNL     1     -43.954 -46.246   9.118  1.00  0.00     0.403 C 
HETATM   16  F   UNL     1     -44.711 -47.054   9.892  1.00  0.00    -0.169 F 
HETATM   17  F   UNL     1     -44.675 -45.136   8.850  1.00  0.00    -0.169 F 
HETATM   18  F   UNL     1     -43.766 -46.895   7.940  1.00  0.00    -0.169 F 
ENDBRANCH  14  15
ENDBRANCH  11  14
ENDBRANCH   4   7
BRANCH   1  19
HETATM   19  C   UNL     1     -44.172 -51.573  13.542  1.00  0.00     0.109 A 
HETATM   20  C   UNL     1     -44.634 -51.403  14.839  1.00  0.00     0.049 A 
HETATM   21  C   UNL     1     -46.009 -51.370  15.056  1.00  0.00     0.006 A 
HETATM   22  C   UNL     1     -46.878 -51.475  13.973  1.00  0.00     0.025 A 
HETATM   23  C   UNL     1     -46.340 -51.606  12.701  1.00  0.00     0.007 A 
HETATM   24  C   UNL     1     -47.201 -51.730  11.484  1.00  0.00     0.068 C 
HETATM   25  N   UNL     1     -45.007 -51.672  12.485  1.00  0.00    -0.346 N 
ATOM     26  HN  UNL     1     -44.640 -51.795  11.541  1.00  0.00     0.167 HD
ENDBRANCH   1  19
TORSDOF 4
ENDMDL
MODEL 4
REMARK VINA RESULT:      -6.7      4.298      6.537
REMARK  4 active torsions:
REMARK  status: ('A' for Active; 'I' for Inactive)
REMARK    1  A    between atoms: C_6  and  N_7 
REMARK       I    between atoms: N_7  and  C_8 
REMARK       I    between atoms: C_8  and  N_10 
REMARK    2  A    between atoms: N_10  and  C_11 
REMARK    3  A    between atoms: N_15  and  C_16 
REMARK    4  A    between atoms: C_16  and  C_17 
ROOT
HETATM    1  N   UNL     1     -42.892 -53.076  12.505  1.00  0.00    -0.295 N 
HETATM    2  C   UNL     1     -41.759 -52.431  12.105  1.00  0.00     0.322 C 
HETATM    3  O   UNL     1     -40.744 -53.080  11.865  1.00  0.00    -0.247 OA
HETATM    4  N   UNL     1     -41.837 -51.082  11.958  1.00  0.00    -0.330 N 
HETATM    5  H   UNL     1     -42.814 -54.081  12.468  1.00  0.00     0.172 HD
HETATM    6  H   UNL     1     -42.688 -50.649  12.308  1.00  0.00     0.165 HD
ENDROOT
BRANCH   4   7
HETATM    7  C   UNL     1     -40.710 -50.248  11.571  1.00  0.00     0.178 C 
HETATM    8  C   UNL     1     -39.556 -50.454  12.557  1.00  0.00     0.037 C 
HETATM    9  C   UNL     1     -39.430 -49.337  13.581  1.00  0.00     0.022 C 
HETATM   10  C   UNL     1     -39.396 -48.013  12.849  1.00  0.00     0.126 C 
HETATM   11  N   UNL     1     -40.656 -47.793  12.160  1.00  0.00    -0.342 N 
HETATM   12  C   UNL     1     -41.211 -48.788  11.366  1.00  0.00     0.242 C 
HETATM   13  O   UNL     1     -42.127 -48.529  10.583  1.00  0.00    -0.271 OA
BRANCH  11  14
HETATM   14  C   UNL     1     -41.141 -46.404  12.030  1.00  0.00     0.243 C 
BRANCH  14  15
HETATM   15  C   UNL     1     -40.259 -45.436  11.229  1.00  0.00     0.403 C 
HETATM   16  F   UNL     1     -39.524 -46.057  10.280  1.00  0.00    -0.169 F 
HETATM   17  F   UNL     1     -40.987 -44.472  10.624  1.00  0.00    -0.169 F 
HETATM   18  F   UNL     1     -39.382 -44.814  12.059  1.00  0.00    -0.169 F 
ENDBRANCH  14  15
ENDBRANCH  11  14
ENDBRANCH   4   7
BRANCH   1  19
HETATM   19  C   UNL     1     -44.096 -52.513  12.932  1.00  0.00     0.109 A 
HETATM   20  C   UNL     1     -44.204 -52.096  14.251  1.00  0.00     0.049 A 
HETATM   21  C   UNL     1     -45.418 -51.568  14.682  1.00  0.00     0.006 A 
HETATM   22  C   UNL     1     -46.473 -51.443  13.781  1.00  0.00     0.025 A 
HETATM   23  C   UNL     1     -46.275 -51.849  12.470  1.00  0.00     0.007 A 
HETATM   24  C   UNL     1     -47.355 -51.754  11.439  1.00  0.00     0.068 C 
HETATM   25  N   UNL     1     -45.112 -52.393  12.050  1.00  0.00    -0.346 N 
ATOM     26  HN  UNL     1     -45.004 -52.707  11.085  1.00  0.00     0.167 HD
ENDBRANCH   1  19
TORSDOF 4
ENDMDL
MODEL 5
REMARK VINA RESULT:      -6.5      3.012      6.140
REMARK  4 active torsions:
REMARK  status: ('A' for Active; 'I' for Inactive)
REMARK    1  A    between atoms: C_6  and  N_7 
REMARK       I    between atoms: N_7  and  C_8 
REMARK       I    between atoms: C_8  and  N_10 
REMARK    2  A    between atoms: N_10  and  C_11 
REMARK    3  A    between atoms: N_15  and  C_16 
REMARK    4  A    between atoms: C_16  and  C_17 
ROOT
HETATM    1  N   UNL     1     -42.153 -53.565  12.504  1.00  0.00    -0.295 N 
HETATM    2  C   UNL     1     -41.259 -52.539  12.584  1.00  0.00     0.322 C 
HETATM    3  O   UNL     1     -40.092 -52.721  12.243  1.00  0.00    -0.247 OA
HETATM    4  N   UNL     1     -41.735 -51.339  13.009  1.00  0.00    -0.330 N 
HETATM    5  H   UNL     1     -41.777 -54.388  12.058  1.00  0.00     0.172 HD
HETATM    6  H   UNL     1     -42.681 -51.347  13.380  1.00  0.00     0.165 HD
ENDROOT
BRANCH   4   7
HETATM    7  C   UNL     1     -40.903 -50.158  13.180  1.00  0.00     0.178 C 
HETATM    8  C   UNL     1     -41.297 -49.433  14.470  1.00  0.00     0.037 C 
HETATM    9  C   UNL     1     -42.172 -48.212  14.234  1.00  0.00     0.022 C 
HETATM   10  C   UNL     1     -41.499 -47.330  13.204  1.00  0.00     0.126 C 
HETATM   11  N   UNL     1     -41.419 -48.024  11.931  1.00  0.00    -0.342 N 
HETATM   12  C   UNL     1     -40.937 -49.325  11.864  1.00  0.00     0.242 C 
HETATM   13  O   UNL     1     -40.624 -49.823  10.781  1.00  0.00    -0.271 OA
BRANCH  11  14
HETATM   14  C   UNL     1     -41.513 -47.219  10.696  1.00  0.00     0.243 C 
BRANCH  14  15
HETATM   15  C   UNL     1     -42.854 -47.253   9.949  1.00  0.00     0.403 C 
HETATM   16  F   UNL     1     -43.864 -47.739  10.704  1.00  0.00    -0.169 F 
HETATM   17  F   UNL     1     -43.218 -46.030   9.509  1.00  0.00    -0.169 F 
HETATM   18  F   UNL     1     -42.757 -48.058   8.860  1.00  0.00    -0.169 F 
ENDBRANCH  14  15
ENDBRANCH  11  14
ENDBRANCH   4   7
BRANCH   1  19
HETATM   19  C   UNL     1     -43.476 -53.589  12.947  1.00  0.00     0.109 A 
HETATM   20  C   UNL     1     -43.800 -54.390  14.032  1.00  0.00     0.049 A 
HETATM   21  C   UNL     1     -45.127 -54.439  14.449  1.00  0.00     0.006 A 
HETATM   22  C   UNL     1     -46.082 -53.665  13.794  1.00  0.00     0.025 A 
HETATM   23  C   UNL     1     -45.674 -52.861  12.740  1.00  0.00     0.007 A 
HETATM   24  C   UNL     1     -46.635 -52.003  11.979  1.00  0.00     0.068 C 
HETATM   25  N   UNL     1     -44.395 -52.833  12.307  1.00  0.00    -0.346 N 
ATOM     26  HN  UNL     1     -44.128 -52.252  11.512  1.00  0.00     0.167 HD
ENDBRANCH   1  19
TORSDOF 4
ENDMDL
MODEL 6
REMARK VINA RESULT:      -6.5      5.080      7.140
REMARK  4 active torsions:
REMARK  status: ('A' for Active; 'I' for Inactive)
REMARK    1  A    between atoms: C_6  and  N_7 
REMARK       I    between atoms: N_7  and  C_8 
REMARK       I    between atoms: C_8  and  N_10 
REMARK    2  A    between atoms: N_10  and  C_11 
REMARK    3  A    between atoms: N_15  and  C_16 
REMARK    4  A    between atoms: C_16  and  C_17 
ROOT
HETATM    1  N   UNL     1     -44.147 -54.587  14.608  1.00  0.00    -0.295 N 
HETATM    2  C   UNL     1     -42.800 -54.480  14.792  1.00  0.00     0.322 C 
HETATM    3  O   UNL     1     -42.166 -55.445  15.214  1.00  0.00    -0.247 OA
HETATM    4  N   UNL     1     -42.223 -53.298  14.452  1.00  0.00    -0.330 N 
HETATM    5  H   UNL     1     -44.496 -55.523  14.749  1.00  0.00     0.172 HD
HETATM    6  H   UNL     1     -42.866 -52.541  14.235  1.00  0.00     0.165 HD
ENDROOT
BRANCH   4   7
HETATM    7  C   UNL     1     -40.806 -53.016  14.618  1.00  0.00     0.178 C 
HETATM    8  C   UNL     1     -40.590 -52.208  15.902  1.00  0.00     0.037 C 
HETATM    9  C   UNL     1     -40.379 -50.723  15.652  1.00  0.00     0.022 C 
HETATM   10  C   UNL     1     -39.285 -50.558  14.620  1.00  0.00     0.126 C 
HETATM   11  N   UNL     1     -39.707 -51.127  13.352  1.00  0.00    -0.342 N 
HETATM   12  C   UNL     1     -40.257 -52.401  13.297  1.00  0.00     0.242 C 
HETATM   13  O   UNL     1     -40.375 -52.987  12.219  1.00  0.00    -0.271 OA
BRANCH  11  14
HETATM   14  C   UNL     1     -39.220 -50.491  12.111  1.00  0.00     0.243 C 
BRANCH  14  15
HETATM   15  C   UNL     1     -37.702 -50.307  11.977  1.00  0.00     0.403 C 
HETATM   16  F   UNL     1     -36.999 -51.306  12.554  1.00  0.00    -0.169 F 
HETATM   17  F   UNL     1     -37.316 -50.221  10.686  1.00  0.00    -0.169 F 
HETATM   18  F   UNL     1     -37.320 -49.155  12.587  1.00  0.00    -0.169 F 
ENDBRANCH  14  15
ENDBRANCH  11  14
ENDBRANCH   4   7
BRANCH   1  19
HETATM   19  C   UNL     1     -45.048 -53.583  14.252  1.00  0.00     0.109 A 
HETATM   20  C   UNL     1     -45.229 -53.297  12.907  1.00  0.00     0.049 A 
HETATM   21  C   UNL     1     -46.102 -52.270  12.558  1.00  0.00     0.006 A 
HETATM   22  C   UNL     1     -46.791 -51.584  13.555  1.00  0.00     0.025 A 
HETATM   23  C   UNL     1     -46.584 -51.953  14.876  1.00  0.00     0.007 A 
HETATM   24  C   UNL     1     -47.278 -51.265  16.009  1.00  0.00     0.068 C 
HETATM   25  N   UNL     1     -45.713 -52.925  15.227  1.00  0.00    -0.346 N 
ATOM     26  HN  UNL     1     -45.562 -53.157  16.209  1.00  0.00     0.167 HD
ENDBRANCH   1  19
TORSDOF 4
ENDMDL
MODEL 7
REMARK VINA RESULT:      -6.0      4.129      5.676
REMARK  4 active torsions:
REMARK  status: ('A' for Active; 'I' for Inactive)
REMARK    1  A    between atoms: C_6  and  N_7 
REMARK       I    between atoms: N_7  and  C_8 
REMARK       I    between atoms: C_8  and  N_10 
REMARK    2  A    between atoms: N_10  and  C_11 
REMARK    3  A    between atoms: N_15  and  C_16 
REMARK    4  A    between atoms: C_16  and  C_17 
ROOT
HETATM    1  N   UNL     1     -43.503 -52.913  11.941  1.00  0.00    -0.295 N 
HETATM    2  C   UNL     1     -44.720 -52.906  12.556  1.00  0.00     0.322 C 
HETATM    3  O   UNL     1     -45.737 -53.093  11.892  1.00  0.00    -0.247 OA
HETATM    4  N   UNL     1     -44.728 -52.725  13.903  1.00  0.00    -0.330 N 
HETATM    5  H   UNL     1     -43.548 -53.183  10.970  1.00  0.00     0.172 HD
HETATM    6  H   UNL     1     -43.839 -52.456  14.316  1.00  0.00     0.165 HD
ENDROOT
BRANCH   4   7
HETATM    7  C   UNL     1     -45.944 -52.660  14.698  1.00  0.00     0.178 C 
HETATM    8  C   UNL     1     -46.255 -51.200  15.044  1.00  0.00     0.037 C 
HETATM    9  C   UNL     1     -45.862 -50.818  16.462  1.00  0.00     0.022 C 
HETATM   10  C   UNL     1     -46.463 -51.826  17.416  1.00  0.00     0.126 C 
HETATM   11  N   UNL     1     -45.893 -53.140  17.178  1.00  0.00    -0.342 N 
HETATM   12  C   UNL     1     -45.819 -53.656  15.890  1.00  0.00     0.242 C 
HETATM   13  O   UNL     1     -45.583 -54.851  15.705  1.00  0.00    -0.271 OA
BRANCH  11  14
HETATM   14  C   UNL     1     -45.730 -54.046  18.333  1.00  0.00     0.243 C 
BRANCH  14  15
HETATM   15  C   UNL     1     -44.308 -54.206  18.891  1.00  0.00     0.403 C 
HETATM   16  F   UNL     1     -44.290 -54.451  20.220  1.00  0.00    -0.169 F 
HETATM   17  F   UNL     1     -43.634 -55.201  18.277  1.00  0.00    -0.169 F 
HETATM   18  F   UNL     1     -43.602 -53.063  18.694  1.00  0.00    -0.169 F 
ENDBRANCH  14  15
ENDBRANCH  11  14
ENDBRANCH   4   7
BRANCH   1  19
HETATM   19  C   UNL     1     -42.258 -52.609  12.494  1.00  0.00     0.109 A 
HETATM   20  C   UNL     1     -41.864 -51.280  12.553  1.00  0.00     0.049 A 
HETATM   21  C   UNL     1     -40.607 -50.983  13.073  1.00  0.00     0.006 A 
HETATM   22  C   UNL     1     -39.797 -52.013  13.546  1.00  0.00     0.025 A 
HETATM   23  C   UNL     1     -40.277 -53.314  13.486  1.00  0.00     0.007 A 
HETATM   24  C   UNL     1     -39.472 -54.479  13.966  1.00  0.00     0.068 C 
HETATM   25  N   UNL     1     -41.482 -53.615  12.952  1.00  0.00    -0.346 N 
ATOM     26  HN  UNL     1     -41.798 -54.583  12.897  1.00  0.00     0.167 HD
ENDBRANCH   1  19
TORSDOF 4
ENDMDL
MODEL 8
REMARK VINA RESULT:      -5.9      1.540      2.313
REMARK  4 active torsions:
REMARK  status: ('A' for Active; 'I' for Inactive)
REMARK    1  A    between atoms: C_6  and  N_7 
REMARK       I    between atoms: N_7  and  C_8 
REMARK       I    between atoms: C_8  and  N_10 
REMARK    2  A    between atoms: N_10  and  C_11 
REMARK    3  A    between atoms: N_15  and  C_16 
REMARK    4  A    between atoms: C_16  and  C_17 
ROOT
HETATM    1  N   UNL     1     -39.405 -51.099  12.855  1.00  0.00    -0.295 N 
HETATM    2  C   UNL     1     -40.040 -52.219  13.305  1.00  0.00     0.322 C 
HETATM    3  O   UNL     1     -39.449 -53.296  13.296  1.00  0.00    -0.247 OA
HETATM    4  N   UNL     1     -41.302 -52.061  13.783  1.00  0.00    -0.330 N 
HETATM    5  H   UNL     1     -38.431 -51.252  12.639  1.00  0.00     0.172 HD
HETATM    6  H   UNL     1     -41.723 -51.150  13.621  1.00  0.00     0.165 HD
ENDROOT
BRANCH   4   7
HETATM    7  C   UNL     1     -42.122 -53.160  14.268  1.00  0.00     0.178 C 
HETATM    8  C   UNL     1     -42.635 -53.981  13.082  1.00  0.00     0.037 C 
HETATM    9  C   UNL     1     -44.080 -53.679  12.718  1.00  0.00     0.022 C 
HETATM   10  C   UNL     1     -44.925 -53.794  13.967  1.00  0.00     0.126 C 
HETATM   11  N   UNL     1     -44.530 -52.782  14.931  1.00  0.00    -0.342 N 
HETATM   12  C   UNL     1     -43.190 -52.595  15.251  1.00  0.00     0.242 C 
HETATM   13  O   UNL     1     -42.867 -51.934  16.238  1.00  0.00    -0.271 OA
BRANCH  11  14
HETATM   14  C   UNL     1     -45.572 -52.217  15.812  1.00  0.00     0.243 C 
BRANCH  14  15
HETATM   15  C   UNL     1     -46.889 -51.797  15.144  1.00  0.00     0.403 C 
HETATM   16  F   UNL     1     -46.700 -51.108  13.997  1.00  0.00    -0.169 F 
HETATM   17  F   UNL     1     -47.675 -52.859  14.864  1.00  0.00    -0.169 F 
HETATM   18  F   UNL     1     -47.592 -50.986  15.976  1.00  0.00    -0.169 F 
ENDBRANCH  14  15
ENDBRANCH  11  14
ENDBRANCH   4   7
BRANCH   1  19
HETATM   19  C   UNL     1     -39.937 -49.821  12.678  1.00  0.00     0.109 A 
HETATM   20  C   UNL     1     -39.691 -48.858  13.645  1.00  0.00     0.049 A 
HETATM   21  C   UNL     1     -40.253 -47.595  13.483  1.00  0.00     0.006 A 
HETATM   22  C   UNL     1     -41.015 -47.322  12.350  1.00  0.00     0.025 A 
HETATM   23  C   UNL     1     -41.186 -48.326  11.409  1.00  0.00     0.007 A 
HETATM   24  C   UNL     1     -41.992 -48.120  10.166  1.00  0.00     0.068 C 
HETATM   25  N   UNL     1     -40.672 -49.565  11.573  1.00  0.00    -0.346 N 
ATOM     26  HN  UNL     1     -40.836 -50.292  10.877  1.00  0.00     0.167 HD
ENDBRANCH   1  19
TORSDOF 4
ENDMDL
MODEL 9
REMARK VINA RESULT:      -5.8      4.513      7.252
REMARK  4 active torsions:
REMARK  status: ('A' for Active; 'I' for Inactive)
REMARK    1  A    between atoms: C_6  and  N_7 
REMARK       I    between atoms: N_7  and  C_8 
REMARK       I    between atoms: C_8  and  N_10 
REMARK    2  A    between atoms: N_10  and  C_11 
REMARK    3  A    between atoms: N_15  and  C_16 
REMARK    4  A    between atoms: C_16  and  C_17 
ROOT
HETATM    1  N   UNL     1     -45.978 -53.592  13.763  1.00  0.00    -0.295 N 
HETATM    2  C   UNL     1     -44.735 -53.803  13.242  1.00  0.00     0.322 C 
HETATM    3  O   UNL     1     -44.615 -54.436  12.196  1.00  0.00    -0.247 OA
HETATM    4  N   UNL     1     -43.687 -53.253  13.909  1.00  0.00    -0.330 N 
HETATM    5  H   UNL     1     -46.722 -53.906  13.159  1.00  0.00     0.172 HD
HETATM    6  H   UNL     1     -43.902 -52.863  14.823  1.00  0.00     0.165 HD
ENDROOT
BRANCH   4   7
HETATM    7  C   UNL     1     -42.300 -53.414  13.501  1.00  0.00     0.178 C 
HETATM    8  C   UNL     1     -41.539 -54.207  14.568  1.00  0.00     0.037 C 
HETATM    9  C   UNL     1     -40.684 -53.335  15.474  1.00  0.00     0.022 C 
HETATM   10  C   UNL     1     -39.808 -52.455  14.609  1.00  0.00     0.126 C 
HETATM   11  N   UNL     1     -40.631 -51.546  13.830  1.00  0.00    -0.342 N 
HETATM   12  C   UNL     1     -41.724 -52.019  13.114  1.00  0.00     0.242 C 
HETATM   13  O   UNL     1     -42.265 -51.317  12.258  1.00  0.00    -0.271 OA
BRANCH  11  14
HETATM   14  C   UNL     1     -40.088 -50.207  13.526  1.00  0.00     0.243 C 
BRANCH  14  15
HETATM   15  C   UNL     1     -39.080 -50.115  12.372  1.00  0.00     0.403 C 
HETATM   16  F   UNL     1     -38.241 -51.174  12.321  1.00  0.00    -0.169 F 
HETATM   17  F   UNL     1     -39.692 -50.015  11.173  1.00  0.00    -0.169 F 
HETATM   18  F   UNL     1     -38.306 -49.009  12.520  1.00  0.00    -0.169 F 
ENDBRANCH  14  15
ENDBRANCH  11  14
ENDBRANCH   4   7
BRANCH   1  19
HETATM   19  C   UNL     1     -46.310 -53.006  14.985  1.00  0.00     0.109 A 
HETATM   20  C   UNL     1     -46.908 -51.754  14.982  1.00  0.00     0.049 A 
HETATM   21  C   UNL     1     -47.205 -51.157  16.204  1.00  0.00     0.006 A 
HETATM   22  C   UNL     1     -46.928 -51.838  17.387  1.00  0.00     0.025 A 
HETATM   23  C   UNL     1     -46.362 -53.102  17.307  1.00  0.00     0.007 A 
HETATM   24  C   UNL     1     -46.028 -53.899  18.528  1.00  0.00     0.068 C 
HETATM   25  N   UNL     1     -46.040 -53.675  16.127  1.00  0.00    -0.346 N 
ATOM     26  HN  UNL     1     -45.601 -54.596  16.100  1.00  0.00     0.167 HD
ENDBRANCH   1  19
TORSDOF 4
ENDMDL
