MODEL 1
REMARK VINA RESULT:      -5.9      0.000      0.000
REMARK  6 active torsions:
REMARK  status: ('A' for Active; 'I' for Inactive)
REMARK    1  A    between atoms: C_2  and  C_3 
REMARK    2  A    between atoms: C_3  and  C_4 
REMARK    3  A    between atoms: C_3  and  N_16 
REMARK    4  A    between atoms: C_4  and  N_5 
REMARK       I    between atoms: N_5  and  C_6 
REMARK    5  A    between atoms: C_6  and  C_8 
REMARK    6  A    between atoms: C_8  and  N_9 
ROOT
HETATM    1  N   UNL     1     -42.559 -52.655  11.874  1.00  0.00    -0.358 N 
HETATM    2  C   UNL     1     -42.928 -53.573  12.830  1.00  0.00     0.235 C 
HETATM    3  O   UNL     1     -42.185 -53.945  13.738  1.00  0.00    -0.272 OA
HETATM    4  H   UNL     1     -43.252 -52.305  11.218  1.00  0.00     0.162 HD
ENDROOT
BRANCH   1   5
HETATM    5  C   UNL     1     -41.225 -52.076  11.805  1.00  0.00     0.158 C 
BRANCH   5   6
HETATM    6  C   UNL     1     -41.099 -50.769  12.644  1.00  0.00     0.240 C 
BRANCH   6   7
HETATM    7  C   UNL     1     -41.989 -49.639  12.059  1.00  0.00     0.033 C 
HETATM    8  C   UNL     1     -43.204 -49.292  12.910  1.00  0.00     0.007 C 
ENDBRANCH   6   7
BRANCH   6   9
HETATM    9  N   UNL     1     -39.680 -50.378  12.821  1.00  0.00     0.094 N 
HETATM   10  C   UNL     1     -39.054 -49.745  11.656  1.00  0.00     0.273 C 
HETATM   11  C   UNL     1     -37.604 -50.216  11.645  1.00  0.00     0.032 C 
HETATM   12  C   UNL     1     -37.403 -50.879  12.992  1.00  0.00     0.032 C 
HETATM   13  C   UNL     1     -38.781 -51.418  13.322  1.00  0.00     0.273 C 
ENDBRANCH   6   9
ENDBRANCH   5   6
ENDBRANCH   1   5
BRANCH   2  14
HETATM   14  C   UNL     1     -44.364 -54.084  12.710  1.00  0.00     0.234 C 
BRANCH  14  15
HETATM   15  N   UNL     1     -45.305 -53.298  13.499  1.00  0.00    -0.316 N 
HETATM   16  C   UNL     1     -45.849 -52.140  12.968  1.00  0.00     0.095 A 
HETATM   17  C   UNL     1     -46.650 -51.353  13.699  1.00  0.00     0.017 A 
HETATM   18  C   UNL     1     -46.941 -51.698  15.067  1.00  0.00     0.007 A 
HETATM   19  C   UNL     1     -46.473 -52.837  15.595  1.00  0.00     0.074 A 
HETATM   20  C   UNL     1     -45.623 -53.749  14.776  1.00  0.00     0.247 A 
HETATM   21  O   UNL     1     -45.233 -54.808  15.258  1.00  0.00    -0.268 OA
ENDBRANCH  14  15
ENDBRANCH   2  14
TORSDOF 6
ENDMDL
MODEL 2
REMARK VINA RESULT:      -5.8      1.068      1.435
REMARK  6 active torsions:
REMARK  status: ('A' for Active; 'I' for Inactive)
REMARK    1  A    between atoms: C_2  and  C_3 
REMARK    2  A    between atoms: C_3  and  C_4 
REMARK    3  A    between atoms: C_3  and  N_16 
REMARK    4  A    between atoms: C_4  and  N_5 
REMARK       I    between atoms: N_5  and  C_6 
REMARK    5  A    between atoms: C_6  and  C_8 
REMARK    6  A    between atoms: C_8  and  N_9 
ROOT
HETATM    1  N   UNL     1     -42.567 -52.533  12.104  1.00  0.00    -0.358 N 
HETATM    2  C   UNL     1     -42.774 -53.667  12.856  1.00  0.00     0.235 C 
HETATM    3  O   UNL     1     -41.871 -54.283  13.420  1.00  0.00    -0.272 OA
HETATM    4  H   UNL     1     -43.364 -52.006  11.757  1.00  0.00     0.162 HD
ENDROOT
BRANCH   1   5
HETATM    5  C   UNL     1     -41.244 -51.983  11.849  1.00  0.00     0.158 C 
BRANCH   5   6
HETATM    6  C   UNL     1     -41.027 -50.605  12.544  1.00  0.00     0.240 C 
BRANCH   6   7
HETATM    7  C   UNL     1     -41.792 -49.476  11.801  1.00  0.00     0.033 C 
HETATM    8  C   UNL     1     -43.013 -48.951  12.545  1.00  0.00     0.007 C 
ENDBRANCH   6   7
BRANCH   6   9
HETATM    9  N   UNL     1     -39.585 -50.320  12.737  1.00  0.00     0.094 N 
HETATM   10  C   UNL     1     -38.910 -49.698  11.593  1.00  0.00     0.273 C 
HETATM   11  C   UNL     1     -37.497 -50.270  11.572  1.00  0.00     0.032 C 
HETATM   12  C   UNL     1     -37.350 -50.985  12.900  1.00  0.00     0.032 C 
HETATM   13  C   UNL     1     -38.764 -51.435  13.209  1.00  0.00     0.273 C 
ENDBRANCH   6   9
ENDBRANCH   5   6
ENDBRANCH   1   5
BRANCH   2  14
HETATM   14  C   UNL     1     -44.237 -54.099  12.977  1.00  0.00     0.234 C 
BRANCH  14  15
HETATM   15  N   UNL     1     -45.055 -53.111  13.670  1.00  0.00    -0.316 N 
HETATM   16  C   UNL     1     -44.822 -52.840  15.008  1.00  0.00     0.095 A 
HETATM   17  C   UNL     1     -45.611 -52.000  15.692  1.00  0.00     0.017 A 
HETATM   18  C   UNL     1     -46.735 -51.378  15.039  1.00  0.00     0.007 A 
HETATM   19  C   UNL     1     -46.958 -51.579  13.733  1.00  0.00     0.074 A 
HETATM   20  C   UNL     1     -46.057 -52.470  12.947  1.00  0.00     0.247 A 
HETATM   21  O   UNL     1     -46.248 -52.615  11.743  1.00  0.00    -0.268 OA
ENDBRANCH  14  15
ENDBRANCH   2  14
TORSDOF 6
ENDMDL
MODEL 3
REMARK VINA RESULT:      -5.7      1.458      2.933
REMARK  6 active torsions:
REMARK  status: ('A' for Active; 'I' for Inactive)
REMARK    1  A    between atoms: C_2  and  C_3 
REMARK    2  A    between atoms: C_3  and  C_4 
REMARK    3  A    between atoms: C_3  and  N_16 
REMARK    4  A    between atoms: C_4  and  N_5 
REMARK       I    between atoms: N_5  and  C_6 
REMARK    5  A    between atoms: C_6  and  C_8 
REMARK    6  A    between atoms: C_8  and  N_9 
ROOT
HETATM    1  N   UNL     1     -42.045 -51.848  11.831  1.00  0.00    -0.358 N 
HETATM    2  C   UNL     1     -42.620 -52.763  12.681  1.00  0.00     0.235 C 
HETATM    3  O   UNL     1     -42.113 -53.113  13.747  1.00  0.00    -0.272 OA
HETATM    4  H   UNL     1     -42.564 -51.517  11.022  1.00  0.00     0.162 HD
ENDROOT
BRANCH   1   5
HETATM    5  C   UNL     1     -40.743 -51.245  12.078  1.00  0.00     0.158 C 
BRANCH   5   6
HETATM    6  C   UNL     1     -40.574 -49.875  11.354  1.00  0.00     0.240 C 
BRANCH   6   7
HETATM    7  C   UNL     1     -39.259 -49.171  11.788  1.00  0.00     0.033 C 
HETATM    8  C   UNL     1     -38.032 -50.073  11.778  1.00  0.00     0.007 C 
ENDBRANCH   6   7
BRANCH   6   9
HETATM    9  N   UNL     1     -41.782 -49.030  11.511  1.00  0.00     0.094 N 
HETATM   10  C   UNL     1     -42.053 -48.112  10.400  1.00  0.00     0.273 C 
HETATM   11  C   UNL     1     -42.639 -46.852  11.024  1.00  0.00     0.032 C 
HETATM   12  C   UNL     1     -42.941 -47.236  12.459  1.00  0.00     0.032 C 
HETATM   13  C   UNL     1     -41.890 -48.285  12.764  1.00  0.00     0.273 C 
ENDBRANCH   6   9
ENDBRANCH   5   6
ENDBRANCH   1   5
BRANCH   2  14
HETATM   14  C   UNL     1     -43.977 -53.302  12.224  1.00  0.00     0.234 C 
BRANCH  14  15
HETATM   15  N   UNL     1     -45.050 -52.976  13.156  1.00  0.00    -0.316 N 
HETATM   16  C   UNL     1     -45.437 -51.657  13.325  1.00  0.00     0.095 A 
HETATM   17  C   UNL     1     -46.361 -51.318  14.233  1.00  0.00     0.017 A 
HETATM   18  C   UNL     1     -46.954 -52.332  15.068  1.00  0.00     0.007 A 
HETATM   19  C   UNL     1     -46.639 -53.623  14.896  1.00  0.00     0.074 A 
HETATM   20  C   UNL     1     -45.651 -54.020  13.852  1.00  0.00     0.247 A 
HETATM   21  O   UNL     1     -45.400 -55.209  13.677  1.00  0.00    -0.268 OA
ENDBRANCH  14  15
ENDBRANCH   2  14
TORSDOF 6
ENDMDL
MODEL 4
REMARK VINA RESULT:      -5.4      2.390      6.862
REMARK  6 active torsions:
REMARK  status: ('A' for Active; 'I' for Inactive)
REMARK    1  A    between atoms: C_2  and  C_3 
REMARK    2  A    between atoms: C_3  and  C_4 
REMARK    3  A    between atoms: C_3  and  N_16 
REMARK    4  A    between atoms: C_4  and  N_5 
REMARK       I    between atoms: N_5  and  C_6 
REMARK    5  A    between atoms: C_6  and  C_8 
REMARK    6  A    between atoms: C_8  and  N_9 
ROOT
HETATM    1  N   UNL     1     -42.127 -51.517  11.972  1.00  0.00    -0.358 N 
HETATM    2  C   UNL     1     -40.757 -51.406  12.025  1.00  0.00     0.235 C 
HETATM    3  O   UNL     1     -40.015 -52.320  12.383  1.00  0.00    -0.272 OA
HETATM    4  H   UNL     1     -42.677 -50.766  11.563  1.00  0.00     0.162 HD
ENDROOT
BRANCH   1   5
HETATM    5  C   UNL     1     -42.842 -52.712  12.395  1.00  0.00     0.158 C 
BRANCH   5   6
HETATM    6  C   UNL     1     -43.260 -52.656  13.896  1.00  0.00     0.240 C 
BRANCH   6   7
HETATM    7  C   UNL     1     -42.624 -53.824  14.698  1.00  0.00     0.033 C 
HETATM    8  C   UNL     1     -43.474 -55.088  14.747  1.00  0.00     0.007 C 
ENDBRANCH   6   7
BRANCH   6   9
HETATM    9  N   UNL     1     -44.732 -52.565  14.042  1.00  0.00     0.094 N 
HETATM   10  C   UNL     1     -45.486 -52.523  12.784  1.00  0.00     0.273 C 
HETATM   11  C   UNL     1     -46.675 -51.602  13.033  1.00  0.00     0.032 C 
HETATM   12  C   UNL     1     -46.692 -51.392  14.534  1.00  0.00     0.032 C 
HETATM   13  C   UNL     1     -45.230 -51.504  14.916  1.00  0.00     0.273 C 
ENDBRANCH   6   9
ENDBRANCH   5   6
ENDBRANCH   1   5
BRANCH   2  14
HETATM   14  C   UNL     1     -40.202 -50.057  11.566  1.00  0.00     0.234 C 
BRANCH  14  15
HETATM   15  N   UNL     1     -39.623 -49.289  12.661  1.00  0.00    -0.316 N 
HETATM   16  C   UNL     1     -40.451 -48.610  13.540  1.00  0.00     0.095 A 
HETATM   17  C   UNL     1     -39.946 -47.829  14.503  1.00  0.00     0.017 A 
HETATM   18  C   UNL     1     -38.519 -47.669  14.626  1.00  0.00     0.007 A 
HETATM   19  C   UNL     1     -37.689 -48.352  13.824  1.00  0.00     0.074 A 
HETATM   20  C   UNL     1     -38.236 -49.265  12.781  1.00  0.00     0.247 A 
HETATM   21  O   UNL     1     -37.466 -49.915  12.080  1.00  0.00    -0.268 OA
ENDBRANCH  14  15
ENDBRANCH   2  14
TORSDOF 6
ENDMDL
MODEL 5
REMARK VINA RESULT:      -5.4      2.041      2.674
REMARK  6 active torsions:
REMARK  status: ('A' for Active; 'I' for Inactive)
REMARK    1  A    between atoms: C_2  and  C_3 
REMARK    2  A    between atoms: C_3  and  C_4 
REMARK    3  A    between atoms: C_3  and  N_16 
REMARK    4  A    between atoms: C_4  and  N_5 
REMARK       I    between atoms: N_5  and  C_6 
REMARK    5  A    between atoms: C_6  and  C_8 
REMARK    6  A    between atoms: C_8  and  N_9 
ROOT
HETATM    1  N   UNL     1     -42.762 -54.257  13.793  1.00  0.00    -0.358 N 
HETATM    2  C   UNL     1     -43.653 -55.076  14.447  1.00  0.00     0.235 C 
HETATM    3  O   UNL     1     -43.333 -55.835  15.362  1.00  0.00    -0.272 OA
HETATM    4  H   UNL     1     -43.105 -53.573  13.124  1.00  0.00     0.162 HD
ENDROOT
BRANCH   1   5
HETATM    5  C   UNL     1     -41.335 -54.253  14.077  1.00  0.00     0.158 C 
BRANCH   5   6
HETATM    6  C   UNL     1     -40.878 -52.960  14.816  1.00  0.00     0.240 C 
BRANCH   6   7
HETATM    7  C   UNL     1     -42.016 -51.904  14.853  1.00  0.00     0.033 C 
HETATM    8  C   UNL     1     -42.636 -51.697  16.229  1.00  0.00     0.007 C 
ENDBRANCH   6   7
BRANCH   6   9
HETATM    9  N   UNL     1     -39.604 -52.444  14.261  1.00  0.00     0.094 N 
HETATM   10  C   UNL     1     -38.741 -51.743  15.218  1.00  0.00     0.273 C 
HETATM   11  C   UNL     1     -38.067 -50.620  14.438  1.00  0.00     0.032 C 
HETATM   12  C   UNL     1     -38.371 -50.923  12.985  1.00  0.00     0.032 C 
HETATM   13  C   UNL     1     -39.710 -51.630  13.050  1.00  0.00     0.273 C 
ENDBRANCH   6   9
ENDBRANCH   5   6
ENDBRANCH   1   5
BRANCH   2  14
HETATM   14  C   UNL     1     -45.104 -54.952  13.979  1.00  0.00     0.234 C 
BRANCH  14  15
HETATM   15  N   UNL     1     -45.697 -53.667  14.332  1.00  0.00    -0.316 N 
HETATM   16  C   UNL     1     -45.946 -53.366  15.662  1.00  0.00     0.095 A 
HETATM   17  C   UNL     1     -46.566 -52.231  16.009  1.00  0.00     0.017 A 
HETATM   18  C   UNL     1     -47.002 -51.309  14.991  1.00  0.00     0.007 A 
HETATM   19  C   UNL     1     -46.732 -51.546  13.700  1.00  0.00     0.074 A 
HETATM   20  C   UNL     1     -45.996 -52.780  13.303  1.00  0.00     0.247 A 
HETATM   21  O   UNL     1     -45.720 -52.967  12.121  1.00  0.00    -0.268 OA
ENDBRANCH  14  15
ENDBRANCH   2  14
TORSDOF 6
ENDMDL
MODEL 6
REMARK VINA RESULT:      -5.4      2.349      3.331
REMARK  6 active torsions:
REMARK  status: ('A' for Active; 'I' for Inactive)
REMARK    1  A    between atoms: C_2  and  C_3 
REMARK    2  A    between atoms: C_3  and  C_4 
REMARK    3  A    between atoms: C_3  and  N_16 
REMARK    4  A    between atoms: C_4  and  N_5 
REMARK       I    between atoms: N_5  and  C_6 
REMARK    5  A    between atoms: C_6  and  C_8 
REMARK    6  A    between atoms: C_8  and  N_9 
ROOT
HETATM    1  N   UNL     1     -42.411 -51.196  12.055  1.00  0.00    -0.358 N 
HETATM    2  C   UNL     1     -42.214 -52.493  12.469  1.00  0.00     0.235 C 
HETATM    3  O   UNL     1     -41.101 -52.983  12.659  1.00  0.00    -0.272 OA
HETATM    4  H   UNL     1     -43.354 -50.816  12.023  1.00  0.00     0.162 HD
ENDROOT
BRANCH   1   5
HETATM    5  C   UNL     1     -41.317 -50.289  11.741  1.00  0.00     0.158 C 
BRANCH   5   6
HETATM    6  C   UNL     1     -41.606 -48.826  12.194  1.00  0.00     0.240 C 
BRANCH   6   7
HETATM    7  C   UNL     1     -42.896 -48.751  13.056  1.00  0.00     0.033 C 
HETATM    8  C   UNL     1     -42.665 -48.303  14.493  1.00  0.00     0.007 C 
ENDBRANCH   6   7
BRANCH   6   9
HETATM    9  N   UNL     1     -41.605 -47.895  11.041  1.00  0.00     0.094 N 
HETATM   10  C   UNL     1     -40.586 -46.841  11.087  1.00  0.00     0.273 C 
HETATM   11  C   UNL     1     -41.225 -45.606  10.461  1.00  0.00     0.032 C 
HETATM   12  C   UNL     1     -42.501 -46.115   9.821  1.00  0.00     0.032 C 
HETATM   13  C   UNL     1     -42.890 -47.284  10.704  1.00  0.00     0.273 C 
ENDBRANCH   6   9
ENDBRANCH   5   6
ENDBRANCH   1   5
BRANCH   2  14
HETATM   14  C   UNL     1     -43.495 -53.291  12.717  1.00  0.00     0.234 C 
BRANCH  14  15
HETATM   15  N   UNL     1     -44.474 -52.547  13.500  1.00  0.00    -0.316 N 
HETATM   16  C   UNL     1     -44.120 -52.038  14.739  1.00  0.00     0.095 A 
HETATM   17  C   UNL     1     -45.021 -51.424  15.517  1.00  0.00     0.017 A 
HETATM   18  C   UNL     1     -46.388 -51.302  15.076  1.00  0.00     0.007 A 
HETATM   19  C   UNL     1     -46.751 -51.738  13.862  1.00  0.00     0.074 A 
HETATM   20  C   UNL     1     -45.747 -52.377  12.964  1.00  0.00     0.247 A 
HETATM   21  O   UNL     1     -46.082 -52.736  11.839  1.00  0.00    -0.268 OA
ENDBRANCH  14  15
ENDBRANCH   2  14
TORSDOF 6
ENDMDL
MODEL 7
REMARK VINA RESULT:      -5.2      3.087      6.707
REMARK  6 active torsions:
REMARK  status: ('A' for Active; 'I' for Inactive)
REMARK    1  A    between atoms: C_2  and  C_3 
REMARK    2  A    between atoms: C_3  and  C_4 
REMARK    3  A    between atoms: C_3  and  N_16 
REMARK    4  A    between atoms: C_4  and  N_5 
REMARK       I    between atoms: N_5  and  C_6 
REMARK    5  A    between atoms: C_6  and  C_8 
REMARK    6  A    between atoms: C_8  and  N_9 
ROOT
HETATM    1  N   UNL     1     -42.995 -49.797  12.371  1.00  0.00    -0.358 N 
HETATM    2  C   UNL     1     -41.624 -49.697  12.404  1.00  0.00     0.235 C 
HETATM    3  O   UNL     1     -40.946 -49.977  13.393  1.00  0.00    -0.272 OA
HETATM    4  H   UNL     1     -43.489 -49.659  11.492  1.00  0.00     0.162 HD
ENDROOT
BRANCH   1   5
HETATM    5  C   UNL     1     -43.790 -50.185  13.527  1.00  0.00     0.158 C 
BRANCH   5   6
HETATM    6  C   UNL     1     -44.430 -51.597  13.363  1.00  0.00     0.240 C 
BRANCH   6   7
HETATM    7  C   UNL     1     -45.975 -51.531  13.503  1.00  0.00     0.033 C 
HETATM    8  C   UNL     1     -46.733 -51.747  12.199  1.00  0.00     0.007 C 
ENDBRANCH   6   7
BRANCH   6   9
HETATM    9  N   UNL     1     -43.792 -52.585  14.266  1.00  0.00     0.094 N 
HETATM   10  C   UNL     1     -42.500 -53.108  13.809  1.00  0.00     0.273 C 
HETATM   11  C   UNL     1     -42.452 -54.565  14.253  1.00  0.00     0.032 C 
HETATM   12  C   UNL     1     -43.621 -54.718  15.205  1.00  0.00     0.032 C 
HETATM   13  C   UNL     1     -44.627 -53.711  14.683  1.00  0.00     0.273 C 
ENDBRANCH   6   9
ENDBRANCH   5   6
ENDBRANCH   1   5
BRANCH   2  14
HETATM   14  C   UNL     1     -40.979 -49.243  11.094  1.00  0.00     0.234 C 
BRANCH  14  15
HETATM   15  N   UNL     1     -41.004 -47.794  10.933  1.00  0.00    -0.316 N 
HETATM   16  C   UNL     1     -39.958 -47.029  11.423  1.00  0.00     0.095 A 
HETATM   17  C   UNL     1     -39.993 -45.691  11.365  1.00  0.00     0.017 A 
HETATM   18  C   UNL     1     -41.140 -45.025  10.802  1.00  0.00     0.007 A 
HETATM   19  C   UNL     1     -42.146 -45.736  10.273  1.00  0.00     0.074 A 
HETATM   20  C   UNL     1     -42.096 -47.226  10.283  1.00  0.00     0.247 A 
HETATM   21  O   UNL     1     -43.004 -47.866   9.760  1.00  0.00    -0.268 OA
ENDBRANCH  14  15
ENDBRANCH   2  14
TORSDOF 6
ENDMDL
MODEL 8
REMARK VINA RESULT:      -5.1      2.378      3.904
REMARK  6 active torsions:
REMARK  status: ('A' for Active; 'I' for Inactive)
REMARK    1  A    between atoms: C_2  and  C_3 
REMARK    2  A    between atoms: C_3  and  C_4 
REMARK    3  A    between atoms: C_3  and  N_16 
REMARK    4  A    between atoms: C_4  and  N_5 
REMARK       I    between atoms: N_5  and  C_6 
REMARK    5  A    between atoms: C_6  and  C_8 
REMARK    6  A    between atoms: C_8  and  N_9 
ROOT
HETATM    1  N   UNL     1     -40.227 -50.818  11.829  1.00  0.00    -0.358 N 
HETATM    2  C   UNL     1     -41.477 -51.301  12.140  1.00  0.00     0.235 C 
HETATM    3  O   UNL     1     -42.386 -50.600  12.585  1.00  0.00    -0.272 OA
HETATM    4  H   UNL     1     -39.556 -51.422  11.362  1.00  0.00     0.162 HD
ENDROOT
BRANCH   1   5
HETATM    5  C   UNL     1     -39.834 -49.434  12.055  1.00  0.00     0.158 C 
BRANCH   5   6
HETATM    6  C   UNL     1     -38.323 -49.295  12.409  1.00  0.00     0.240 C 
BRANCH   6   7
HETATM    7  C   UNL     1     -37.491 -50.444  11.777  1.00  0.00     0.033 C 
HETATM    8  C   UNL     1     -36.924 -50.125  10.400  1.00  0.00     0.007 C 
ENDBRANCH   6   7
BRANCH   6   9
HETATM    9  N   UNL     1     -38.123 -49.149  13.871  1.00  0.00     0.094 N 
HETATM   10  C   UNL     1     -37.564 -47.864  14.302  1.00  0.00     0.273 C 
HETATM   11  C   UNL     1     -36.659 -48.172  15.489  1.00  0.00     0.032 C 
HETATM   12  C   UNL     1     -36.980 -49.606  15.857  1.00  0.00     0.032 C 
HETATM   13  C   UNL     1     -37.381 -50.222  14.531  1.00  0.00     0.273 C 
ENDBRANCH   6   9
ENDBRANCH   5   6
ENDBRANCH   1   5
BRANCH   2  14
HETATM   14  C   UNL     1     -41.680 -52.790  11.857  1.00  0.00     0.234 C 
BRANCH  14  15
HETATM   15  N   UNL     1     -42.199 -53.513  13.012  1.00  0.00    -0.316 N 
HETATM   16  C   UNL     1     -41.354 -53.830  14.063  1.00  0.00     0.095 A 
HETATM   17  C   UNL     1     -41.782 -54.565  15.097  1.00  0.00     0.017 A 
HETATM   18  C   UNL     1     -43.137 -55.057  15.118  1.00  0.00     0.007 A 
HETATM   19  C   UNL     1     -43.994 -54.726  14.142  1.00  0.00     0.074 A 
HETATM   20  C   UNL     1     -43.546 -53.864  13.011  1.00  0.00     0.247 A 
HETATM   21  O   UNL     1     -44.351 -53.536  12.145  1.00  0.00    -0.268 OA
ENDBRANCH  14  15
ENDBRANCH   2  14
TORSDOF 6
ENDMDL
MODEL 9
REMARK VINA RESULT:      -4.9      2.095      6.368
REMARK  6 active torsions:
REMARK  status: ('A' for Active; 'I' for Inactive)
REMARK    1  A    between atoms: C_2  and  C_3 
REMARK    2  A    between atoms: C_3  and  C_4 
REMARK    3  A    between atoms: C_3  and  N_16 
REMARK    4  A    between atoms: C_4  and  N_5 
REMARK       I    between atoms: N_5  and  C_6 
REMARK    5  A    between atoms: C_6  and  C_8 
REMARK    6  A    between atoms: C_8  and  N_9 
ROOT
HETATM    1  N   UNL     1     -44.068 -53.906  13.160  1.00  0.00    -0.358 N 
HETATM    2  C   UNL     1     -42.827 -54.183  13.683  1.00  0.00     0.235 C 
HETATM    3  O   UNL     1     -42.650 -54.875  14.685  1.00  0.00    -0.272 OA
HETATM    4  H   UNL     1     -44.143 -53.422  12.269  1.00  0.00     0.162 HD
ENDROOT
BRANCH   1   5
HETATM    5  C   UNL     1     -45.307 -54.355  13.779  1.00  0.00     0.158 C 
BRANCH   5   6
HETATM    6  C   UNL     1     -46.406 -53.250  13.784  1.00  0.00     0.240 C 
BRANCH   6   7
HETATM    7  C   UNL     1     -45.996 -52.048  12.889  1.00  0.00     0.033 C 
HETATM    8  C   UNL     1     -46.917 -51.808  11.700  1.00  0.00     0.007 C 
ENDBRANCH   6   7
BRANCH   6   9
HETATM    9  N   UNL     1     -46.775 -52.864  15.166  1.00  0.00     0.094 N 
HETATM   10  C   UNL     1     -47.029 -51.434  15.372  1.00  0.00     0.273 C 
HETATM   11  C   UNL     1     -46.518 -51.109  16.771  1.00  0.00     0.032 C 
HETATM   12  C   UNL     1     -46.256 -52.458  17.408  1.00  0.00     0.032 C 
HETATM   13  C   UNL     1     -45.885 -53.333  16.227  1.00  0.00     0.273 C 
ENDBRANCH   6   9
ENDBRANCH   5   6
ENDBRANCH   1   5
BRANCH   2  14
HETATM   14  C   UNL     1     -41.653 -53.593  12.900  1.00  0.00     0.234 C 
BRANCH  14  15
HETATM   15  N   UNL     1     -40.880 -52.638  13.686  1.00  0.00    -0.316 N 
HETATM   16  C   UNL     1     -41.483 -51.479  14.148  1.00  0.00     0.095 A 
HETATM   17  C   UNL     1     -40.777 -50.546  14.800  1.00  0.00     0.017 A 
HETATM   18  C   UNL     1     -39.364 -50.730  15.013  1.00  0.00     0.007 A 
HETATM   19  C   UNL     1     -38.761 -51.862  14.624  1.00  0.00     0.074 A 
HETATM   20  C   UNL     1     -39.545 -52.933  13.944  1.00  0.00     0.247 A 
HETATM   21  O   UNL     1     -38.990 -53.982  13.628  1.00  0.00    -0.268 OA
ENDBRANCH  14  15
ENDBRANCH   2  14
TORSDOF 6
ENDMDL
