MODEL 1
REMARK VINA RESULT:      -6.2      0.000      0.000
REMARK  5 active torsions:
REMARK  status: ('A' for Active; 'I' for Inactive)
REMARK    1  A    between atoms: N_4  and  S_9 
REMARK    2  A    between atoms: S_9  and  N_12 
REMARK    3  A    between atoms: N_12  and  C_13 
REMARK    4  A    between atoms: C_13  and  C_14 
REMARK    5  A    between atoms: C_14  and  C_15 
ROOT
HETATM    1  S   UNL     1     -41.999 -51.676  12.602  1.00  0.00     0.281 S 
HETATM    2  O   UNL     1     -41.586 -51.396  13.955  1.00  0.00    -0.194 OA
HETATM    3  O   UNL     1     -41.266 -52.575  11.745  1.00  0.00    -0.194 OA
ENDROOT
BRANCH   1   4
HETATM    4  N   UNL     1     -43.607 -52.207  12.638  1.00  0.00    -0.193 NA
HETATM    5  C   UNL     1     -44.445 -51.249  13.443  1.00  0.00     0.140 C 
HETATM    6  C   UNL     1     -45.911 -51.696  13.513  1.00  0.00     0.132 C 
HETATM    7  C   UNL     1     -46.660 -51.499  12.198  1.00  0.00     0.041 C 
HETATM    8  O   UNL     1     -46.030 -53.043  13.996  1.00  0.00    -0.379 OA
HETATM    9  C   UNL     1     -45.262 -53.983  13.228  1.00  0.00     0.132 C 
HETATM   10  C   UNL     1     -43.774 -53.595  13.183  1.00  0.00     0.140 C 
HETATM   11  C   UNL     1     -45.432 -55.346  13.887  1.00  0.00     0.041 C 
ENDBRANCH   1   4
BRANCH   1  12
HETATM   12  N   UNL     1     -42.199 -50.198  11.829  1.00  0.00    -0.206 NA
HETATM   13  H   UNL     1     -42.585 -49.558  12.526  1.00  0.00     0.140 HD
BRANCH  12  14
HETATM   14  C   UNL     1     -40.940 -49.593  11.275  1.00  0.00     0.111 C 
BRANCH  14  15
HETATM   15  C   UNL     1     -40.950 -48.065  11.280  1.00  0.00     0.072 C 
BRANCH  15  16
HETATM   16  C   UNL     1     -41.930 -47.441  10.316  1.00  0.00     0.010 A 
HETATM   17  C   UNL     1     -42.323 -46.120  10.528  1.00  0.00     0.025 A 
HETATM   18  C   UNL     1     -43.310 -45.570   9.716  1.00  0.00     0.003 A 
HETATM   19  C   UNL     1     -43.875 -46.349   8.716  1.00  0.00     0.017 A 
HETATM   20  C   UNL     1     -43.418 -47.649   8.563  1.00  0.00     0.088 A 
HETATM   21  N   UNL     1     -42.459 -48.208   9.335  1.00  0.00    -0.369 N 
ATOM     22  HN  UNL     1     -42.147 -49.167   9.184  1.00  0.00     0.165 HD
ENDBRANCH  15  16
ENDBRANCH  14  15
ENDBRANCH  12  14
ENDBRANCH   1  12
TORSDOF 5
ENDMDL
MODEL 2
REMARK VINA RESULT:      -6.2      1.101      2.084
REMARK  5 active torsions:
REMARK  status: ('A' for Active; 'I' for Inactive)
REMARK    1  A    between atoms: N_4  and  S_9 
REMARK    2  A    between atoms: S_9  and  N_12 
REMARK    3  A    between atoms: N_12  and  C_13 
REMARK    4  A    between atoms: C_13  and  C_14 
REMARK    5  A    between atoms: C_14  and  C_15 
ROOT
HETATM    1  S   UNL     1     -41.313 -51.536  12.835  1.00  0.00     0.281 S 
HETATM    2  O   UNL     1     -40.797 -50.782  13.951  1.00  0.00    -0.194 OA
HETATM    3  O   UNL     1     -40.522 -52.523  12.142  1.00  0.00    -0.194 OA
ENDROOT
BRANCH   1   4
HETATM    4  N   UNL     1     -42.749 -52.289  13.325  1.00  0.00    -0.193 NA
HETATM    5  C   UNL     1     -42.881 -53.630  12.652  1.00  0.00     0.140 C 
HETATM    6  C   UNL     1     -44.176 -54.346  13.058  1.00  0.00     0.132 C 
HETATM    7  C   UNL     1     -44.139 -54.885  14.484  1.00  0.00     0.041 C 
HETATM    8  O   UNL     1     -45.330 -53.520  12.831  1.00  0.00    -0.379 OA
HETATM    9  C   UNL     1     -45.242 -52.245  13.486  1.00  0.00     0.132 C 
HETATM   10  C   UNL     1     -43.981 -51.475  13.059  1.00  0.00     0.140 C 
HETATM   11  C   UNL     1     -46.493 -51.460  13.108  1.00  0.00     0.041 C 
ENDBRANCH   1   4
BRANCH   1  12
HETATM   12  N   UNL     1     -41.929 -50.428  11.731  1.00  0.00    -0.206 NA
HETATM   13  H   UNL     1     -42.617 -49.868  12.239  1.00  0.00     0.140 HD
BRANCH  12  14
HETATM   14  C   UNL     1     -40.914 -49.501  11.127  1.00  0.00     0.111 C 
BRANCH  14  15
HETATM   15  C   UNL     1     -41.390 -48.052  11.046  1.00  0.00     0.072 C 
BRANCH  15  16
HETATM   16  C   UNL     1     -42.569 -47.829  10.129  1.00  0.00     0.010 A 
HETATM   17  C   UNL     1     -43.814 -47.559  10.697  1.00  0.00     0.025 A 
HETATM   18  C   UNL     1     -44.928 -47.465   9.869  1.00  0.00     0.003 A 
HETATM   19  C   UNL     1     -44.772 -47.640   8.502  1.00  0.00     0.017 A 
HETATM   20  C   UNL     1     -43.498 -47.892   8.016  1.00  0.00     0.088 A 
HETATM   21  N   UNL     1     -42.397 -47.985   8.796  1.00  0.00    -0.369 N 
ATOM     22  HN  UNL     1     -41.477 -48.165   8.396  1.00  0.00     0.165 HD
ENDBRANCH  15  16
ENDBRANCH  14  15
ENDBRANCH  12  14
ENDBRANCH   1  12
TORSDOF 5
ENDMDL
MODEL 3
REMARK VINA RESULT:      -6.1      2.735      6.574
REMARK  5 active torsions:
REMARK  status: ('A' for Active; 'I' for Inactive)
REMARK    1  A    between atoms: N_4  and  S_9 
REMARK    2  A    between atoms: S_9  and  N_12 
REMARK    3  A    between atoms: N_12  and  C_13 
REMARK    4  A    between atoms: C_13  and  C_14 
REMARK    5  A    between atoms: C_14  and  C_15 
ROOT
HETATM    1  S   UNL     1     -40.280 -53.000  13.421  1.00  0.00     0.281 S 
HETATM    2  O   UNL     1     -39.170 -53.911  13.550  1.00  0.00    -0.194 OA
HETATM    3  O   UNL     1     -40.966 -52.456  14.567  1.00  0.00    -0.194 OA
ENDROOT
BRANCH   1   4
HETATM    4  N   UNL     1     -39.784 -51.697  12.460  1.00  0.00    -0.193 NA
HETATM    5  C   UNL     1     -38.758 -50.877  13.196  1.00  0.00     0.140 C 
HETATM    6  C   UNL     1     -38.287 -49.675  12.366  1.00  0.00     0.132 C 
HETATM    7  C   UNL     1     -37.376 -50.069  11.207  1.00  0.00     0.041 C 
HETATM    8  O   UNL     1     -39.392 -48.872  11.924  1.00  0.00    -0.379 OA
HETATM    9  C   UNL     1     -40.374 -49.625  11.194  1.00  0.00     0.132 C 
HETATM   10  C   UNL     1     -40.910 -50.807  12.019  1.00  0.00     0.140 C 
HETATM   11  C   UNL     1     -41.507 -48.667  10.848  1.00  0.00     0.041 C 
ENDBRANCH   1   4
BRANCH   1  12
HETATM   12  N   UNL     1     -41.392 -53.718  12.385  1.00  0.00    -0.206 NA
HETATM   13  H   UNL     1     -40.950 -54.571  12.034  1.00  0.00     0.140 HD
BRANCH  12  14
HETATM   14  C   UNL     1     -42.704 -54.087  13.016  1.00  0.00     0.111 C 
BRANCH  14  15
HETATM   15  C   UNL     1     -43.875 -53.244  12.514  1.00  0.00     0.072 C 
BRANCH  15  16
HETATM   16  C   UNL     1     -44.688 -52.587  13.603  1.00  0.00     0.010 A 
HETATM   17  C   UNL     1     -45.967 -52.125  13.293  1.00  0.00     0.025 A 
HETATM   18  C   UNL     1     -46.682 -51.417  14.254  1.00  0.00     0.003 A 
HETATM   19  C   UNL     1     -46.105 -51.191  15.496  1.00  0.00     0.017 A 
HETATM   20  C   UNL     1     -44.835 -51.696  15.728  1.00  0.00     0.088 A 
HETATM   21  N   UNL     1     -44.119 -52.390  14.815  1.00  0.00    -0.369 N 
ATOM     22  HN  UNL     1     -43.189 -52.749  15.029  1.00  0.00     0.165 HD
ENDBRANCH  15  16
ENDBRANCH  14  15
ENDBRANCH  12  14
ENDBRANCH   1  12
TORSDOF 5
ENDMDL
MODEL 4
REMARK VINA RESULT:      -5.8      2.419      6.909
REMARK  5 active torsions:
REMARK  status: ('A' for Active; 'I' for Inactive)
REMARK    1  A    between atoms: N_4  and  S_9 
REMARK    2  A    between atoms: S_9  and  N_12 
REMARK    3  A    between atoms: N_12  and  C_13 
REMARK    4  A    between atoms: C_13  and  C_14 
REMARK    5  A    between atoms: C_14  and  C_15 
ROOT
HETATM    1  S   UNL     1     -42.009 -49.159  12.425  1.00  0.00     0.281 S 
HETATM    2  O   UNL     1     -41.222 -48.877  13.600  1.00  0.00    -0.194 OA
HETATM    3  O   UNL     1     -43.415 -49.473  12.498  1.00  0.00    -0.194 OA
ENDROOT
BRANCH   1   4
HETATM    4  N   UNL     1     -41.832 -47.864  11.348  1.00  0.00    -0.193 NA
HETATM    5  C   UNL     1     -41.476 -46.612  12.104  1.00  0.00     0.140 C 
HETATM    6  C   UNL     1     -41.316 -45.407  11.167  1.00  0.00     0.132 C 
HETATM    7  C   UNL     1     -40.038 -45.462  10.336  1.00  0.00     0.041 C 
HETATM    8  O   UNL     1     -42.478 -45.219  10.345  1.00  0.00    -0.379 OA
HETATM    9  C   UNL     1     -42.825 -46.391   9.590  1.00  0.00     0.132 C 
HETATM   10  C   UNL     1     -43.047 -47.608  10.505  1.00  0.00     0.140 C 
HETATM   11  C   UNL     1     -44.101 -46.069   8.822  1.00  0.00     0.041 C 
ENDBRANCH   1   4
BRANCH   1  12
HETATM   12  N   UNL     1     -41.206 -50.361  11.568  1.00  0.00    -0.206 NA
HETATM   13  H   UNL     1     -40.526 -49.884  10.972  1.00  0.00     0.140 HD
BRANCH  12  14
HETATM   14  C   UNL     1     -40.476 -51.366  12.413  1.00  0.00     0.111 C 
BRANCH  14  15
HETATM   15  C   UNL     1     -40.897 -52.808  12.137  1.00  0.00     0.072 C 
BRANCH  15  16
HETATM   16  C   UNL     1     -42.256 -53.180  12.680  1.00  0.00     0.010 A 
HETATM   17  C   UNL     1     -42.326 -54.098  13.728  1.00  0.00     0.025 A 
HETATM   18  C   UNL     1     -43.573 -54.536  14.161  1.00  0.00     0.003 A 
HETATM   19  C   UNL     1     -44.714 -54.047  13.541  1.00  0.00     0.017 A 
HETATM   20  C   UNL     1     -44.558 -53.127  12.516  1.00  0.00     0.088 A 
HETATM   21  N   UNL     1     -43.359 -52.681  12.077  1.00  0.00    -0.369 N 
ATOM     22  HN  UNL     1     -43.289 -51.998  11.324  1.00  0.00     0.165 HD
ENDBRANCH  15  16
ENDBRANCH  14  15
ENDBRANCH  12  14
ENDBRANCH   1  12
TORSDOF 5
ENDMDL
MODEL 5
REMARK VINA RESULT:      -5.7      2.981      6.891
REMARK  5 active torsions:
REMARK  status: ('A' for Active; 'I' for Inactive)
REMARK    1  A    between atoms: N_4  and  S_9 
REMARK    2  A    between atoms: S_9  and  N_12 
REMARK    3  A    between atoms: N_12  and  C_13 
REMARK    4  A    between atoms: C_13  and  C_14 
REMARK    5  A    between atoms: C_14  and  C_15 
ROOT
HETATM    1  S   UNL     1     -38.941 -49.924  12.469  1.00  0.00     0.281 S 
HETATM    2  O   UNL     1     -37.836 -49.746  11.561  1.00  0.00    -0.194 OA
HETATM    3  O   UNL     1     -38.766 -49.932  13.900  1.00  0.00    -0.194 OA
ENDROOT
BRANCH   1   4
HETATM    4  N   UNL     1     -40.116 -48.760  12.107  1.00  0.00    -0.193 NA
HETATM    5  C   UNL     1     -41.028 -49.271  11.023  1.00  0.00     0.140 C 
HETATM    6  C   UNL     1     -42.106 -48.242  10.654  1.00  0.00     0.132 C 
HETATM    7  C   UNL     1     -43.187 -48.099  11.720  1.00  0.00     0.041 C 
HETATM    8  O   UNL     1     -41.528 -46.973  10.309  1.00  0.00    -0.379 OA
HETATM    9  C   UNL     1     -40.674 -46.448  11.338  1.00  0.00     0.132 C 
HETATM   10  C   UNL     1     -39.547 -47.434  11.695  1.00  0.00     0.140 C 
HETATM   11  C   UNL     1     -40.088 -45.144  10.812  1.00  0.00     0.041 C 
ENDBRANCH   1   4
BRANCH   1  12
HETATM   12  N   UNL     1     -39.754 -51.315  11.992  1.00  0.00    -0.206 NA
HETATM   13  H   UNL     1     -39.109 -51.836  11.395  1.00  0.00     0.140 HD
BRANCH  12  14
HETATM   14  C   UNL     1     -40.194 -52.212  13.114  1.00  0.00     0.111 C 
BRANCH  14  15
HETATM   15  C   UNL     1     -40.862 -53.499  12.634  1.00  0.00     0.072 C 
BRANCH  15  16
HETATM   16  C   UNL     1     -42.330 -53.609  12.971  1.00  0.00     0.010 A 
HETATM   17  C   UNL     1     -42.706 -54.392  14.062  1.00  0.00     0.025 A 
HETATM   18  C   UNL     1     -44.059 -54.594  14.314  1.00  0.00     0.003 A 
HETATM   19  C   UNL     1     -44.998 -54.010  13.477  1.00  0.00     0.017 A 
HETATM   20  C   UNL     1     -44.540 -53.234  12.422  1.00  0.00     0.088 A 
HETATM   21  N   UNL     1     -43.233 -53.018  12.155  1.00  0.00    -0.369 N 
ATOM     22  HN  UNL     1     -42.940 -52.435  11.372  1.00  0.00     0.165 HD
ENDBRANCH  15  16
ENDBRANCH  14  15
ENDBRANCH  12  14
ENDBRANCH   1  12
TORSDOF 5
ENDMDL
MODEL 6
REMARK VINA RESULT:      -5.6      2.767      6.605
REMARK  5 active torsions:
REMARK  status: ('A' for Active; 'I' for Inactive)
REMARK    1  A    between atoms: N_4  and  S_9 
REMARK    2  A    between atoms: S_9  and  N_12 
REMARK    3  A    between atoms: N_12  and  C_13 
REMARK    4  A    between atoms: C_13  and  C_14 
REMARK    5  A    between atoms: C_14  and  C_15 
ROOT
HETATM    1  S   UNL     1     -41.577 -52.835  13.127  1.00  0.00     0.281 S 
HETATM    2  O   UNL     1     -40.583 -53.728  12.585  1.00  0.00    -0.194 OA
HETATM    3  O   UNL     1     -42.117 -52.999  14.454  1.00  0.00    -0.194 OA
ENDROOT
BRANCH   1   4
HETATM    4  N   UNL     1     -40.986 -51.252  13.011  1.00  0.00    -0.193 NA
HETATM    5  C   UNL     1     -41.925 -50.413  12.187  1.00  0.00     0.140 C 
HETATM    6  C   UNL     1     -41.423 -48.969  12.045  1.00  0.00     0.132 C 
HETATM    7  C   UNL     1     -41.566 -48.158  13.329  1.00  0.00     0.041 C 
HETATM    8  O   UNL     1     -40.082 -48.924  11.534  1.00  0.00    -0.379 OA
HETATM    9  C   UNL     1     -39.158 -49.695  12.319  1.00  0.00     0.132 C 
HETATM   10  C   UNL     1     -39.603 -51.164  12.435  1.00  0.00     0.140 C 
HETATM   11  C   UNL     1     -37.802 -49.608  11.629  1.00  0.00     0.041 C 
ENDBRANCH   1   4
BRANCH   1  12
HETATM   12  N   UNL     1     -42.832 -52.758  12.012  1.00  0.00    -0.206 NA
HETATM   13  H   UNL     1     -42.466 -53.141  11.138  1.00  0.00     0.140 HD
BRANCH  12  14
HETATM   14  C   UNL     1     -44.066 -53.527  12.389  1.00  0.00     0.111 C 
BRANCH  14  15
HETATM   15  C   UNL     1     -45.298 -52.643  12.572  1.00  0.00     0.072 C 
BRANCH  15  16
HETATM   16  C   UNL     1     -45.773 -52.515  14.000  1.00  0.00     0.010 A 
HETATM   17  C   UNL     1     -46.722 -51.539  14.302  1.00  0.00     0.025 A 
HETATM   18  C   UNL     1     -47.082 -51.334  15.630  1.00  0.00     0.003 A 
HETATM   19  C   UNL     1     -46.489 -52.107  16.618  1.00  0.00     0.017 A 
HETATM   20  C   UNL     1     -45.565 -53.065  16.232  1.00  0.00     0.088 A 
HETATM   21  N   UNL     1     -45.198 -53.288  14.950  1.00  0.00    -0.369 N 
ATOM     22  HN  UNL     1     -44.518 -54.008  14.709  1.00  0.00     0.165 HD
ENDBRANCH  15  16
ENDBRANCH  14  15
ENDBRANCH  12  14
ENDBRANCH   1  12
TORSDOF 5
ENDMDL
MODEL 7
REMARK VINA RESULT:      -5.6      1.467      2.606
REMARK  5 active torsions:
REMARK  status: ('A' for Active; 'I' for Inactive)
REMARK    1  A    between atoms: N_4  and  S_9 
REMARK    2  A    between atoms: S_9  and  N_12 
REMARK    3  A    between atoms: N_12  and  C_13 
REMARK    4  A    between atoms: C_13  and  C_14 
REMARK    5  A    between atoms: C_14  and  C_15 
ROOT
HETATM    1  S   UNL     1     -41.332 -51.418  12.834  1.00  0.00     0.281 S 
HETATM    2  O   UNL     1     -40.850 -50.626  13.939  1.00  0.00    -0.194 OA
HETATM    3  O   UNL     1     -40.502 -52.388  12.164  1.00  0.00    -0.194 OA
ENDROOT
BRANCH   1   4
HETATM    4  N   UNL     1     -42.743 -52.213  13.329  1.00  0.00    -0.193 NA
HETATM    5  C   UNL     1     -42.862 -53.537  12.622  1.00  0.00     0.140 C 
HETATM    6  C   UNL     1     -44.135 -54.290  13.032  1.00  0.00     0.132 C 
HETATM    7  C   UNL     1     -44.060 -54.866  14.442  1.00  0.00     0.041 C 
HETATM    8  O   UNL     1     -45.308 -53.482  12.849  1.00  0.00    -0.379 OA
HETATM    9  C   UNL     1     -45.234 -52.223  13.536  1.00  0.00     0.132 C 
HETATM   10  C   UNL     1     -43.995 -51.416  13.107  1.00  0.00     0.140 C 
HETATM   11  C   UNL     1     -46.506 -51.454  13.203  1.00  0.00     0.041 C 
ENDBRANCH   1   4
BRANCH   1  12
HETATM   12  N   UNL     1     -41.979 -50.353  11.707  1.00  0.00    -0.206 NA
HETATM   13  H   UNL     1     -42.832 -49.975  12.124  1.00  0.00     0.140 HD
BRANCH  12  14
HETATM   14  C   UNL     1     -41.086 -49.206  11.328  1.00  0.00     0.111 C 
BRANCH  14  15
HETATM   15  C   UNL     1     -41.779 -48.162  10.454  1.00  0.00     0.072 C 
BRANCH  15  16
HETATM   16  C   UNL     1     -41.343 -46.739  10.711  1.00  0.00     0.010 A 
HETATM   17  C   UNL     1     -42.303 -45.810  11.112  1.00  0.00     0.025 A 
HETATM   18  C   UNL     1     -41.937 -44.474  11.241  1.00  0.00     0.003 A 
HETATM   19  C   UNL     1     -40.629 -44.101  10.969  1.00  0.00     0.017 A 
HETATM   20  C   UNL     1     -39.733 -45.089  10.590  1.00  0.00     0.088 A 
HETATM   21  N   UNL     1     -40.059 -46.395  10.460  1.00  0.00    -0.369 N 
ATOM     22  HN  UNL     1     -39.366 -47.090  10.184  1.00  0.00     0.165 HD
ENDBRANCH  15  16
ENDBRANCH  14  15
ENDBRANCH  12  14
ENDBRANCH   1  12
TORSDOF 5
ENDMDL
MODEL 8
REMARK VINA RESULT:      -5.6      1.702      2.603
REMARK  5 active torsions:
REMARK  status: ('A' for Active; 'I' for Inactive)
REMARK    1  A    between atoms: N_4  and  S_9 
REMARK    2  A    between atoms: S_9  and  N_12 
REMARK    3  A    between atoms: N_12  and  C_13 
REMARK    4  A    between atoms: C_13  and  C_14 
REMARK    5  A    between atoms: C_14  and  C_15 
ROOT
HETATM    1  S   UNL     1     -42.204 -51.054  14.377  1.00  0.00     0.281 S 
HETATM    2  O   UNL     1     -42.598 -49.676  14.216  1.00  0.00    -0.194 OA
HETATM    3  O   UNL     1     -41.608 -51.547  15.594  1.00  0.00    -0.194 OA
ENDROOT
BRANCH   1   4
HETATM    4  N   UNL     1     -43.546 -52.030  14.036  1.00  0.00    -0.193 NA
HETATM    5  C   UNL     1     -43.117 -53.231  13.235  1.00  0.00     0.140 C 
HETATM    6  C   UNL     1     -44.304 -54.141  12.893  1.00  0.00     0.132 C 
HETATM    7  C   UNL     1     -44.821 -54.926  14.095  1.00  0.00     0.041 C 
HETATM    8  O   UNL     1     -45.356 -53.414  12.240  1.00  0.00    -0.379 OA
HETATM    9  C   UNL     1     -45.804 -52.278  12.996  1.00  0.00     0.132 C 
HETATM   10  C   UNL     1     -44.646 -51.315  13.310  1.00  0.00     0.140 C 
HETATM   11  C   UNL     1     -46.865 -51.573  12.160  1.00  0.00     0.041 C 
ENDBRANCH   1   4
BRANCH   1  12
HETATM   12  N   UNL     1     -41.223 -51.444  13.069  1.00  0.00    -0.206 NA
HETATM   13  H   UNL     1     -41.829 -51.453  12.246  1.00  0.00     0.140 HD
BRANCH  12  14
HETATM   14  C   UNL     1     -40.091 -50.489  12.816  1.00  0.00     0.111 C 
BRANCH  14  15
HETATM   15  C   UNL     1     -40.107 -49.893  11.410  1.00  0.00     0.072 C 
BRANCH  15  16
HETATM   16  C   UNL     1     -41.081 -48.754  11.222  1.00  0.00     0.010 A 
HETATM   17  C   UNL     1     -40.582 -47.454  11.158  1.00  0.00     0.025 A 
HETATM   18  C   UNL     1     -41.476 -46.389  11.101  1.00  0.00     0.003 A 
HETATM   19  C   UNL     1     -42.839 -46.649  11.105  1.00  0.00     0.017 A 
HETATM   20  C   UNL     1     -43.252 -47.971  11.156  1.00  0.00     0.088 A 
HETATM   21  N   UNL     1     -42.407 -49.025  11.209  1.00  0.00    -0.369 N 
ATOM     22  HN  UNL     1     -42.754 -49.983  11.239  1.00  0.00     0.165 HD
ENDBRANCH  15  16
ENDBRANCH  14  15
ENDBRANCH  12  14
ENDBRANCH   1  12
TORSDOF 5
ENDMDL
MODEL 9
REMARK VINA RESULT:      -5.6      3.108      6.934
REMARK  5 active torsions:
REMARK  status: ('A' for Active; 'I' for Inactive)
REMARK    1  A    between atoms: N_4  and  S_9 
REMARK    2  A    between atoms: S_9  and  N_12 
REMARK    3  A    between atoms: N_12  and  C_13 
REMARK    4  A    between atoms: C_13  and  C_14 
REMARK    5  A    between atoms: C_14  and  C_15 
ROOT
HETATM    1  S   UNL     1     -38.352 -50.915  13.041  1.00  0.00     0.281 S 
HETATM    2  O   UNL     1     -37.415 -51.236  11.992  1.00  0.00    -0.194 OA
HETATM    3  O   UNL     1     -37.979 -50.921  14.434  1.00  0.00    -0.194 OA
ENDROOT
BRANCH   1   4
HETATM    4  N   UNL     1     -39.026 -49.399  12.702  1.00  0.00    -0.193 NA
HETATM    5  C   UNL     1     -39.629 -48.814  13.952  1.00  0.00     0.140 C 
HETATM    6  C   UNL     1     -40.263 -47.441  13.690  1.00  0.00     0.132 C 
HETATM    7  C   UNL     1     -39.232 -46.338  13.477  1.00  0.00     0.041 C 
HETATM    8  O   UNL     1     -41.214 -47.496  12.616  1.00  0.00    -0.379 OA
HETATM    9  C   UNL     1     -40.658 -48.024  11.401  1.00  0.00     0.132 C 
HETATM   10  C   UNL     1     -40.061 -49.426  11.616  1.00  0.00     0.140 C 
HETATM   11  C   UNL     1     -41.786 -48.082  10.379  1.00  0.00     0.041 C 
ENDBRANCH   1   4
BRANCH   1  12
HETATM   12  N   UNL     1     -39.702 -51.890  12.814  1.00  0.00    -0.206 NA
HETATM   13  H   UNL     1     -39.599 -52.315  11.890  1.00  0.00     0.140 HD
BRANCH  12  14
HETATM   14  C   UNL     1     -39.872 -52.987  13.825  1.00  0.00     0.111 C 
BRANCH  14  15
HETATM   15  C   UNL     1     -40.639 -54.194  13.286  1.00  0.00     0.072 C 
BRANCH  15  16
HETATM   16  C   UNL     1     -42.142 -54.065  13.357  1.00  0.00     0.010 A 
HETATM   17  C   UNL     1     -42.820 -54.730  14.379  1.00  0.00     0.025 A 
HETATM   18  C   UNL     1     -44.211 -54.714  14.388  1.00  0.00     0.003 A 
HETATM   19  C   UNL     1     -44.887 -54.037  13.383  1.00  0.00     0.017 A 
HETATM   20  C   UNL     1     -44.137 -53.391  12.412  1.00  0.00     0.088 A 
HETATM   21  N   UNL     1     -42.786 -53.386  12.380  1.00  0.00    -0.369 N 
ATOM     22  HN  UNL     1     -42.273 -52.893  11.650  1.00  0.00     0.165 HD
ENDBRANCH  15  16
ENDBRANCH  14  15
ENDBRANCH  12  14
ENDBRANCH   1  12
TORSDOF 5
ENDMDL
