MODEL 1
REMARK VINA RESULT:      -7.2      0.000      0.000
REMARK  6 active torsions:
REMARK  status: ('A' for Active; 'I' for Inactive)
REMARK    1  A    between atoms: N_2  and  C_14 
REMARK    2  A    between atoms: N_4  and  C_7 
REMARK    3  A    between atoms: C_14  and  C_17 
REMARK    4  A    between atoms: C_17  and  C_21 
REMARK    5  A    between atoms: C_17  and  O_26 
REMARK    6  A    between atoms: C_20  and  C_29 
ROOT
HETATM    1  C   UNL     1     -41.331 -50.270  12.371  1.00  0.00     0.117 A 
HETATM    2  N   UNL     1     -40.605 -52.224  13.051  1.00  0.00    -0.325 N 
HETATM    3  C   UNL     1     -41.731 -51.444  13.001  1.00  0.00     0.140 A 
HETATM    4  N   UNL     1     -39.975 -50.312  12.102  1.00  0.00    -0.346 N 
ATOM      5  HN  UNL     1     -39.408 -49.586  11.665  1.00  0.00     0.167 HD
HETATM    6  C   UNL     1     -42.337 -49.305  12.091  1.00  0.00     0.114 A 
HETATM    7  C   UNL     1     -39.574 -51.488  12.531  1.00  0.00     0.185 A 
HETATM    8  N   UNL     1     -42.965 -51.764  13.418  1.00  0.00    -0.336 N 
ATOM      9  HN  UNL     1     -43.215 -52.647  13.865  1.00  0.00     0.168 HD
HETATM   10  N   UNL     1     -43.594 -49.590  12.547  1.00  0.00    -0.341 N 
ATOM     11  HN  UNL     1     -44.350 -48.917  12.420  1.00  0.00     0.167 HD
HETATM   12  C   UNL     1     -43.829 -50.765  13.165  1.00  0.00     0.183 A 
ENDROOT
BRANCH   6  13
HETATM   13  N   UNL     1     -42.110 -48.111  11.353  1.00  0.00    -0.262 NA
HETATM   14  C   UNL     1     -41.798 -46.962  12.221  1.00  0.00     0.137 C 
HETATM   15  C   UNL     1     -41.550 -45.684  11.389  1.00  0.00     0.097 C 
HETATM   16  O   UNL     1     -42.665 -45.420  10.503  1.00  0.00    -0.370 OA
HETATM   17  C   UNL     1     -40.224 -45.679  10.633  1.00  0.00     0.067 C 
HETATM   18  C   UNL     1     -41.405 -44.478  12.338  1.00  0.00     0.207 C 
HETATM   19  C   UNL     1     -42.987 -46.532   9.644  1.00  0.00     0.136 C 
HETATM   20  C   UNL     1     -43.239 -47.830  10.442  1.00  0.00     0.129 C 
HETATM   21  C   UNL     1     -39.786 -44.234  10.720  1.00  0.00     0.170 C 
HETATM   22  O   UNL     1     -40.186 -43.789  12.015  1.00  0.00    -0.388 OA
BRANCH  19  23
HETATM   23  C   UNL     1     -44.248 -46.171   8.842  1.00  0.00     0.029 C 
HETATM   24  C   UNL     1     -45.444 -47.041   9.197  1.00  0.00     0.007 C 
ENDBRANCH  19  23
ENDBRANCH   6  13
BRANCH   2  25
HETATM   25  C   UNL     1     -40.554 -53.643  13.361  1.00  0.00     0.165 C 
BRANCH  25  26
HETATM   26  C   UNL     1     -39.271 -54.103  14.071  1.00  0.00     0.165 C 
BRANCH  26  27
HETATM   27  C   UNL     1     -39.511 -54.579  15.516  1.00  0.00     0.151 C 
HETATM   28  O   UNL     1     -38.780 -55.802  15.762  1.00  0.00    -0.383 OA
HETATM   29  C   UNL     1     -39.486 -56.544  16.775  1.00  0.00     0.168 C 
HETATM   30  C   UNL     1     -40.707 -55.730  17.159  1.00  0.00     0.029 C 
HETATM   31  C   UNL     1     -40.936 -54.876  15.933  1.00  0.00     0.036 C 
ENDBRANCH  26  27
BRANCH  26  32
HETATM   32  O   UNL     1     -38.692 -55.209  13.354  1.00  0.00    -0.391 OA
HETATM   33  H   UNL     1     -39.406 -55.607  12.818  1.00  0.00     0.210 HD
ENDBRANCH  26  32
ENDBRANCH  25  26
ENDBRANCH   2  25
TORSDOF 6
ENDMDL
MODEL 2
REMARK VINA RESULT:      -7.2      2.003      3.011
REMARK  6 active torsions:
REMARK  status: ('A' for Active; 'I' for Inactive)
REMARK    1  A    between atoms: N_2  and  C_14 
REMARK    2  A    between atoms: N_4  and  C_7 
REMARK    3  A    between atoms: C_14  and  C_17 
REMARK    4  A    between atoms: C_17  and  C_21 
REMARK    5  A    between atoms: C_17  and  O_26 
REMARK    6  A    between atoms: C_20  and  C_29 
ROOT
HETATM    1  C   UNL     1     -40.951 -49.418  12.011  1.00  0.00     0.117 A 
HETATM    2  N   UNL     1     -41.207 -51.316  13.079  1.00  0.00    -0.325 N 
HETATM    3  C   UNL     1     -40.273 -50.564  12.414  1.00  0.00     0.140 A 
HETATM    4  N   UNL     1     -42.284 -49.503  12.367  1.00  0.00    -0.346 N 
ATOM      5  HN  UNL     1     -43.019 -48.819  12.183  1.00  0.00     0.167 HD
HETATM    6  C   UNL     1     -40.188 -48.399  11.376  1.00  0.00     0.114 A 
HETATM    7  C   UNL     1     -42.403 -50.653  12.992  1.00  0.00     0.185 A 
HETATM    8  N   UNL     1     -38.973 -50.845  12.240  1.00  0.00    -0.336 N 
ATOM      9  HN  UNL     1     -38.516 -51.696  12.567  1.00  0.00     0.168 HD
HETATM   10  N   UNL     1     -38.870 -48.682  11.147  1.00  0.00    -0.341 N 
ATOM     11  HN  UNL     1     -38.280 -48.012  10.654  1.00  0.00     0.167 HD
HETATM   12  C   UNL     1     -38.354 -49.851  11.577  1.00  0.00     0.183 A 
ENDROOT
BRANCH   6  13
HETATM   13  N   UNL     1     -40.708 -47.127  11.011  1.00  0.00    -0.262 NA
HETATM   14  C   UNL     1     -40.892 -46.239  12.173  1.00  0.00     0.137 C 
HETATM   15  C   UNL     1     -41.450 -44.864  11.743  1.00  0.00     0.097 C 
HETATM   16  O   UNL     1     -42.663 -45.019  10.968  1.00  0.00    -0.370 OA
HETATM   17  C   UNL     1     -40.438 -43.978  11.023  1.00  0.00     0.067 C 
HETATM   18  C   UNL     1     -41.793 -44.039  12.999  1.00  0.00     0.207 C 
HETATM   19  C   UNL     1     -42.506 -45.883   9.825  1.00  0.00     0.136 C 
HETATM   20  C   UNL     1     -41.946 -47.269  10.217  1.00  0.00     0.129 C 
HETATM   21  C   UNL     1     -40.781 -42.592  11.522  1.00  0.00     0.170 C 
HETATM   22  O   UNL     1     -41.152 -42.758  12.889  1.00  0.00    -0.388 OA
BRANCH  19  23
HETATM   23  C   UNL     1     -43.879 -46.056   9.158  1.00  0.00     0.029 C 
HETATM   24  C   UNL     1     -44.560 -47.363   9.536  1.00  0.00     0.007 C 
ENDBRANCH  19  23
ENDBRANCH   6  13
BRANCH   2  25
HETATM   25  C   UNL     1     -40.942 -52.467  13.925  1.00  0.00     0.165 C 
BRANCH  25  26
HETATM   26  C   UNL     1     -40.987 -53.823  13.203  1.00  0.00     0.165 C 
BRANCH  26  27
HETATM   27  C   UNL     1     -42.362 -54.512  13.283  1.00  0.00     0.151 C 
HETATM   28  O   UNL     1     -43.314 -53.817  12.447  1.00  0.00    -0.383 OA
HETATM   29  C   UNL     1     -44.626 -54.017  13.008  1.00  0.00     0.168 C 
HETATM   30  C   UNL     1     -44.458 -54.875  14.247  1.00  0.00     0.029 C 
HETATM   31  C   UNL     1     -43.023 -54.611  14.643  1.00  0.00     0.036 C 
ENDBRANCH  26  27
BRANCH  26  32
HETATM   32  O   UNL     1     -40.691 -53.637  11.806  1.00  0.00    -0.391 OA
HETATM   33  H   UNL     1     -41.366 -53.025  11.451  1.00  0.00     0.210 HD
ENDBRANCH  26  32
ENDBRANCH  25  26
ENDBRANCH   2  25
TORSDOF 6
ENDMDL
MODEL 3
REMARK VINA RESULT:      -7.2      2.583      3.113
REMARK  6 active torsions:
REMARK  status: ('A' for Active; 'I' for Inactive)
REMARK    1  A    between atoms: N_2  and  C_14 
REMARK    2  A    between atoms: N_4  and  C_7 
REMARK    3  A    between atoms: C_14  and  C_17 
REMARK    4  A    between atoms: C_17  and  C_21 
REMARK    5  A    between atoms: C_17  and  O_26 
REMARK    6  A    between atoms: C_20  and  C_29 
ROOT
HETATM    1  C   UNL     1     -41.990 -50.388  12.409  1.00  0.00     0.117 A 
HETATM    2  N   UNL     1     -42.025 -52.528  12.884  1.00  0.00    -0.325 N 
HETATM    3  C   UNL     1     -42.454 -51.309  13.342  1.00  0.00     0.140 A 
HETATM    4  N   UNL     1     -41.238 -51.028  11.440  1.00  0.00    -0.346 N 
ATOM      5  HN  UNL     1     -40.760 -50.602  10.646  1.00  0.00     0.167 HD
HETATM    6  C   UNL     1     -42.381 -49.031  12.582  1.00  0.00     0.114 A 
HETATM    7  C   UNL     1     -41.273 -52.302  11.762  1.00  0.00     0.185 A 
HETATM    8  N   UNL     1     -43.208 -51.063  14.424  1.00  0.00    -0.336 N 
ATOM      9  HN  UNL     1     -43.537 -51.776  15.075  1.00  0.00     0.168 HD
HETATM   10  N   UNL     1     -43.112 -48.749  13.703  1.00  0.00    -0.341 N 
ATOM     11  HN  UNL     1     -43.384 -47.788  13.909  1.00  0.00     0.167 HD
HETATM   12  C   UNL     1     -43.472 -49.748  14.533  1.00  0.00     0.183 A 
ENDROOT
BRANCH   6  13
HETATM   13  N   UNL     1     -42.086 -47.994  11.655  1.00  0.00    -0.262 NA
HETATM   14  C   UNL     1     -41.717 -46.732  12.320  1.00  0.00     0.137 C 
HETATM   15  C   UNL     1     -41.396 -45.629  11.287  1.00  0.00     0.097 C 
HETATM   16  O   UNL     1     -42.490 -45.462  10.353  1.00  0.00    -0.370 OA
HETATM   17  C   UNL     1     -40.068 -45.822  10.561  1.00  0.00     0.067 C 
HETATM   18  C   UNL     1     -41.193 -44.289  12.020  1.00  0.00     0.207 C 
HETATM   19  C   UNL     1     -42.867 -46.686   9.690  1.00  0.00     0.136 C 
HETATM   20  C   UNL     1     -43.193 -47.815  10.693  1.00  0.00     0.129 C 
HETATM   21  C   UNL     1     -39.553 -44.408  10.408  1.00  0.00     0.170 C 
HETATM   22  O   UNL     1     -39.937 -43.729  11.603  1.00  0.00    -0.388 OA
BRANCH  19  23
HETATM   23  C   UNL     1     -44.101 -46.401   8.820  1.00  0.00     0.029 C 
HETATM   24  C   UNL     1     -45.287 -47.287   9.169  1.00  0.00     0.007 C 
ENDBRANCH  19  23
ENDBRANCH   6  13
BRANCH   2  25
HETATM   25  C   UNL     1     -42.478 -53.830  13.345  1.00  0.00     0.165 C 
BRANCH  25  26
HETATM   26  C   UNL     1     -43.857 -54.257  12.818  1.00  0.00     0.165 C 
BRANCH  26  27
HETATM   27  C   UNL     1     -44.958 -54.227  13.894  1.00  0.00     0.151 C 
HETATM   28  O   UNL     1     -45.707 -52.994  13.802  1.00  0.00    -0.383 OA
HETATM   29  C   UNL     1     -46.222 -52.689  15.112  1.00  0.00     0.168 C 
HETATM   30  C   UNL     1     -45.759 -53.792  16.044  1.00  0.00     0.029 C 
HETATM   31  C   UNL     1     -44.530 -54.326  15.344  1.00  0.00     0.036 C 
ENDBRANCH  26  27
BRANCH  26  32
HETATM   32  O   UNL     1     -44.271 -53.363  11.768  1.00  0.00    -0.391 OA
HETATM   33  H   UNL     1     -43.637 -53.476  11.031  1.00  0.00     0.210 HD
ENDBRANCH  26  32
ENDBRANCH  25  26
ENDBRANCH   2  25
TORSDOF 6
ENDMDL
MODEL 4
REMARK VINA RESULT:      -7.2      2.217      8.918
REMARK  6 active torsions:
REMARK  status: ('A' for Active; 'I' for Inactive)
REMARK    1  A    between atoms: N_2  and  C_14 
REMARK    2  A    between atoms: N_4  and  C_7 
REMARK    3  A    between atoms: C_14  and  C_17 
REMARK    4  A    between atoms: C_17  and  C_21 
REMARK    5  A    between atoms: C_17  and  O_26 
REMARK    6  A    between atoms: C_20  and  C_29 
ROOT
HETATM    1  C   UNL     1     -41.912 -49.017  11.668  1.00  0.00     0.117 A 
HETATM    2  N   UNL     1     -42.338 -47.028  10.848  1.00  0.00    -0.325 N 
HETATM    3  C   UNL     1     -41.310 -47.824  11.282  1.00  0.00     0.140 A 
HETATM    4  N   UNL     1     -43.285 -48.922  11.531  1.00  0.00    -0.346 N 
ATOM      5  HN  UNL     1     -43.980 -49.635  11.756  1.00  0.00     0.167 HD
HETATM    6  C   UNL     1     -41.057 -50.078  12.073  1.00  0.00     0.114 A 
HETATM    7  C   UNL     1     -43.503 -47.719  11.050  1.00  0.00     0.185 A 
HETATM    8  N   UNL     1     -39.999 -47.536  11.282  1.00  0.00    -0.336 N 
ATOM      9  HN  UNL     1     -39.601 -46.648  10.976  1.00  0.00     0.168 HD
HETATM   10  N   UNL     1     -39.720 -49.794  12.123  1.00  0.00    -0.341 N 
ATOM     11  HN  UNL     1     -39.058 -50.497  12.450  1.00  0.00     0.167 HD
HETATM   12  C   UNL     1     -39.281 -48.578  11.739  1.00  0.00     0.183 A 
ENDROOT
BRANCH   6  13
HETATM   13  N   UNL     1     -41.509 -51.389  12.384  1.00  0.00    -0.262 NA
HETATM   14  C   UNL     1     -42.592 -51.390  13.383  1.00  0.00     0.137 C 
HETATM   15  C   UNL     1     -43.066 -52.828  13.693  1.00  0.00     0.097 C 
HETATM   16  O   UNL     1     -41.952 -53.665  14.085  1.00  0.00    -0.370 OA
HETATM   17  C   UNL     1     -43.880 -53.471  12.574  1.00  0.00     0.067 C 
HETATM   18  C   UNL     1     -44.066 -52.792  14.865  1.00  0.00     0.207 C 
HETATM   19  C   UNL     1     -40.880 -53.680  13.121  1.00  0.00     0.136 C 
HETATM   20  C   UNL     1     -40.382 -52.257  12.783  1.00  0.00     0.129 C 
HETATM   21  C   UNL     1     -44.916 -54.277  13.325  1.00  0.00     0.170 C 
HETATM   22  O   UNL     1     -45.255 -53.496  14.469  1.00  0.00    -0.388 OA
BRANCH  19  23
HETATM   23  C   UNL     1     -39.721 -54.505  13.701  1.00  0.00     0.029 C 
HETATM   24  C   UNL     1     -39.743 -54.567  15.221  1.00  0.00     0.007 C 
ENDBRANCH  19  23
ENDBRANCH   6  13
BRANCH   2  25
HETATM   25  C   UNL     1     -42.212 -45.794  10.090  1.00  0.00     0.165 C 
BRANCH  25  26
HETATM   26  C   UNL     1     -42.537 -44.516  10.880  1.00  0.00     0.165 C 
BRANCH  26  27
HETATM   27  C   UNL     1     -41.293 -43.673  11.215  1.00  0.00     0.151 C 
HETATM   28  O   UNL     1     -40.322 -44.480  11.919  1.00  0.00    -0.383 OA
HETATM   29  C   UNL     1     -39.545 -43.606  12.760  1.00  0.00     0.168 C 
HETATM   30  C   UNL     1     -40.074 -42.200  12.557  1.00  0.00     0.029 C 
HETATM   31  C   UNL     1     -41.487 -42.442  12.077  1.00  0.00     0.036 C 
ENDBRANCH  26  27
BRANCH  26  32
HETATM   32  O   UNL     1     -43.415 -43.679  10.103  1.00  0.00    -0.391 OA
HETATM   33  H   UNL     1     -42.852 -43.027   9.640  1.00  0.00     0.210 HD
ENDBRANCH  26  32
ENDBRANCH  25  26
ENDBRANCH   2  25
TORSDOF 6
ENDMDL
MODEL 5
REMARK VINA RESULT:      -7.1      1.894      2.290
REMARK  6 active torsions:
REMARK  status: ('A' for Active; 'I' for Inactive)
REMARK    1  A    between atoms: N_2  and  C_14 
REMARK    2  A    between atoms: N_4  and  C_7 
REMARK    3  A    between atoms: C_14  and  C_17 
REMARK    4  A    between atoms: C_17  and  C_21 
REMARK    5  A    between atoms: C_17  and  O_26 
REMARK    6  A    between atoms: C_20  and  C_29 
ROOT
HETATM    1  C   UNL     1     -40.962 -49.489  12.814  1.00  0.00     0.117 A 
HETATM    2  N   UNL     1     -40.156 -51.402  13.523  1.00  0.00    -0.325 N 
HETATM    3  C   UNL     1     -41.269 -50.604  13.587  1.00  0.00     0.140 A 
HETATM    4  N   UNL     1     -39.664 -49.579  12.344  1.00  0.00    -0.346 N 
ATOM      5  HN  UNL     1     -39.166 -48.900  11.769  1.00  0.00     0.167 HD
HETATM    6  C   UNL     1     -41.990 -48.527  12.620  1.00  0.00     0.114 A 
HETATM    7  C   UNL     1     -39.212 -50.728  12.795  1.00  0.00     0.185 A 
HETATM    8  N   UNL     1     -42.427 -50.867  14.213  1.00  0.00    -0.336 N 
ATOM      9  HN  UNL     1     -42.611 -51.708  14.760  1.00  0.00     0.168 HD
HETATM   10  N   UNL     1     -43.164 -48.751  13.285  1.00  0.00    -0.341 N 
ATOM     11  HN  UNL     1     -43.925 -48.075  13.224  1.00  0.00     0.167 HD
HETATM   12  C   UNL     1     -43.311 -49.872  14.020  1.00  0.00     0.183 A 
ENDROOT
BRANCH   6  13
HETATM   13  N   UNL     1     -41.871 -47.397  11.765  1.00  0.00    -0.262 NA
HETATM   14  C   UNL     1     -42.156 -46.130  12.463  1.00  0.00     0.137 C 
HETATM   15  C   UNL     1     -42.010 -44.923  11.510  1.00  0.00     0.097 C 
HETATM   16  O   UNL     1     -42.827 -45.097  10.327  1.00  0.00    -0.370 OA
HETATM   17  C   UNL     1     -40.567 -44.585  11.147  1.00  0.00     0.067 C 
HETATM   18  C   UNL     1     -42.489 -43.646  12.230  1.00  0.00     0.207 C 
HETATM   19  C   UNL     1     -42.564 -46.330   9.628  1.00  0.00     0.136 C 
HETATM   20  C   UNL     1     -42.696 -47.562  10.551  1.00  0.00     0.129 C 
HETATM   21  C   UNL     1     -40.575 -43.074  11.086  1.00  0.00     0.170 C 
HETATM   22  O   UNL     1     -41.457 -42.652  12.124  1.00  0.00    -0.388 OA
BRANCH  19  23
HETATM   23  C   UNL     1     -43.564 -46.449   8.468  1.00  0.00     0.029 C 
HETATM   24  C   UNL     1     -43.491 -47.794   7.760  1.00  0.00     0.007 C 
ENDBRANCH  19  23
ENDBRANCH   6  13
BRANCH   2  25
HETATM   25  C   UNL     1     -40.070 -52.794  13.929  1.00  0.00     0.165 C 
BRANCH  25  26
HETATM   26  C   UNL     1     -40.569 -53.804  12.884  1.00  0.00     0.165 C 
BRANCH  26  27
HETATM   27  C   UNL     1     -41.962 -54.376  13.203  1.00  0.00     0.151 C 
HETATM   28  O   UNL     1     -42.988 -53.533  12.632  1.00  0.00    -0.383 OA
HETATM   29  C   UNL     1     -44.173 -53.666  13.440  1.00  0.00     0.168 C 
HETATM   30  C   UNL     1     -43.847 -54.638  14.558  1.00  0.00     0.029 C 
HETATM   31  C   UNL     1     -42.342 -54.533  14.661  1.00  0.00     0.036 C 
ENDBRANCH  26  27
BRANCH  26  32
HETATM   32  O   UNL     1     -40.663 -53.162  11.598  1.00  0.00    -0.391 OA
HETATM   33  H   UNL     1     -39.773 -52.816  11.386  1.00  0.00     0.210 HD
ENDBRANCH  26  32
ENDBRANCH  25  26
ENDBRANCH   2  25
TORSDOF 6
ENDMDL
MODEL 6
REMARK VINA RESULT:      -7.0      2.300      8.791
REMARK  6 active torsions:
REMARK  status: ('A' for Active; 'I' for Inactive)
REMARK    1  A    between atoms: N_2  and  C_14 
REMARK    2  A    between atoms: N_4  and  C_7 
REMARK    3  A    between atoms: C_14  and  C_17 
REMARK    4  A    between atoms: C_17  and  C_21 
REMARK    5  A    between atoms: C_17  and  O_26 
REMARK    6  A    between atoms: C_20  and  C_29 
ROOT
HETATM    1  C   UNL     1     -41.975 -49.457  11.880  1.00  0.00     0.117 A 
HETATM    2  N   UNL     1     -42.492 -47.428  11.229  1.00  0.00    -0.325 N 
HETATM    3  C   UNL     1     -41.437 -48.297  11.334  1.00  0.00     0.140 A 
HETATM    4  N   UNL     1     -43.316 -49.273  12.161  1.00  0.00    -0.346 N 
ATOM      5  HN  UNL     1     -43.958 -49.944  12.583  1.00  0.00     0.167 HD
HETATM    6  C   UNL     1     -41.111 -50.579  12.009  1.00  0.00     0.114 A 
HETATM    7  C   UNL     1     -43.587 -48.048  11.770  1.00  0.00     0.185 A 
HETATM    8  N   UNL     1     -40.170 -48.093  10.941  1.00  0.00    -0.336 N 
ATOM      9  HN  UNL     1     -39.823 -47.225  10.532  1.00  0.00     0.168 HD
HETATM   10  N   UNL     1     -39.804 -50.381  11.657  1.00  0.00    -0.341 N 
ATOM     11  HN  UNL     1     -39.124 -51.132  11.769  1.00  0.00     0.167 HD
HETATM   12  C   UNL     1     -39.420 -49.188  11.160  1.00  0.00     0.183 A 
ENDROOT
BRANCH   6  13
HETATM   13  N   UNL     1     -41.536 -51.865  12.439  1.00  0.00    -0.262 NA
HETATM   14  C   UNL     1     -42.574 -51.796  13.483  1.00  0.00     0.137 C 
HETATM   15  C   UNL     1     -43.020 -53.209  13.923  1.00  0.00     0.097 C 
HETATM   16  O   UNL     1     -41.881 -54.007  14.327  1.00  0.00    -0.370 OA
HETATM   17  C   UNL     1     -43.876 -53.940  12.894  1.00  0.00     0.067 C 
HETATM   18  C   UNL     1     -43.967 -53.090  15.133  1.00  0.00     0.207 C 
HETATM   19  C   UNL     1     -40.854 -54.089  13.319  1.00  0.00     0.136 C 
HETATM   20  C   UNL     1     -40.384 -52.693  12.851  1.00  0.00     0.129 C 
HETATM   21  C   UNL     1     -44.871 -54.693  13.750  1.00  0.00     0.170 C 
HETATM   22  O   UNL     1     -45.165 -53.829  14.846  1.00  0.00    -0.388 OA
BRANCH  19  23
HETATM   23  C   UNL     1     -39.662 -54.860  13.907  1.00  0.00     0.029 C 
HETATM   24  C   UNL     1     -39.059 -54.177  15.125  1.00  0.00     0.007 C 
ENDBRANCH  19  23
ENDBRANCH   6  13
BRANCH   2  25
HETATM   25  C   UNL     1     -42.515 -46.189  10.470  1.00  0.00     0.165 C 
BRANCH  25  26
HETATM   26  C   UNL     1     -43.221 -46.279   9.108  1.00  0.00     0.165 C 
BRANCH  26  27
HETATM   27  C   UNL     1     -44.316 -47.360   9.058  1.00  0.00     0.151 C 
HETATM   28  O   UNL     1     -44.254 -48.071   7.801  1.00  0.00    -0.383 OA
HETATM   29  C   UNL     1     -45.576 -48.554   7.498  1.00  0.00     0.168 C 
HETATM   30  C   UNL     1     -46.485 -48.110   8.628  1.00  0.00     0.029 C 
HETATM   31  C   UNL     1     -45.756 -46.911   9.191  1.00  0.00     0.036 C 
ENDBRANCH  26  27
BRANCH  26  32
HETATM   32  O   UNL     1     -43.857 -45.022   8.809  1.00  0.00    -0.391 OA
HETATM   33  H   UNL     1     -43.401 -44.338   9.339  1.00  0.00     0.210 HD
ENDBRANCH  26  32
ENDBRANCH  25  26
ENDBRANCH   2  25
TORSDOF 6
ENDMDL
MODEL 7
REMARK VINA RESULT:      -6.9      2.364      9.045
REMARK  6 active torsions:
REMARK  status: ('A' for Active; 'I' for Inactive)
REMARK    1  A    between atoms: N_2  and  C_14 
REMARK    2  A    between atoms: N_4  and  C_7 
REMARK    3  A    between atoms: C_14  and  C_17 
REMARK    4  A    between atoms: C_17  and  C_21 
REMARK    5  A    between atoms: C_17  and  O_26 
REMARK    6  A    between atoms: C_20  and  C_29 
ROOT
HETATM    1  C   UNL     1     -41.083 -47.327  11.827  1.00  0.00     0.117 A 
HETATM    2  N   UNL     1     -40.434 -45.286  11.356  1.00  0.00    -0.325 N 
HETATM    3  C   UNL     1     -41.222 -46.307  10.891  1.00  0.00     0.140 A 
HETATM    4  N   UNL     1     -40.179 -46.956  12.805  1.00  0.00    -0.346 N 
ATOM      5  HN  UNL     1     -39.869 -47.510  13.604  1.00  0.00     0.167 HD
HETATM    6  C   UNL     1     -41.881 -48.490  11.647  1.00  0.00     0.114 A 
HETATM    7  C   UNL     1     -39.805 -45.738  12.486  1.00  0.00     0.185 A 
HETATM    8  N   UNL     1     -42.002 -46.304   9.800  1.00  0.00    -0.336 N 
ATOM      9  HN  UNL     1     -42.081 -45.524   9.147  1.00  0.00     0.168 HD
HETATM   10  N   UNL     1     -42.651 -48.528  10.517  1.00  0.00    -0.341 N 
ATOM     11  HN  UNL     1     -43.211 -49.354  10.306  1.00  0.00     0.167 HD
HETATM   12  C   UNL     1     -42.667 -47.468   9.684  1.00  0.00     0.183 A 
ENDROOT
BRANCH   6  13
HETATM   13  N   UNL     1     -41.941 -49.566  12.574  1.00  0.00    -0.262 NA
HETATM   14  C   UNL     1     -41.340 -50.802  12.043  1.00  0.00     0.137 C 
HETATM   15  C   UNL     1     -41.413 -51.948  13.077  1.00  0.00     0.097 C 
HETATM   16  O   UNL     1     -42.774 -52.146  13.532  1.00  0.00    -0.370 OA
HETATM   17  C   UNL     1     -40.450 -51.793  14.250  1.00  0.00     0.067 C 
HETATM   18  C   UNL     1     -40.940 -53.259  12.418  1.00  0.00     0.207 C 
HETATM   19  C   UNL     1     -43.381 -50.949  14.057  1.00  0.00     0.136 C 
HETATM   20  C   UNL     1     -43.323 -49.778  13.051  1.00  0.00     0.129 C 
HETATM   21  C   UNL     1     -40.015 -53.215  14.526  1.00  0.00     0.170 C 
HETATM   22  O   UNL     1     -39.923 -53.842  13.248  1.00  0.00    -0.388 OA
BRANCH  19  23
HETATM   23  C   UNL     1     -44.847 -51.261  14.396  1.00  0.00     0.029 C 
HETATM   24  C   UNL     1     -45.703 -51.493  13.161  1.00  0.00     0.007 C 
ENDBRANCH  19  23
ENDBRANCH   6  13
BRANCH   2  25
HETATM   25  C   UNL     1     -40.446 -43.909  10.892  1.00  0.00     0.165 C 
BRANCH  25  26
HETATM   26  C   UNL     1     -41.626 -43.067  11.404  1.00  0.00     0.165 C 
BRANCH  26  27
HETATM   27  C   UNL     1     -41.195 -41.897  12.308  1.00  0.00     0.151 C 
HETATM   28  O   UNL     1     -41.268 -40.652  11.577  1.00  0.00    -0.383 OA
HETATM   29  C   UNL     1     -40.300 -39.748  12.143  1.00  0.00     0.168 C 
HETATM   30  C   UNL     1     -39.603 -40.485  13.270  1.00  0.00     0.029 C 
HETATM   31  C   UNL     1     -39.797 -41.936  12.890  1.00  0.00     0.036 C 
ENDBRANCH  26  27
BRANCH  26  32
HETATM   32  O   UNL     1     -42.332 -42.496  10.285  1.00  0.00    -0.391 OA
HETATM   33  H   UNL     1     -43.107 -42.023  10.649  1.00  0.00     0.210 HD
ENDBRANCH  26  32
ENDBRANCH  25  26
ENDBRANCH   2  25
TORSDOF 6
ENDMDL
MODEL 8
REMARK VINA RESULT:      -6.7      4.141      5.612
REMARK  6 active torsions:
REMARK  status: ('A' for Active; 'I' for Inactive)
REMARK    1  A    between atoms: N_2  and  C_14 
REMARK    2  A    between atoms: N_4  and  C_7 
REMARK    3  A    between atoms: C_14  and  C_17 
REMARK    4  A    between atoms: C_17  and  C_21 
REMARK    5  A    between atoms: C_17  and  O_26 
REMARK    6  A    between atoms: C_20  and  C_29 
ROOT
HETATM    1  C   UNL     1     -39.738 -49.016  13.550  1.00  0.00     0.117 A 
HETATM    2  N   UNL     1     -38.488 -49.766  15.188  1.00  0.00    -0.325 N 
HETATM    3  C   UNL     1     -38.582 -49.741  13.821  1.00  0.00     0.140 A 
HETATM    4  N   UNL     1     -40.366 -48.663  14.730  1.00  0.00    -0.346 N 
ATOM      5  HN  UNL     1     -41.239 -48.146  14.836  1.00  0.00     0.167 HD
HETATM    6  C   UNL     1     -40.031 -48.744  12.185  1.00  0.00     0.114 A 
HETATM    7  C   UNL     1     -39.598 -49.136  15.686  1.00  0.00     0.185 A 
HETATM    8  N   UNL     1     -37.717 -50.256  12.934  1.00  0.00    -0.336 N 
ATOM      9  HN  UNL     1     -36.872 -50.772  13.181  1.00  0.00     0.168 HD
HETATM   10  N   UNL     1     -39.188 -49.297  11.262  1.00  0.00    -0.341 N 
ATOM     11  HN  UNL     1     -39.370 -49.178  10.265  1.00  0.00     0.167 HD
HETATM   12  C   UNL     1     -38.114 -49.999  11.675  1.00  0.00     0.183 A 
ENDROOT
BRANCH   6  13
HETATM   13  N   UNL     1     -41.106 -47.920  11.752  1.00  0.00    -0.262 NA
HETATM   14  C   UNL     1     -41.586 -48.281  10.406  1.00  0.00     0.137 C 
HETATM   15  C   UNL     1     -42.758 -47.374   9.969  1.00  0.00     0.097 C 
HETATM   16  O   UNL     1     -42.393 -45.977  10.068  1.00  0.00    -0.370 OA
HETATM   17  C   UNL     1     -44.071 -47.661  10.690  1.00  0.00     0.067 C 
HETATM   18  C   UNL     1     -43.106 -47.668   8.496  1.00  0.00     0.207 C 
HETATM   19  C   UNL     1     -41.922 -45.601  11.378  1.00  0.00     0.136 C 
HETATM   20  C   UNL     1     -40.750 -46.490  11.852  1.00  0.00     0.129 C 
HETATM   21  C   UNL     1     -45.109 -47.446   9.610  1.00  0.00     0.170 C 
HETATM   22  O   UNL     1     -44.515 -47.931   8.407  1.00  0.00    -0.388 OA
BRANCH  19  23
HETATM   23  C   UNL     1     -41.463 -44.135  11.322  1.00  0.00     0.029 C 
HETATM   24  C   UNL     1     -39.958 -43.993  11.157  1.00  0.00     0.007 C 
ENDBRANCH  19  23
ENDBRANCH   6  13
BRANCH   2  25
HETATM   25  C   UNL     1     -37.324 -50.158  15.965  1.00  0.00     0.165 C 
BRANCH  25  26
HETATM   26  C   UNL     1     -36.118 -49.213  15.842  1.00  0.00     0.165 C 
BRANCH  26  27
HETATM   27  C   UNL     1     -36.181 -48.015  16.808  1.00  0.00     0.151 C 
HETATM   28  O   UNL     1     -34.845 -47.558  17.118  1.00  0.00    -0.383 OA
HETATM   29  C   UNL     1     -34.875 -46.956  18.427  1.00  0.00     0.168 C 
HETATM   30  C   UNL     1     -36.300 -47.057  18.934  1.00  0.00     0.029 C 
HETATM   31  C   UNL     1     -36.852 -48.225  18.149  1.00  0.00     0.036 C 
ENDBRANCH  26  27
BRANCH  26  32
HETATM   32  O   UNL     1     -34.908 -49.933  16.144  1.00  0.00    -0.391 OA
HETATM   33  H   UNL     1     -34.642 -49.678  17.050  1.00  0.00     0.210 HD
ENDBRANCH  26  32
ENDBRANCH  25  26
ENDBRANCH   2  25
TORSDOF 6
ENDMDL
MODEL 9
REMARK VINA RESULT:      -6.7      2.772      8.763
REMARK  6 active torsions:
REMARK  status: ('A' for Active; 'I' for Inactive)
REMARK    1  A    between atoms: N_2  and  C_14 
REMARK    2  A    between atoms: N_4  and  C_7 
REMARK    3  A    between atoms: C_14  and  C_17 
REMARK    4  A    between atoms: C_17  and  C_21 
REMARK    5  A    between atoms: C_17  and  O_26 
REMARK    6  A    between atoms: C_20  and  C_29 
ROOT
HETATM    1  C   UNL     1     -41.466 -49.083  13.225  1.00  0.00     0.117 A 
HETATM    2  N   UNL     1     -40.479 -47.203  12.676  1.00  0.00    -0.325 N 
HETATM    3  C   UNL     1     -40.651 -48.498  12.261  1.00  0.00     0.140 A 
HETATM    4  N   UNL     1     -41.729 -48.179  14.238  1.00  0.00    -0.346 N 
ATOM      5  HN  UNL     1     -42.281 -48.338  15.081  1.00  0.00     0.167 HD
HETATM    6  C   UNL     1     -41.895 -50.418  12.993  1.00  0.00     0.114 A 
HETATM    7  C   UNL     1     -41.116 -47.072  13.882  1.00  0.00     0.185 A 
HETATM    8  N   UNL     1     -40.183 -49.064  11.138  1.00  0.00    -0.336 N 
ATOM      9  HN  UNL     1     -39.597 -48.589  10.451  1.00  0.00     0.168 HD
HETATM   10  N   UNL     1     -41.394 -51.031  11.877  1.00  0.00    -0.341 N 
ATOM     11  HN  UNL     1     -41.626 -52.004  11.679  1.00  0.00     0.167 HD
HETATM   12  C   UNL     1     -40.592 -50.342  11.041  1.00  0.00     0.183 A 
ENDROOT
BRANCH   6  13
HETATM   13  N   UNL     1     -42.819 -51.112  13.821  1.00  0.00    -0.262 NA
HETATM   14  C   UNL     1     -42.530 -52.555  13.902  1.00  0.00     0.137 C 
HETATM   15  C   UNL     1     -43.546 -53.278  14.814  1.00  0.00     0.097 C 
HETATM   16  O   UNL     1     -44.904 -53.010  14.389  1.00  0.00    -0.370 OA
HETATM   17  C   UNL     1     -43.361 -52.994  16.302  1.00  0.00     0.067 C 
HETATM   18  C   UNL     1     -43.315 -54.800  14.726  1.00  0.00     0.207 C 
HETATM   19  C   UNL     1     -45.209 -51.603  14.304  1.00  0.00     0.136 C 
HETATM   20  C   UNL     1     -44.210 -50.845  13.401  1.00  0.00     0.129 C 
HETATM   21  C   UNL     1     -43.689 -54.322  16.947  1.00  0.00     0.170 C 
HETATM   22  O   UNL     1     -43.179 -55.316  16.060  1.00  0.00    -0.388 OA
BRANCH  19  23
HETATM   23  C   UNL     1     -46.629 -51.452  13.738  1.00  0.00     0.029 C 
HETATM   24  C   UNL     1     -46.687 -51.637  12.229  1.00  0.00     0.007 C 
ENDBRANCH  19  23
ENDBRANCH   6  13
BRANCH   2  25
HETATM   25  C   UNL     1     -39.943 -46.109  11.885  1.00  0.00     0.165 C 
BRANCH  25  26
HETATM   26  C   UNL     1     -40.961 -45.420  10.962  1.00  0.00     0.165 C 
BRANCH  26  27
HETATM   27  C   UNL     1     -41.503 -44.096  11.532  1.00  0.00     0.151 C 
HETATM   28  O   UNL     1     -42.679 -43.685  10.798  1.00  0.00    -0.383 OA
HETATM   29  C   UNL     1     -42.765 -42.249  10.865  1.00  0.00     0.168 C 
HETATM   30  C   UNL     1     -41.579 -41.766  11.679  1.00  0.00     0.029 C 
HETATM   31  C   UNL     1     -40.584 -42.893  11.517  1.00  0.00     0.036 C 
ENDBRANCH  26  27
BRANCH  26  32
HETATM   32  O   UNL     1     -40.338 -45.110   9.701  1.00  0.00    -0.391 OA
HETATM   33  H   UNL     1     -41.024 -45.211   9.011  1.00  0.00     0.210 HD
ENDBRANCH  26  32
ENDBRANCH  25  26
ENDBRANCH   2  25
TORSDOF 6
ENDMDL
