MODEL 1
REMARK VINA RESULT:      -6.3      0.000      0.000
REMARK  4 active torsions:
REMARK  status: ('A' for Active; 'I' for Inactive)
REMARK    1  A    between atoms: C_4  and  N_5 
REMARK       I    between atoms: N_5  and  C_6 
REMARK       I    between atoms: C_6  and  N_8 
REMARK    2  A    between atoms: N_8  and  C_9 
REMARK    3  A    between atoms: C_9  and  C_10 
REMARK    4  A    between atoms: C_10  and  N_11 
ROOT
HETATM    1  N   UNL     1     -41.515 -47.836  10.176  1.00  0.00    -0.293 N 
HETATM    2  C   UNL     1     -41.086 -48.756  11.082  1.00  0.00     0.321 C 
HETATM    3  O   UNL     1     -39.967 -48.635  11.576  1.00  0.00    -0.247 OA
HETATM    4  N   UNL     1     -41.930 -49.788  11.366  1.00  0.00    -0.341 N 
HETATM    5  H   UNL     1     -40.834 -47.124   9.959  1.00  0.00     0.172 HD
HETATM    6  H   UNL     1     -42.900 -49.645  11.100  1.00  0.00     0.164 HD
ENDROOT
BRANCH   1   7
HETATM    7  C   UNL     1     -42.746 -47.767   9.561  1.00  0.00     0.132 A 
HETATM    8  C   UNL     1     -43.925 -47.295  10.180  1.00  0.00     0.084 A 
HETATM    9  C   UNL     1     -44.890 -47.406   9.212  1.00  0.00     0.076 A 
HETATM   10  C   UNL     1     -46.324 -47.097   9.130  1.00  0.00     0.079 C 
HETATM   11  O   UNL     1     -44.335 -47.921   8.085  1.00  0.00    -0.241 OA
HETATM   12  N   UNL     1     -42.997 -48.152   8.304  1.00  0.00    -0.245 N 
ATOM     13  HN  UNL     1     -42.327 -48.540   7.639  1.00  0.00     0.196 HD
ENDBRANCH   1   7
BRANCH   4  14
HETATM   14  C   UNL     1     -41.650 -50.706  12.440  1.00  0.00     0.154 C 
BRANCH  14  15
HETATM   15  C   UNL     1     -41.885 -52.177  12.061  1.00  0.00     0.292 C 
BRANCH  15  16
HETATM   16  N   UNL     1     -42.773 -52.814  13.036  1.00  0.00     0.090 N 
HETATM   17  C   UNL     1     -42.121 -53.886  13.795  1.00  0.00     0.272 C 
HETATM   18  C   UNL     1     -43.274 -54.698  14.365  1.00  0.00     0.032 C 
HETATM   19  C   UNL     1     -44.516 -54.156  13.669  1.00  0.00     0.032 C 
HETATM   20  C   UNL     1     -43.968 -53.423  12.457  1.00  0.00     0.272 C 
ENDBRANCH  15  16
ENDBRANCH  14  15
ENDBRANCH   4  14
TORSDOF 4
ENDMDL
MODEL 2
REMARK VINA RESULT:      -6.3      1.453      2.064
REMARK  4 active torsions:
REMARK  status: ('A' for Active; 'I' for Inactive)
REMARK    1  A    between atoms: C_4  and  N_5 
REMARK       I    between atoms: N_5  and  C_6 
REMARK       I    between atoms: C_6  and  N_8 
REMARK    2  A    between atoms: N_8  and  C_9 
REMARK    3  A    between atoms: C_9  and  C_10 
REMARK    4  A    between atoms: C_10  and  N_11 
ROOT
HETATM    1  N   UNL     1     -41.539 -47.809  10.129  1.00  0.00    -0.293 N 
HETATM    2  C   UNL     1     -41.136 -48.712  11.064  1.00  0.00     0.321 C 
HETATM    3  O   UNL     1     -40.016 -48.605  11.559  1.00  0.00    -0.247 OA
HETATM    4  N   UNL     1     -42.008 -49.713  11.377  1.00  0.00    -0.341 N 
HETATM    5  H   UNL     1     -40.839 -47.122   9.894  1.00  0.00     0.172 HD
HETATM    6  H   UNL     1     -42.973 -49.553  11.103  1.00  0.00     0.164 HD
ENDROOT
BRANCH   1   7
HETATM    7  C   UNL     1     -42.766 -47.728   9.508  1.00  0.00     0.132 A 
HETATM    8  C   UNL     1     -43.963 -47.336  10.149  1.00  0.00     0.084 A 
HETATM    9  C   UNL     1     -44.916 -47.400   9.163  1.00  0.00     0.076 A 
HETATM   10  C   UNL     1     -46.358 -47.125   9.090  1.00  0.00     0.079 C 
HETATM   11  O   UNL     1     -44.337 -47.813   8.007  1.00  0.00    -0.241 OA
HETATM   12  N   UNL     1     -42.995 -48.022   8.222  1.00  0.00    -0.245 N 
ATOM     13  HN  UNL     1     -42.309 -48.340   7.537  1.00  0.00     0.196 HD
ENDBRANCH   1   7
BRANCH   4  14
HETATM   14  C   UNL     1     -41.755 -50.605  12.480  1.00  0.00     0.154 C 
BRANCH  14  15
HETATM   15  C   UNL     1     -41.746 -52.087  12.075  1.00  0.00     0.292 C 
BRANCH  15  16
HETATM   16  N   UNL     1     -40.566 -52.756  12.627  1.00  0.00     0.090 N 
HETATM   17  C   UNL     1     -40.842 -54.118  13.097  1.00  0.00     0.272 C 
HETATM   18  C   UNL     1     -39.681 -54.436  14.026  1.00  0.00     0.032 C 
HETATM   19  C   UNL     1     -38.949 -53.113  14.206  1.00  0.00     0.032 C 
HETATM   20  C   UNL     1     -39.961 -52.070  13.764  1.00  0.00     0.272 C 
ENDBRANCH  15  16
ENDBRANCH  14  15
ENDBRANCH   4  14
TORSDOF 4
ENDMDL
MODEL 3
REMARK VINA RESULT:      -6.3      1.597      1.767
REMARK  4 active torsions:
REMARK  status: ('A' for Active; 'I' for Inactive)
REMARK    1  A    between atoms: C_4  and  N_5 
REMARK       I    between atoms: N_5  and  C_6 
REMARK       I    between atoms: C_6  and  N_8 
REMARK    2  A    between atoms: N_8  and  C_9 
REMARK    3  A    between atoms: C_9  and  C_10 
REMARK    4  A    between atoms: C_10  and  N_11 
ROOT
HETATM    1  N   UNL     1     -41.551 -47.939  10.155  1.00  0.00    -0.293 N 
HETATM    2  C   UNL     1     -41.207 -48.792  11.158  1.00  0.00     0.321 C 
HETATM    3  O   UNL     1     -40.077 -48.730  11.638  1.00  0.00    -0.247 OA
HETATM    4  N   UNL     1     -42.147 -49.698  11.552  1.00  0.00    -0.341 N 
HETATM    5  H   UNL     1     -40.804 -47.326   9.864  1.00  0.00     0.172 HD
HETATM    6  H   UNL     1     -43.100 -49.488  11.270  1.00  0.00     0.164 HD
ENDROOT
BRANCH   1   7
HETATM    7  C   UNL     1     -42.774 -47.815   9.534  1.00  0.00     0.132 A 
HETATM    8  C   UNL     1     -43.941 -47.318  10.156  1.00  0.00     0.084 A 
HETATM    9  C   UNL     1     -44.902 -47.375   9.178  1.00  0.00     0.076 A 
HETATM   10  C   UNL     1     -46.324 -47.017   9.095  1.00  0.00     0.079 C 
HETATM   11  O   UNL     1     -44.356 -47.882   8.044  1.00  0.00    -0.241 OA
HETATM   12  N   UNL     1     -43.028 -48.162   8.266  1.00  0.00    -0.245 N 
ATOM     13  HN  UNL     1     -42.366 -48.556   7.597  1.00  0.00     0.196 HD
ENDBRANCH   1   7
BRANCH   4  14
HETATM   14  C   UNL     1     -41.951 -50.516  12.721  1.00  0.00     0.154 C 
BRANCH  14  15
HETATM   15  C   UNL     1     -42.911 -51.714  12.794  1.00  0.00     0.292 C 
BRANCH  15  16
HETATM   16  N   UNL     1     -44.226 -51.279  13.269  1.00  0.00     0.090 N 
HETATM   17  C   UNL     1     -44.301 -51.157  14.728  1.00  0.00     0.272 C 
HETATM   18  C   UNL     1     -45.792 -51.174  15.031  1.00  0.00     0.032 C 
HETATM   19  C   UNL     1     -46.453 -51.559  13.714  1.00  0.00     0.032 C 
HETATM   20  C   UNL     1     -45.325 -52.167  12.899  1.00  0.00     0.272 C 
ENDBRANCH  15  16
ENDBRANCH  14  15
ENDBRANCH   4  14
TORSDOF 4
ENDMDL
MODEL 4
REMARK VINA RESULT:      -5.8      2.982      4.075
REMARK  4 active torsions:
REMARK  status: ('A' for Active; 'I' for Inactive)
REMARK    1  A    between atoms: C_4  and  N_5 
REMARK       I    between atoms: N_5  and  C_6 
REMARK       I    between atoms: C_6  and  N_8 
REMARK    2  A    between atoms: N_8  and  C_9 
REMARK    3  A    between atoms: C_9  and  C_10 
REMARK    4  A    between atoms: C_10  and  N_11 
ROOT
HETATM    1  N   UNL     1     -42.018 -46.748   9.952  1.00  0.00    -0.293 N 
HETATM    2  C   UNL     1     -41.049 -47.467  10.581  1.00  0.00     0.321 C 
HETATM    3  O   UNL     1     -40.137 -46.874  11.153  1.00  0.00    -0.247 OA
HETATM    4  N   UNL     1     -41.140 -48.826  10.511  1.00  0.00    -0.341 N 
HETATM    5  H   UNL     1     -41.876 -45.749   9.987  1.00  0.00     0.172 HD
HETATM    6  H   UNL     1     -42.050 -49.189  10.242  1.00  0.00     0.164 HD
ENDROOT
BRANCH   1   7
HETATM    7  C   UNL     1     -43.141 -47.223   9.313  1.00  0.00     0.132 A 
HETATM    8  C   UNL     1     -44.412 -47.351   9.917  1.00  0.00     0.084 A 
HETATM    9  C   UNL     1     -45.214 -47.857   8.925  1.00  0.00     0.076 A 
HETATM   10  C   UNL     1     -46.633 -48.225   8.820  1.00  0.00     0.079 C 
HETATM   11  O   UNL     1     -44.476 -48.034   7.800  1.00  0.00    -0.241 OA
HETATM   12  N   UNL     1     -43.180 -47.643   8.042  1.00  0.00    -0.245 N 
ATOM     13  HN  UNL     1     -42.401 -47.668   7.383  1.00  0.00     0.196 HD
ENDBRANCH   1   7
BRANCH   4  14
HETATM   14  C   UNL     1     -40.276 -49.672  11.293  1.00  0.00     0.154 C 
BRANCH  14  15
HETATM   15  C   UNL     1     -40.740 -49.836  12.749  1.00  0.00     0.292 C 
BRANCH  15  16
HETATM   16  N   UNL     1     -39.681 -49.415  13.668  1.00  0.00     0.090 N 
HETATM   17  C   UNL     1     -39.995 -48.171  14.379  1.00  0.00     0.272 C 
HETATM   18  C   UNL     1     -38.648 -47.673  14.878  1.00  0.00     0.032 C 
HETATM   19  C   UNL     1     -37.622 -48.563  14.189  1.00  0.00     0.032 C 
HETATM   20  C   UNL     1     -38.388 -49.180  13.031  1.00  0.00     0.272 C 
ENDBRANCH  15  16
ENDBRANCH  14  15
ENDBRANCH   4  14
TORSDOF 4
ENDMDL
MODEL 5
REMARK VINA RESULT:      -5.8      2.272      3.720
REMARK  4 active torsions:
REMARK  status: ('A' for Active; 'I' for Inactive)
REMARK    1  A    between atoms: C_4  and  N_5 
REMARK       I    between atoms: N_5  and  C_6 
REMARK       I    between atoms: C_6  and  N_8 
REMARK    2  A    between atoms: N_8  and  C_9 
REMARK    3  A    between atoms: C_9  and  C_10 
REMARK    4  A    between atoms: C_10  and  N_11 
ROOT
HETATM    1  N   UNL     1     -40.221 -51.495  11.963  1.00  0.00    -0.293 N 
HETATM    2  C   UNL     1     -40.820 -52.640  12.391  1.00  0.00     0.321 C 
HETATM    3  O   UNL     1     -40.123 -53.560  12.814  1.00  0.00    -0.247 OA
HETATM    4  N   UNL     1     -42.178 -52.703  12.294  1.00  0.00    -0.341 N 
HETATM    5  H   UNL     1     -39.213 -51.519  12.004  1.00  0.00     0.172 HD
HETATM    6  H   UNL     1     -42.650 -51.812  12.176  1.00  0.00     0.164 HD
ENDROOT
BRANCH   1   7
HETATM    7  C   UNL     1     -40.827 -50.343  11.514  1.00  0.00     0.132 A 
HETATM    8  C   UNL     1     -41.763 -49.589  12.257  1.00  0.00     0.084 A 
HETATM    9  C   UNL     1     -42.096 -48.545  11.431  1.00  0.00     0.076 A 
HETATM   10  C   UNL     1     -42.981 -47.377  11.535  1.00  0.00     0.079 C 
HETATM   11  O   UNL     1     -41.414 -48.664  10.263  1.00  0.00    -0.241 OA
HETATM   12  N   UNL     1     -40.625 -49.789  10.312  1.00  0.00    -0.245 N 
ATOM     13  HN  UNL     1     -40.007 -50.134   9.577  1.00  0.00     0.196 HD
ENDBRANCH   1   7
BRANCH   4  14
HETATM   14  C   UNL     1     -42.918 -53.788  12.887  1.00  0.00     0.154 C 
BRANCH  14  15
HETATM   15  C   UNL     1     -44.422 -53.743  12.572  1.00  0.00     0.292 C 
BRANCH  15  16
HETATM   16  N   UNL     1     -45.122 -52.927  13.566  1.00  0.00     0.090 N 
HETATM   17  C   UNL     1     -46.016 -53.708  14.428  1.00  0.00     0.272 C 
HETATM   18  C   UNL     1     -46.960 -52.675  15.023  1.00  0.00     0.032 C 
HETATM   19  C   UNL     1     -46.679 -51.394  14.248  1.00  0.00     0.032 C 
HETATM   20  C   UNL     1     -45.956 -51.871  12.999  1.00  0.00     0.272 C 
ENDBRANCH  15  16
ENDBRANCH  14  15
ENDBRANCH   4  14
TORSDOF 4
ENDMDL
MODEL 6
REMARK VINA RESULT:      -5.7      2.628      3.507
REMARK  4 active torsions:
REMARK  status: ('A' for Active; 'I' for Inactive)
REMARK    1  A    between atoms: C_4  and  N_5 
REMARK       I    between atoms: N_5  and  C_6 
REMARK       I    between atoms: C_6  and  N_8 
REMARK    2  A    between atoms: N_8  and  C_9 
REMARK    3  A    between atoms: C_9  and  C_10 
REMARK    4  A    between atoms: C_10  and  N_11 
ROOT
HETATM    1  N   UNL     1     -40.431 -50.524  11.120  1.00  0.00    -0.293 N 
HETATM    2  C   UNL     1     -41.098 -51.507  11.785  1.00  0.00     0.321 C 
HETATM    3  O   UNL     1     -40.605 -52.632  11.844  1.00  0.00    -0.247 OA
HETATM    4  N   UNL     1     -42.304 -51.180  12.330  1.00  0.00    -0.341 N 
HETATM    5  H   UNL     1     -39.572 -50.830  10.689  1.00  0.00     0.172 HD
HETATM    6  H   UNL     1     -42.480 -50.186  12.437  1.00  0.00     0.164 HD
ENDROOT
BRANCH   1   7
HETATM    7  C   UNL     1     -40.787 -49.200  10.994  1.00  0.00     0.132 A 
HETATM    8  C   UNL     1     -40.439 -48.187  11.916  1.00  0.00     0.084 A 
HETATM    9  C   UNL     1     -40.997 -47.045  11.398  1.00  0.00     0.076 A 
HETATM   10  C   UNL     1     -41.034 -45.632  11.797  1.00  0.00     0.079 C 
HETATM   11  O   UNL     1     -41.647 -47.348  10.245  1.00  0.00    -0.241 OA
HETATM   12  N   UNL     1     -41.521 -48.695   9.995  1.00  0.00    -0.245 N 
ATOM     13  HN  UNL     1     -41.910 -49.208   9.204  1.00  0.00     0.196 HD
ENDBRANCH   1   7
BRANCH   4  14
HETATM   14  C   UNL     1     -42.997 -52.090  13.206  1.00  0.00     0.154 C 
BRANCH  14  15
HETATM   15  C   UNL     1     -44.043 -52.953  12.483  1.00  0.00     0.292 C 
BRANCH  15  16
HETATM   16  N   UNL     1     -45.358 -52.783  13.106  1.00  0.00     0.090 N 
HETATM   17  C   UNL     1     -45.704 -51.378  13.345  1.00  0.00     0.272 C 
HETATM   18  C   UNL     1     -46.816 -51.437  14.382  1.00  0.00     0.032 C 
HETATM   19  C   UNL     1     -46.846 -52.888  14.841  1.00  0.00     0.032 C 
HETATM   20  C   UNL     1     -45.502 -53.442  14.401  1.00  0.00     0.272 C 
ENDBRANCH  15  16
ENDBRANCH  14  15
ENDBRANCH   4  14
TORSDOF 4
ENDMDL
MODEL 7
REMARK VINA RESULT:      -5.6      4.191      6.224
REMARK  4 active torsions:
REMARK  status: ('A' for Active; 'I' for Inactive)
REMARK    1  A    between atoms: C_4  and  N_5 
REMARK       I    between atoms: N_5  and  C_6 
REMARK       I    between atoms: C_6  and  N_8 
REMARK    2  A    between atoms: N_8  and  C_9 
REMARK    3  A    between atoms: C_9  and  C_10 
REMARK    4  A    between atoms: C_10  and  N_11 
ROOT
HETATM    1  N   UNL     1     -41.691 -48.001  10.528  1.00  0.00    -0.293 N 
HETATM    2  C   UNL     1     -40.720 -47.086  10.798  1.00  0.00     0.321 C 
HETATM    3  O   UNL     1     -39.732 -47.432  11.442  1.00  0.00    -0.247 OA
HETATM    4  N   UNL     1     -40.924 -45.814  10.351  1.00  0.00    -0.341 N 
HETATM    5  H   UNL     1     -41.518 -48.912  10.926  1.00  0.00     0.172 HD
HETATM    6  H   UNL     1     -41.632 -45.713   9.630  1.00  0.00     0.164 HD
ENDROOT
BRANCH   1   7
HETATM    7  C   UNL     1     -42.833 -47.823   9.779  1.00  0.00     0.132 A 
HETATM    8  C   UNL     1     -44.100 -47.503  10.315  1.00  0.00     0.084 A 
HETATM    9  C   UNL     1     -44.926 -47.426   9.221  1.00  0.00     0.076 A 
HETATM   10  C   UNL     1     -46.349 -47.125   9.011  1.00  0.00     0.079 C 
HETATM   11  O   UNL     1     -44.209 -47.692   8.100  1.00  0.00    -0.241 OA
HETATM   12  N   UNL     1     -42.902 -47.945   8.447  1.00  0.00    -0.245 N 
ATOM     13  HN  UNL     1     -42.137 -48.180   7.815  1.00  0.00     0.196 HD
ENDBRANCH   1   7
BRANCH   4  14
HETATM   14  C   UNL     1     -39.881 -44.823  10.422  1.00  0.00     0.154 C 
BRANCH  14  15
HETATM   15  C   UNL     1     -40.332 -43.510  11.083  1.00  0.00     0.292 C 
BRANCH  15  16
HETATM   16  N   UNL     1     -40.139 -43.582  12.533  1.00  0.00     0.090 N 
HETATM   17  C   UNL     1     -39.035 -44.464  12.924  1.00  0.00     0.272 C 
HETATM   18  C   UNL     1     -39.300 -44.769  14.391  1.00  0.00     0.032 C 
HETATM   19  C   UNL     1     -40.696 -44.223  14.658  1.00  0.00     0.032 C 
HETATM   20  C   UNL     1     -41.301 -44.065  13.273  1.00  0.00     0.272 C 
ENDBRANCH  15  16
ENDBRANCH  14  15
ENDBRANCH   4  14
TORSDOF 4
ENDMDL
MODEL 8
REMARK VINA RESULT:      -5.5      4.122      5.802
REMARK  4 active torsions:
REMARK  status: ('A' for Active; 'I' for Inactive)
REMARK    1  A    between atoms: C_4  and  N_5 
REMARK       I    between atoms: N_5  and  C_6 
REMARK       I    between atoms: C_6  and  N_8 
REMARK    2  A    between atoms: N_8  and  C_9 
REMARK    3  A    between atoms: C_9  and  C_10 
REMARK    4  A    between atoms: C_10  and  N_11 
ROOT
HETATM    1  N   UNL     1     -43.168 -52.685  11.805  1.00  0.00    -0.293 N 
HETATM    2  C   UNL     1     -43.985 -53.426  12.602  1.00  0.00     0.321 C 
HETATM    3  O   UNL     1     -45.102 -53.736  12.193  1.00  0.00    -0.247 OA
HETATM    4  N   UNL     1     -43.512 -53.760  13.837  1.00  0.00    -0.341 N 
HETATM    5  H   UNL     1     -43.584 -52.418  10.926  1.00  0.00     0.172 HD
HETATM    6  H   UNL     1     -42.508 -53.673  13.958  1.00  0.00     0.164 HD
ENDROOT
BRANCH   1   7
HETATM    7  C   UNL     1     -41.872 -52.292  12.058  1.00  0.00     0.132 A 
HETATM    8  C   UNL     1     -41.508 -51.048  12.621  1.00  0.00     0.084 A 
HETATM    9  C   UNL     1     -40.138 -51.090  12.688  1.00  0.00     0.076 A 
HETATM   10  C   UNL     1     -39.091 -50.177  13.167  1.00  0.00     0.079 C 
HETATM   11  O   UNL     1     -39.702 -52.275  12.191  1.00  0.00    -0.241 OA
HETATM   12  N   UNL     1     -40.784 -53.025  11.792  1.00  0.00    -0.245 N 
ATOM     13  HN  UNL     1     -40.761 -53.956  11.376  1.00  0.00     0.196 HD
ENDBRANCH   1   7
BRANCH   4  14
HETATM   14  C   UNL     1     -44.218 -54.692  14.678  1.00  0.00     0.154 C 
BRANCH  14  15
HETATM   15  C   UNL     1     -44.669 -54.084  16.016  1.00  0.00     0.292 C 
BRANCH  15  16
HETATM   16  N   UNL     1     -45.327 -52.796  15.791  1.00  0.00     0.090 N 
HETATM   17  C   UNL     1     -45.470 -52.000  17.014  1.00  0.00     0.272 C 
HETATM   18  C   UNL     1     -46.551 -50.984  16.676  1.00  0.00     0.032 C 
HETATM   19  C   UNL     1     -47.122 -51.449  15.344  1.00  0.00     0.032 C 
HETATM   20  C   UNL     1     -46.674 -52.896  15.236  1.00  0.00     0.272 C 
ENDBRANCH  15  16
ENDBRANCH  14  15
ENDBRANCH   4  14
TORSDOF 4
ENDMDL
MODEL 9
REMARK VINA RESULT:      -5.5      2.828      6.332
REMARK  4 active torsions:
REMARK  status: ('A' for Active; 'I' for Inactive)
REMARK    1  A    between atoms: C_4  and  N_5 
REMARK       I    between atoms: N_5  and  C_6 
REMARK       I    between atoms: C_6  and  N_8 
REMARK    2  A    between atoms: N_8  and  C_9 
REMARK    3  A    between atoms: C_9  and  C_10 
REMARK    4  A    between atoms: C_10  and  N_11 
ROOT
HETATM    1  N   UNL     1     -41.842 -52.498  12.686  1.00  0.00    -0.293 N 
HETATM    2  C   UNL     1     -41.017 -51.539  12.185  1.00  0.00     0.321 C 
HETATM    3  O   UNL     1     -39.801 -51.717  12.218  1.00  0.00    -0.247 OA
HETATM    4  N   UNL     1     -41.603 -50.408  11.697  1.00  0.00    -0.341 N 
HETATM    5  H   UNL     1     -41.359 -53.289  13.084  1.00  0.00     0.172 HD
HETATM    6  H   UNL     1     -42.594 -50.484  11.492  1.00  0.00     0.164 HD
ENDROOT
BRANCH   1   7
HETATM    7  C   UNL     1     -43.219 -52.509  12.687  1.00  0.00     0.132 A 
HETATM    8  C   UNL     1     -44.026 -51.715  13.532  1.00  0.00     0.084 A 
HETATM    9  C   UNL     1     -45.313 -52.050  13.193  1.00  0.00     0.076 A 
HETATM   10  C   UNL     1     -46.649 -51.626  13.633  1.00  0.00     0.079 C 
HETATM   11  O   UNL     1     -45.287 -52.992  12.215  1.00  0.00    -0.241 OA
HETATM   12  N   UNL     1     -43.980 -53.283  11.902  1.00  0.00    -0.245 N 
ATOM     13  HN  UNL     1     -43.654 -53.956  11.207  1.00  0.00     0.196 HD
ENDBRANCH   1   7
BRANCH   4  14
HETATM   14  C   UNL     1     -40.836 -49.421  10.982  1.00  0.00     0.154 C 
BRANCH  14  15
HETATM   15  C   UNL     1     -41.664 -48.198  10.557  1.00  0.00     0.292 C 
BRANCH  15  16
HETATM   16  N   UNL     1     -40.857 -46.980  10.659  1.00  0.00     0.090 N 
HETATM   17  C   UNL     1     -40.189 -46.839  11.957  1.00  0.00     0.272 C 
HETATM   18  C   UNL     1     -39.826 -45.363  12.033  1.00  0.00     0.032 C 
HETATM   19  C   UNL     1     -40.548 -44.722  10.856  1.00  0.00     0.032 C 
HETATM   20  C   UNL     1     -41.607 -45.742  10.473  1.00  0.00     0.272 C 
ENDBRANCH  15  16
ENDBRANCH  14  15
ENDBRANCH   4  14
TORSDOF 4
ENDMDL
