MODEL 1
REMARK VINA RESULT:      -5.8      0.000      0.000
REMARK  3 active torsions:
REMARK  status: ('A' for Active; 'I' for Inactive)
REMARK    1  A    between atoms: C_2  and  N_3 
REMARK    2  A    between atoms: C_5  and  N_6 
REMARK       I    between atoms: N_6  and  C_7 
REMARK       I    between atoms: C_7  and  N_9 
REMARK    3  A    between atoms: N_9  and  C_10 
REMARK       I    between atoms: N_13  and  C_16 
ROOT
HETATM    1  N   UNL     1     -43.309 -46.162  10.409  1.00  0.00    -0.306 N 
HETATM    2  C   UNL     1     -43.288 -44.786  10.351  1.00  0.00     0.321 C 
HETATM    3  O   UNL     1     -43.776 -44.100   9.460  1.00  0.00    -0.247 OA
HETATM    4  N   UNL     1     -42.642 -44.200  11.428  1.00  0.00    -0.338 N 
HETATM    5  H   UNL     1     -42.804 -46.635  11.142  1.00  0.00     0.171 HD
HETATM    6  H   UNL     1     -42.587 -44.750  12.272  1.00  0.00     0.164 HD
ENDROOT
BRANCH   1   7
HETATM    7  C   UNL     1     -43.919 -46.951   9.443  1.00  0.00     0.070 A 
HETATM    8  C   UNL     1     -45.168 -47.523   9.494  1.00  0.00     0.141 A 
HETATM    9  N   UNL     1     -45.356 -48.176   8.315  1.00  0.00    -0.302 N 
HETATM   10  N   UNL     1     -44.292 -48.099   7.493  1.00  0.00    -0.308 N 
HETATM   11  C   UNL     1     -43.420 -47.353   8.184  1.00  0.00     0.138 A 
ATOM     12  HN  UNL     1     -44.177 -48.510   6.566  1.00  0.00     0.186 HD
BRANCH   9  13
HETATM   13  C   UNL     1     -46.557 -48.886   7.925  1.00  0.00     0.143 C 
HETATM   14  C   UNL     1     -46.396 -49.590   6.587  1.00  0.00     0.028 C 
ENDBRANCH   9  13
ENDBRANCH   1   7
BRANCH   4  15
HETATM   15  C   UNL     1     -42.755 -42.743  11.559  1.00  0.00     0.089 C 
HETATM   16  C   UNL     1     -41.524 -41.984  11.058  1.00  0.00     0.045 C 
HETATM   17  C   UNL     1     -40.370 -41.932  12.057  1.00  0.00     0.127 C 
HETATM   18  N   UNL     1     -40.828 -41.596  13.406  1.00  0.00    -0.352 N 
HETATM   19  C   UNL     1     -41.908 -42.442  13.909  1.00  0.00     0.127 C 
HETATM   20  C   UNL     1     -40.297 -40.645  14.264  1.00  0.00     0.215 C 
HETATM   21  C   UNL     1     -43.119 -42.345  12.995  1.00  0.00     0.045 C 
HETATM   22  O   UNL     1     -40.735 -40.486  15.407  1.00  0.00    -0.274 OA
HETATM   23  C   UNL     1     -39.164 -39.759  13.814  1.00  0.00     0.117 C 
ENDBRANCH   4  15
TORSDOF 3
ENDMDL
MODEL 2
REMARK VINA RESULT:      -5.6      5.693      9.336
REMARK  3 active torsions:
REMARK  status: ('A' for Active; 'I' for Inactive)
REMARK    1  A    between atoms: C_2  and  N_3 
REMARK    2  A    between atoms: C_5  and  N_6 
REMARK       I    between atoms: N_6  and  C_7 
REMARK       I    between atoms: C_7  and  N_9 
REMARK    3  A    between atoms: N_9  and  C_10 
REMARK       I    between atoms: N_13  and  C_16 
ROOT
HETATM    1  N   UNL     1     -42.320 -48.544  10.919  1.00  0.00    -0.306 N 
HETATM    2  C   UNL     1     -42.175 -49.250  12.093  1.00  0.00     0.321 C 
HETATM    3  O   UNL     1     -41.747 -48.801  13.150  1.00  0.00    -0.247 OA
HETATM    4  N   UNL     1     -42.567 -50.575  11.990  1.00  0.00    -0.338 N 
HETATM    5  H   UNL     1     -42.601 -49.028  10.082  1.00  0.00     0.171 HD
HETATM    6  H   UNL     1     -43.222 -50.794  11.254  1.00  0.00     0.164 HD
ENDROOT
BRANCH   1   7
HETATM    7  C   UNL     1     -42.005 -47.197  10.803  1.00  0.00     0.070 A 
HETATM    8  C   UNL     1     -40.754 -46.634  10.709  1.00  0.00     0.141 A 
HETATM    9  N   UNL     1     -40.930 -45.291  10.578  1.00  0.00    -0.302 N 
HETATM   10  N   UNL     1     -42.225 -44.922  10.609  1.00  0.00    -0.308 N 
HETATM   11  C   UNL     1     -42.875 -46.085  10.748  1.00  0.00     0.138 A 
ATOM     12  HN  UNL     1     -42.617 -43.983  10.544  1.00  0.00     0.186 HD
BRANCH   9  13
HETATM   13  C   UNL     1     -39.875 -44.313  10.406  1.00  0.00     0.143 C 
HETATM   14  C   UNL     1     -38.880 -44.728   9.334  1.00  0.00     0.028 C 
ENDBRANCH   9  13
ENDBRANCH   1   7
BRANCH   4  15
HETATM   15  C   UNL     1     -42.646 -51.345  13.236  1.00  0.00     0.089 C 
HETATM   16  C   UNL     1     -42.460 -52.850  13.043  1.00  0.00     0.045 C 
HETATM   17  C   UNL     1     -43.716 -53.582  12.573  1.00  0.00     0.127 C 
HETATM   18  N   UNL     1     -44.902 -53.172  13.325  1.00  0.00    -0.352 N 
HETATM   19  C   UNL     1     -45.130 -51.729  13.363  1.00  0.00     0.127 C 
HETATM   20  C   UNL     1     -45.854 -53.993  13.911  1.00  0.00     0.215 C 
HETATM   21  C   UNL     1     -43.939 -51.027  13.998  1.00  0.00     0.045 C 
HETATM   22  O   UNL     1     -46.849 -53.532  14.479  1.00  0.00    -0.274 OA
HETATM   23  C   UNL     1     -45.691 -55.491  13.884  1.00  0.00     0.117 C 
ENDBRANCH   4  15
TORSDOF 3
ENDMDL
MODEL 3
REMARK VINA RESULT:      -5.6      8.360     10.293
REMARK  3 active torsions:
REMARK  status: ('A' for Active; 'I' for Inactive)
REMARK    1  A    between atoms: C_2  and  N_3 
REMARK    2  A    between atoms: C_5  and  N_6 
REMARK       I    between atoms: N_6  and  C_7 
REMARK       I    between atoms: C_7  and  N_9 
REMARK    3  A    between atoms: N_9  and  C_10 
REMARK       I    between atoms: N_13  and  C_16 
ROOT
HETATM    1  N   UNL     1     -41.816 -50.344  13.040  1.00  0.00    -0.306 N 
HETATM    2  C   UNL     1     -41.872 -51.706  12.842  1.00  0.00     0.321 C 
HETATM    3  O   UNL     1     -42.029 -52.267  11.764  1.00  0.00    -0.247 OA
HETATM    4  N   UNL     1     -41.731 -52.438  14.011  1.00  0.00    -0.338 N 
HETATM    5  H   UNL     1     -41.770 -49.981  13.979  1.00  0.00     0.171 HD
HETATM    6  H   UNL     1     -41.260 -51.977  14.775  1.00  0.00     0.164 HD
ENDROOT
BRANCH   1   7
HETATM    7  C   UNL     1     -41.917 -49.425  12.004  1.00  0.00     0.070 A 
HETATM    8  C   UNL     1     -43.007 -48.657  11.669  1.00  0.00     0.141 A 
HETATM    9  N   UNL     1     -42.638 -47.881  10.613  1.00  0.00    -0.302 N 
HETATM   10  N   UNL     1     -41.375 -48.110  10.205  1.00  0.00    -0.308 N 
HETATM   11  C   UNL     1     -40.941 -49.051  11.054  1.00  0.00     0.138 A 
ATOM     12  HN  UNL     1     -40.870 -47.673   9.434  1.00  0.00     0.186 HD
BRANCH   9  13
HETATM   13  C   UNL     1     -43.468 -46.888   9.963  1.00  0.00     0.143 C 
HETATM   14  C   UNL     1     -43.834 -47.289   8.543  1.00  0.00     0.028 C 
ENDBRANCH   9  13
ENDBRANCH   1   7
BRANCH   4  15
HETATM   15  C   UNL     1     -41.567 -53.889  13.872  1.00  0.00     0.089 C 
HETATM   16  C   UNL     1     -42.106 -54.685  15.061  1.00  0.00     0.045 C 
HETATM   17  C   UNL     1     -41.159 -54.746  16.258  1.00  0.00     0.127 C 
HETATM   18  N   UNL     1     -39.785 -55.045  15.854  1.00  0.00    -0.352 N 
HETATM   19  C   UNL     1     -39.251 -54.165  14.817  1.00  0.00     0.127 C 
HETATM   20  C   UNL     1     -38.933 -55.992  16.402  1.00  0.00     0.215 C 
HETATM   21  C   UNL     1     -40.108 -54.251  13.564  1.00  0.00     0.045 C 
HETATM   22  O   UNL     1     -37.768 -56.120  16.012  1.00  0.00    -0.274 OA
HETATM   23  C   UNL     1     -39.414 -56.913  17.493  1.00  0.00     0.117 C 
ENDBRANCH   4  15
TORSDOF 3
ENDMDL
MODEL 4
REMARK VINA RESULT:      -5.4      7.248      9.578
REMARK  3 active torsions:
REMARK  status: ('A' for Active; 'I' for Inactive)
REMARK    1  A    between atoms: C_2  and  N_3 
REMARK    2  A    between atoms: C_5  and  N_6 
REMARK       I    between atoms: N_6  and  C_7 
REMARK       I    between atoms: C_7  and  N_9 
REMARK    3  A    between atoms: N_9  and  C_10 
REMARK       I    between atoms: N_13  and  C_16 
ROOT
HETATM    1  N   UNL     1     -42.274 -49.545  11.694  1.00  0.00    -0.306 N 
HETATM    2  C   UNL     1     -41.296 -50.504  11.834  1.00  0.00     0.321 C 
HETATM    3  O   UNL     1     -40.134 -50.401  11.458  1.00  0.00    -0.247 OA
HETATM    4  N   UNL     1     -41.741 -51.656  12.463  1.00  0.00    -0.338 N 
HETATM    5  H   UNL     1     -43.221 -49.761  11.960  1.00  0.00     0.171 HD
HETATM    6  H   UNL     1     -42.553 -51.560  13.053  1.00  0.00     0.164 HD
ENDROOT
BRANCH   1   7
HETATM    7  C   UNL     1     -42.042 -48.307  11.109  1.00  0.00     0.070 A 
HETATM    8  C   UNL     1     -41.369 -47.238  11.649  1.00  0.00     0.141 A 
HETATM    9  N   UNL     1     -41.360 -46.255  10.707  1.00  0.00    -0.302 N 
HETATM   10  N   UNL     1     -42.015 -46.597   9.580  1.00  0.00    -0.308 N 
HETATM   11  C   UNL     1     -42.429 -47.846   9.830  1.00  0.00     0.138 A 
ATOM     12  HN  UNL     1     -42.160 -46.039   8.740  1.00  0.00     0.186 HD
BRANCH   9  13
HETATM   13  C   UNL     1     -40.718 -44.963  10.840  1.00  0.00     0.143 C 
HETATM   14  C   UNL     1     -39.473 -44.851   9.975  1.00  0.00     0.028 C 
ENDBRANCH   9  13
ENDBRANCH   1   7
BRANCH   4  15
HETATM   15  C   UNL     1     -40.724 -52.642  12.843  1.00  0.00     0.089 C 
HETATM   16  C   UNL     1     -41.252 -54.076  12.909  1.00  0.00     0.045 C 
HETATM   17  C   UNL     1     -41.988 -54.415  14.204  1.00  0.00     0.127 C 
HETATM   18  N   UNL     1     -41.264 -53.940  15.384  1.00  0.00    -0.352 N 
HETATM   19  C   UNL     1     -40.906 -52.524  15.349  1.00  0.00     0.127 C 
HETATM   20  C   UNL     1     -40.973 -54.654  16.537  1.00  0.00     0.215 C 
HETATM   21  C   UNL     1     -40.022 -52.237  14.145  1.00  0.00     0.045 C 
HETATM   22  O   UNL     1     -40.400 -54.130  17.498  1.00  0.00    -0.274 OA
HETATM   23  C   UNL     1     -41.340 -56.111  16.647  1.00  0.00     0.117 C 
ENDBRANCH   4  15
TORSDOF 3
ENDMDL
MODEL 5
REMARK VINA RESULT:      -5.4      6.632      9.496
REMARK  3 active torsions:
REMARK  status: ('A' for Active; 'I' for Inactive)
REMARK    1  A    between atoms: C_2  and  N_3 
REMARK    2  A    between atoms: C_5  and  N_6 
REMARK       I    between atoms: N_6  and  C_7 
REMARK       I    between atoms: C_7  and  N_9 
REMARK    3  A    between atoms: N_9  and  C_10 
REMARK       I    between atoms: N_13  and  C_16 
ROOT
HETATM    1  N   UNL     1     -42.160 -49.288  11.094  1.00  0.00    -0.306 N 
HETATM    2  C   UNL     1     -42.629 -49.598  12.352  1.00  0.00     0.321 C 
HETATM    3  O   UNL     1     -42.896 -48.792  13.235  1.00  0.00    -0.247 OA
HETATM    4  N   UNL     1     -42.788 -50.960  12.559  1.00  0.00    -0.338 N 
HETATM    5  H   UNL     1     -41.889 -50.030  10.470  1.00  0.00     0.171 HD
HETATM    6  H   UNL     1     -42.906 -51.529  11.734  1.00  0.00     0.164 HD
ENDROOT
BRANCH   1   7
HETATM    7  C   UNL     1     -41.945 -47.984  10.668  1.00  0.00     0.070 A 
HETATM    8  C   UNL     1     -40.960 -47.119  11.079  1.00  0.00     0.141 A 
HETATM    9  N   UNL     1     -41.117 -45.969  10.369  1.00  0.00    -0.302 N 
HETATM   10  N   UNL     1     -42.170 -46.005   9.530  1.00  0.00    -0.308 N 
HETATM   11  C   UNL     1     -42.671 -47.233   9.716  1.00  0.00     0.138 A 
ATOM     12  HN  UNL     1     -42.505 -45.274   8.903  1.00  0.00     0.186 HD
BRANCH   9  13
HETATM   13  C   UNL     1     -40.266 -44.799  10.455  1.00  0.00     0.143 C 
HETATM   14  C   UNL     1     -39.522 -44.730  11.778  1.00  0.00     0.028 C 
ENDBRANCH   9  13
ENDBRANCH   1   7
BRANCH   4  15
HETATM   15  C   UNL     1     -43.479 -51.370  13.786  1.00  0.00     0.089 C 
HETATM   16  C   UNL     1     -42.549 -51.540  14.988  1.00  0.00     0.045 C 
HETATM   17  C   UNL     1     -41.806 -52.874  15.023  1.00  0.00     0.127 C 
HETATM   18  N   UNL     1     -42.692 -54.001  14.731  1.00  0.00    -0.352 N 
HETATM   19  C   UNL     1     -43.457 -53.869  13.493  1.00  0.00     0.127 C 
HETATM   20  C   UNL     1     -42.808 -55.187  15.441  1.00  0.00     0.215 C 
HETATM   21  C   UNL     1     -44.329 -52.624  13.547  1.00  0.00     0.045 C 
HETATM   22  O   UNL     1     -43.556 -56.096  15.067  1.00  0.00    -0.274 OA
HETATM   23  C   UNL     1     -42.027 -55.397  16.712  1.00  0.00     0.117 C 
ENDBRANCH   4  15
TORSDOF 3
ENDMDL
MODEL 6
REMARK VINA RESULT:      -5.2      5.712      6.569
REMARK  3 active torsions:
REMARK  status: ('A' for Active; 'I' for Inactive)
REMARK    1  A    between atoms: C_2  and  N_3 
REMARK    2  A    between atoms: C_5  and  N_6 
REMARK       I    between atoms: N_6  and  C_7 
REMARK       I    between atoms: C_7  and  N_9 
REMARK    3  A    between atoms: N_9  and  C_10 
REMARK       I    between atoms: N_13  and  C_16 
ROOT
HETATM    1  N   UNL     1     -42.533 -51.306  12.113  1.00  0.00    -0.306 N 
HETATM    2  C   UNL     1     -42.153 -50.206  12.850  1.00  0.00     0.321 C 
HETATM    3  O   UNL     1     -42.155 -50.129  14.073  1.00  0.00    -0.247 OA
HETATM    4  N   UNL     1     -41.745 -49.135  12.070  1.00  0.00    -0.338 N 
HETATM    5  H   UNL     1     -42.576 -51.238  11.109  1.00  0.00     0.171 HD
HETATM    6  H   UNL     1     -41.423 -49.354  11.139  1.00  0.00     0.164 HD
ENDROOT
BRANCH   1   7
HETATM    7  C   UNL     1     -42.959 -52.494  12.691  1.00  0.00     0.070 A 
HETATM    8  C   UNL     1     -44.249 -52.951  12.813  1.00  0.00     0.141 A 
HETATM    9  N   UNL     1     -44.185 -54.171  13.413  1.00  0.00    -0.302 N 
HETATM   10  N   UNL     1     -42.928 -54.541  13.726  1.00  0.00    -0.308 N 
HETATM   11  C   UNL     1     -42.186 -53.516  13.286  1.00  0.00     0.138 A 
ATOM     12  HN  UNL     1     -42.616 -55.395  14.188  1.00  0.00     0.186 HD
BRANCH   9  13
HETATM   13  C   UNL     1     -45.314 -55.033  13.698  1.00  0.00     0.143 C 
HETATM   14  C   UNL     1     -46.262 -54.417  14.714  1.00  0.00     0.028 C 
ENDBRANCH   9  13
ENDBRANCH   1   7
BRANCH   4  15
HETATM   15  C   UNL     1     -41.126 -48.002  12.766  1.00  0.00     0.089 C 
HETATM   16  C   UNL     1     -42.120 -46.916  13.179  1.00  0.00     0.045 C 
HETATM   17  C   UNL     1     -42.498 -45.952  12.057  1.00  0.00     0.127 C 
HETATM   18  N   UNL     1     -41.326 -45.499  11.307  1.00  0.00    -0.352 N 
HETATM   19  C   UNL     1     -40.476 -46.574  10.799  1.00  0.00     0.127 C 
HETATM   20  C   UNL     1     -40.998 -44.196  10.961  1.00  0.00     0.215 C 
HETATM   21  C   UNL     1     -39.962 -47.424  11.951  1.00  0.00     0.045 C 
HETATM   22  O   UNL     1     -40.005 -43.937  10.275  1.00  0.00    -0.274 OA
HETATM   23  C   UNL     1     -41.849 -43.044  11.431  1.00  0.00     0.117 C 
ENDBRANCH   4  15
TORSDOF 3
ENDMDL
MODEL 7
REMARK VINA RESULT:      -5.2      5.529      6.443
REMARK  3 active torsions:
REMARK  status: ('A' for Active; 'I' for Inactive)
REMARK    1  A    between atoms: C_2  and  N_3 
REMARK    2  A    between atoms: C_5  and  N_6 
REMARK       I    between atoms: N_6  and  C_7 
REMARK       I    between atoms: C_7  and  N_9 
REMARK    3  A    between atoms: N_9  and  C_10 
REMARK       I    between atoms: N_13  and  C_16 
ROOT
HETATM    1  N   UNL     1     -42.258 -50.701  11.989  1.00  0.00    -0.306 N 
HETATM    2  C   UNL     1     -41.424 -49.605  12.014  1.00  0.00     0.321 C 
HETATM    3  O   UNL     1     -40.283 -49.584  12.460  1.00  0.00    -0.247 OA
HETATM    4  N   UNL     1     -41.997 -48.466  11.469  1.00  0.00    -0.338 N 
HETATM    5  H   UNL     1     -43.210 -50.592  11.678  1.00  0.00     0.171 HD
HETATM    6  H   UNL     1     -42.751 -48.611  10.816  1.00  0.00     0.164 HD
ENDROOT
BRANCH   1   7
HETATM    7  C   UNL     1     -41.882 -51.949  12.467  1.00  0.00     0.070 A 
HETATM    8  C   UNL     1     -42.243 -52.535  13.656  1.00  0.00     0.141 A 
HETATM    9  N   UNL     1     -41.667 -53.768  13.684  1.00  0.00    -0.302 N 
HETATM   10  N   UNL     1     -40.917 -54.026  12.596  1.00  0.00    -0.308 N 
HETATM   11  C   UNL     1     -41.050 -52.916  11.858  1.00  0.00     0.138 A 
ATOM     12  HN  UNL     1     -40.378 -54.865  12.384  1.00  0.00     0.186 HD
BRANCH   9  13
HETATM   13  C   UNL     1     -41.819 -54.748  14.741  1.00  0.00     0.143 C 
HETATM   14  C   UNL     1     -43.274 -55.131  14.960  1.00  0.00     0.028 C 
ENDBRANCH   9  13
ENDBRANCH   1   7
BRANCH   4  15
HETATM   15  C   UNL     1     -41.115 -47.313  11.261  1.00  0.00     0.089 C 
HETATM   16  C   UNL     1     -40.931 -46.446  12.508  1.00  0.00     0.045 C 
HETATM   17  C   UNL     1     -42.071 -45.462  12.762  1.00  0.00     0.127 C 
HETATM   18  N   UNL     1     -42.467 -44.758  11.542  1.00  0.00    -0.352 N 
HETATM   19  C   UNL     1     -42.780 -45.629  10.411  1.00  0.00     0.127 C 
HETATM   20  C   UNL     1     -42.659 -43.393  11.381  1.00  0.00     0.215 C 
HETATM   21  C   UNL     1     -41.571 -46.480  10.056  1.00  0.00     0.045 C 
HETATM   22  O   UNL     1     -43.049 -42.914  10.312  1.00  0.00    -0.274 OA
HETATM   23  C   UNL     1     -42.380 -42.444  12.517  1.00  0.00     0.117 C 
ENDBRANCH   4  15
TORSDOF 3
ENDMDL
MODEL 8
REMARK VINA RESULT:      -5.2      5.402      6.414
REMARK  3 active torsions:
REMARK  status: ('A' for Active; 'I' for Inactive)
REMARK    1  A    between atoms: C_2  and  N_3 
REMARK    2  A    between atoms: C_5  and  N_6 
REMARK       I    between atoms: N_6  and  C_7 
REMARK       I    between atoms: C_7  and  N_9 
REMARK    3  A    between atoms: N_9  and  C_10 
REMARK       I    between atoms: N_13  and  C_16 
ROOT
HETATM    1  N   UNL     1     -44.487 -50.281  12.583  1.00  0.00    -0.306 N 
HETATM    2  C   UNL     1     -43.402 -49.619  13.113  1.00  0.00     0.321 C 
HETATM    3  O   UNL     1     -42.803 -49.931  14.136  1.00  0.00    -0.247 OA
HETATM    4  N   UNL     1     -43.012 -48.516  12.369  1.00  0.00    -0.338 N 
HETATM    5  H   UNL     1     -44.961 -49.893  11.783  1.00  0.00     0.171 HD
HETATM    6  H   UNL     1     -43.280 -48.513  11.396  1.00  0.00     0.164 HD
ENDROOT
BRANCH   1   7
HETATM    7  C   UNL     1     -45.032 -51.422  13.156  1.00  0.00     0.070 A 
HETATM    8  C   UNL     1     -44.510 -52.693  13.151  1.00  0.00     0.141 A 
HETATM    9  N   UNL     1     -45.366 -53.478  13.861  1.00  0.00    -0.302 N 
HETATM   10  N   UNL     1     -46.445 -52.810  14.312  1.00  0.00    -0.308 N 
HETATM   11  C   UNL     1     -46.237 -51.559  13.880  1.00  0.00     0.138 A 
ATOM     12  HN  UNL     1     -47.230 -53.170  14.853  1.00  0.00     0.186 HD
BRANCH   9  13
HETATM   13  C   UNL     1     -45.182 -54.887  14.144  1.00  0.00     0.143 C 
HETATM   14  C   UNL     1     -43.784 -55.190  14.656  1.00  0.00     0.028 C 
ENDBRANCH   9  13
ENDBRANCH   1   7
BRANCH   4  15
HETATM   15  C   UNL     1     -41.744 -47.879  12.739  1.00  0.00     0.089 C 
HETATM   16  C   UNL     1     -41.915 -46.524  13.429  1.00  0.00     0.045 C 
HETATM   17  C   UNL     1     -42.161 -45.359  12.472  1.00  0.00     0.127 C 
HETATM   18  N   UNL     1     -41.248 -45.388  11.328  1.00  0.00    -0.352 N 
HETATM   19  C   UNL     1     -41.223 -46.656  10.602  1.00  0.00     0.127 C 
HETATM   20  C   UNL     1     -40.495 -44.338  10.824  1.00  0.00     0.215 C 
HETATM   21  C   UNL     1     -40.802 -47.784  11.531  1.00  0.00     0.045 C 
HETATM   22  O   UNL     1     -39.796 -44.467   9.814  1.00  0.00    -0.274 OA
HETATM   23  C   UNL     1     -40.498 -42.997  11.511  1.00  0.00     0.117 C 
ENDBRANCH   4  15
TORSDOF 3
ENDMDL
MODEL 9
REMARK VINA RESULT:      -5.0      6.010      7.089
REMARK  3 active torsions:
REMARK  status: ('A' for Active; 'I' for Inactive)
REMARK    1  A    between atoms: C_2  and  N_3 
REMARK    2  A    between atoms: C_5  and  N_6 
REMARK       I    between atoms: N_6  and  C_7 
REMARK       I    between atoms: C_7  and  N_9 
REMARK    3  A    between atoms: N_9  and  C_10 
REMARK       I    between atoms: N_13  and  C_16 
ROOT
HETATM    1  N   UNL     1     -40.855 -50.961  11.770  1.00  0.00    -0.306 N 
HETATM    2  C   UNL     1     -42.015 -50.254  11.997  1.00  0.00     0.321 C 
HETATM    3  O   UNL     1     -42.910 -50.576  12.769  1.00  0.00    -0.247 OA
HETATM    4  N   UNL     1     -42.104 -49.090  11.249  1.00  0.00    -0.338 N 
HETATM    5  H   UNL     1     -40.220 -50.654  11.050  1.00  0.00     0.171 HD
HETATM    6  H   UNL     1     -41.234 -48.695  10.926  1.00  0.00     0.164 HD
ENDROOT
BRANCH   1   7
HETATM    7  C   UNL     1     -40.551 -52.147  12.425  1.00  0.00     0.070 A 
HETATM    8  C   UNL     1     -39.700 -52.322  13.490  1.00  0.00     0.141 A 
HETATM    9  N   UNL     1     -39.741 -53.642  13.820  1.00  0.00    -0.302 N 
HETATM   10  N   UNL     1     -40.547 -54.363  13.017  1.00  0.00    -0.308 N 
HETATM   11  C   UNL     1     -41.037 -53.449  12.169  1.00  0.00     0.138 A 
ATOM     12  HN  UNL     1     -40.738 -55.364  13.047  1.00  0.00     0.186 HD
BRANCH   9  13
HETATM   13  C   UNL     1     -39.024 -54.261  14.916  1.00  0.00     0.143 C 
HETATM   14  C   UNL     1     -39.857 -54.311  16.187  1.00  0.00     0.028 C 
ENDBRANCH   9  13
ENDBRANCH   1   7
BRANCH   4  15
HETATM   15  C   UNL     1     -43.199 -48.171  11.579  1.00  0.00     0.089 C 
HETATM   16  C   UNL     1     -43.555 -47.207  10.446  1.00  0.00     0.045 C 
HETATM   17  C   UNL     1     -42.635 -45.992  10.344  1.00  0.00     0.127 C 
HETATM   18  N   UNL     1     -42.386 -45.383  11.651  1.00  0.00    -0.352 N 
HETATM   19  C   UNL     1     -41.903 -46.311  12.672  1.00  0.00     0.127 C 
HETATM   20  C   UNL     1     -42.470 -44.040  11.985  1.00  0.00     0.215 C 
HETATM   21  C   UNL     1     -42.916 -47.424  12.889  1.00  0.00     0.045 C 
HETATM   22  O   UNL     1     -42.183 -43.633  13.115  1.00  0.00    -0.274 OA
HETATM   23  C   UNL     1     -42.936 -43.028  10.970  1.00  0.00     0.117 C 
ENDBRANCH   4  15
TORSDOF 3
ENDMDL
