MODEL 1
REMARK VINA RESULT:      -5.3      0.000      0.000
REMARK  5 active torsions:
REMARK  status: ('A' for Active; 'I' for Inactive)
REMARK    1  A    between atoms: C_2  and  N_3 
REMARK    2  A    between atoms: C_2  and  C_13 
REMARK    3  A    between atoms: N_3  and  C_4 
REMARK    4  A    between atoms: C_4  and  C_6 
REMARK       I    between atoms: C_6  and  N_8 
REMARK    5  A    between atoms: C_13  and  N_15 
ROOT
HETATM    1  C   UNL     1     -42.760 -48.822  13.510  1.00  0.00     0.045 C 
HETATM    2  C   UNL     1     -42.883 -50.298  13.106  1.00  0.00     0.241 C 
ENDROOT
BRANCH   2   3
HETATM    3  N   UNL     1     -44.257 -50.605  12.649  1.00  0.00     0.103 N 
HETATM    4  H   UNL     1     -44.231 -50.954  11.689  1.00  0.00     0.317 HD
BRANCH   3   5
HETATM    5  C   UNL     1     -45.118 -51.500  13.461  1.00  0.00     0.308 C 
HETATM    6  C   UNL     1     -46.579 -51.602  13.023  1.00  0.00     0.053 C 
BRANCH   5   7
HETATM    7  C   UNL     1     -44.562 -52.950  13.378  1.00  0.00     0.252 C 
HETATM    8  O   UNL     1     -44.619 -53.626  12.347  1.00  0.00    -0.271 OA
HETATM    9  N   UNL     1     -44.022 -53.488  14.533  1.00  0.00    -0.350 N 
HETATM   10  C   UNL     1     -43.668 -54.895  14.584  1.00  0.00     0.126 C 
HETATM   11  C   UNL     1     -43.718 -52.827  15.786  1.00  0.00     0.126 C 
HETATM   12  C   UNL     1     -42.922 -55.076  15.900  1.00  0.00     0.021 C 
HETATM   13  C   UNL     1     -42.562 -53.655  16.323  1.00  0.00     0.021 C 
ENDBRANCH   5   7
ENDBRANCH   3   5
ENDBRANCH   2   3
BRANCH   2  14
HETATM   14  C   UNL     1     -41.715 -50.798  12.190  1.00  0.00     0.136 C 
HETATM   15  C   UNL     1     -40.599 -49.769  11.979  1.00  0.00     0.036 C 
BRANCH  14  16
HETATM   16  N   UNL     1     -41.123 -52.060  12.639  1.00  0.00    -0.297 N 
HETATM   17  C   UNL     1     -40.223 -52.265  13.648  1.00  0.00     0.118 A 
HETATM   18  C   UNL     1     -40.023 -53.627  13.727  1.00  0.00    -0.028 A 
HETATM   19  C   UNL     1     -39.182 -54.376  14.685  1.00  0.00     0.051 C 
HETATM   20  C   UNL     1     -40.821 -54.149  12.688  1.00  0.00     0.115 A 
HETATM   21  N   UNL     1     -41.441 -53.200  11.985  1.00  0.00    -0.309 N 
ATOM     22  HN  UNL     1     -42.018 -53.307  11.151  1.00  0.00     0.186 HD
ENDBRANCH  14  16
ENDBRANCH   2  14
TORSDOF 5
ENDMDL
MODEL 2
REMARK VINA RESULT:      -5.1      4.023      6.527
REMARK  5 active torsions:
REMARK  status: ('A' for Active; 'I' for Inactive)
REMARK    1  A    between atoms: C_2  and  N_3 
REMARK    2  A    between atoms: C_2  and  C_13 
REMARK    3  A    between atoms: N_3  and  C_4 
REMARK    4  A    between atoms: C_4  and  C_6 
REMARK       I    between atoms: C_6  and  N_8 
REMARK    5  A    between atoms: C_13  and  N_15 
ROOT
HETATM    1  C   UNL     1     -38.769 -48.207  13.530  1.00  0.00     0.045 C 
HETATM    2  C   UNL     1     -39.591 -48.546  12.279  1.00  0.00     0.241 C 
ENDROOT
BRANCH   2   3
HETATM    3  N   UNL     1     -39.728 -47.360  11.403  1.00  0.00     0.103 N 
HETATM    4  H   UNL     1     -39.940 -47.659  10.449  1.00  0.00     0.317 HD
BRANCH   3   5
HETATM    5  C   UNL     1     -40.661 -46.270  11.782  1.00  0.00     0.308 C 
HETATM    6  C   UNL     1     -40.028 -45.046  12.443  1.00  0.00     0.053 C 
BRANCH   5   7
HETATM    7  C   UNL     1     -41.357 -45.731  10.499  1.00  0.00     0.252 C 
HETATM    8  O   UNL     1     -40.818 -44.918   9.742  1.00  0.00    -0.271 OA
HETATM    9  N   UNL     1     -42.644 -46.171  10.245  1.00  0.00    -0.350 N 
HETATM   10  C   UNL     1     -43.424 -45.561   9.183  1.00  0.00     0.126 C 
HETATM   11  C   UNL     1     -43.391 -47.223  10.903  1.00  0.00     0.126 C 
HETATM   12  C   UNL     1     -44.674 -46.423   9.055  1.00  0.00     0.021 C 
HETATM   13  C   UNL     1     -44.320 -47.705   9.803  1.00  0.00     0.021 C 
ENDBRANCH   5   7
ENDBRANCH   3   5
ENDBRANCH   2   3
BRANCH   2  14
HETATM   14  C   UNL     1     -39.156 -49.880  11.583  1.00  0.00     0.136 C 
HETATM   15  C   UNL     1     -37.660 -50.189  11.700  1.00  0.00     0.036 C 
BRANCH  14  16
HETATM   16  N   UNL     1     -39.922 -51.046  12.030  1.00  0.00    -0.297 N 
HETATM   17  C   UNL     1     -39.714 -51.826  13.134  1.00  0.00     0.118 A 
HETATM   18  C   UNL     1     -40.734 -52.754  13.158  1.00  0.00    -0.028 A 
HETATM   19  C   UNL     1     -41.001 -53.797  14.171  1.00  0.00     0.051 C 
HETATM   20  C   UNL     1     -41.480 -52.470  11.995  1.00  0.00     0.115 A 
HETATM   21  N   UNL     1     -40.957 -51.477  11.274  1.00  0.00    -0.309 N 
ATOM     22  HN  UNL     1     -41.264 -51.125  10.368  1.00  0.00     0.186 HD
ENDBRANCH  14  16
ENDBRANCH   2  14
TORSDOF 5
ENDMDL
MODEL 3
REMARK VINA RESULT:      -5.1      3.244      6.273
REMARK  5 active torsions:
REMARK  status: ('A' for Active; 'I' for Inactive)
REMARK    1  A    between atoms: C_2  and  N_3 
REMARK    2  A    between atoms: C_2  and  C_13 
REMARK    3  A    between atoms: N_3  and  C_4 
REMARK    4  A    between atoms: C_4  and  C_6 
REMARK       I    between atoms: C_6  and  N_8 
REMARK    5  A    between atoms: C_13  and  N_15 
ROOT
HETATM    1  C   UNL     1     -39.539 -51.005  12.342  1.00  0.00     0.045 C 
HETATM    2  C   UNL     1     -41.038 -50.951  12.672  1.00  0.00     0.241 C 
ENDROOT
BRANCH   2   3
HETATM    3  N   UNL     1     -41.773 -50.168  11.654  1.00  0.00     0.103 N 
HETATM    4  H   UNL     1     -42.431 -50.774  11.161  1.00  0.00     0.317 HD
BRANCH   3   5
HETATM    5  C   UNL     1     -42.474 -48.922  12.050  1.00  0.00     0.308 C 
HETATM    6  C   UNL     1     -42.140 -48.376  13.438  1.00  0.00     0.053 C 
BRANCH   5   7
HETATM    7  C   UNL     1     -42.089 -47.787  11.058  1.00  0.00     0.252 C 
HETATM    8  O   UNL     1     -40.926 -47.401  10.910  1.00  0.00    -0.271 OA
HETATM    9  N   UNL     1     -43.117 -47.182  10.359  1.00  0.00    -0.350 N 
HETATM   10  C   UNL     1     -42.858 -45.990   9.570  1.00  0.00     0.126 C 
HETATM   11  C   UNL     1     -44.508 -47.577  10.266  1.00  0.00     0.126 C 
HETATM   12  C   UNL     1     -44.141 -45.738   8.788  1.00  0.00     0.021 C 
HETATM   13  C   UNL     1     -44.909 -47.051   8.898  1.00  0.00     0.021 C 
ENDBRANCH   5   7
ENDBRANCH   3   5
ENDBRANCH   2   3
BRANCH   2  14
HETATM   14  C   UNL     1     -41.647 -52.342  13.056  1.00  0.00     0.136 C 
HETATM   15  C   UNL     1     -41.140 -52.903  14.389  1.00  0.00     0.036 C 
BRANCH  14  16
HETATM   16  N   UNL     1     -43.112 -52.354  13.059  1.00  0.00    -0.297 N 
HETATM   17  C   UNL     1     -43.965 -51.739  13.933  1.00  0.00     0.118 A 
HETATM   18  C   UNL     1     -45.243 -51.991  13.481  1.00  0.00    -0.028 A 
HETATM   19  C   UNL     1     -46.525 -51.511  14.038  1.00  0.00     0.051 C 
HETATM   20  C   UNL     1     -45.047 -52.806  12.346  1.00  0.00     0.115 A 
HETATM   21  N   UNL     1     -43.761 -53.082  12.123  1.00  0.00    -0.309 N 
ATOM     22  HN  UNL     1     -43.361 -53.696  11.413  1.00  0.00     0.186 HD
ENDBRANCH  14  16
ENDBRANCH   2  14
TORSDOF 5
ENDMDL
MODEL 4
REMARK VINA RESULT:      -5.0      3.022      6.210
REMARK  5 active torsions:
REMARK  status: ('A' for Active; 'I' for Inactive)
REMARK    1  A    between atoms: C_2  and  N_3 
REMARK    2  A    between atoms: C_2  and  C_13 
REMARK    3  A    between atoms: N_3  and  C_4 
REMARK    4  A    between atoms: C_4  and  C_6 
REMARK       I    between atoms: C_6  and  N_8 
REMARK    5  A    between atoms: C_13  and  N_15 
ROOT
HETATM    1  C   UNL     1     -40.047 -51.287  14.272  1.00  0.00     0.045 C 
HETATM    2  C   UNL     1     -40.546 -51.665  12.871  1.00  0.00     0.241 C 
ENDROOT
BRANCH   2   3
HETATM    3  N   UNL     1     -39.687 -51.063  11.827  1.00  0.00     0.103 N 
HETATM    4  H   UNL     1     -40.265 -50.737  11.050  1.00  0.00     0.317 HD
BRANCH   3   5
HETATM    5  C   UNL     1     -38.726 -49.993  12.191  1.00  0.00     0.308 C 
HETATM    6  C   UNL     1     -37.512 -49.841  11.275  1.00  0.00     0.053 C 
BRANCH   5   7
HETATM    7  C   UNL     1     -39.455 -48.620  12.140  1.00  0.00     0.252 C 
HETATM    8  O   UNL     1     -40.324 -48.360  11.303  1.00  0.00    -0.271 OA
HETATM    9  N   UNL     1     -39.065 -47.662  13.059  1.00  0.00    -0.350 N 
HETATM   10  C   UNL     1     -39.557 -46.300  12.943  1.00  0.00     0.126 C 
HETATM   11  C   UNL     1     -38.194 -47.806  14.208  1.00  0.00     0.126 C 
HETATM   12  C   UNL     1     -39.104 -45.599  14.217  1.00  0.00     0.021 C 
HETATM   13  C   UNL     1     -38.717 -46.739  15.154  1.00  0.00     0.021 C 
ENDBRANCH   5   7
ENDBRANCH   3   5
ENDBRANCH   2   3
BRANCH   2  14
HETATM   14  C   UNL     1     -40.875 -53.188  12.711  1.00  0.00     0.136 C 
HETATM   15  C   UNL     1     -40.099 -54.101  13.667  1.00  0.00     0.036 C 
BRANCH  14  16
HETATM   16  N   UNL     1     -42.305 -53.489  12.818  1.00  0.00    -0.297 N 
HETATM   17  C   UNL     1     -42.933 -54.331  13.693  1.00  0.00     0.118 A 
HETATM   18  C   UNL     1     -44.285 -54.224  13.443  1.00  0.00    -0.028 A 
HETATM   19  C   UNL     1     -45.403 -54.886  14.146  1.00  0.00     0.051 C 
HETATM   20  C   UNL     1     -44.360 -53.318  12.364  1.00  0.00     0.115 A 
HETATM   21  N   UNL     1     -43.160 -52.918  11.940  1.00  0.00    -0.309 N 
ATOM     22  HN  UNL     1     -42.939 -52.322  11.142  1.00  0.00     0.186 HD
ENDBRANCH  14  16
ENDBRANCH   2  14
TORSDOF 5
ENDMDL
MODEL 5
REMARK VINA RESULT:      -5.0      2.800      4.962
REMARK  5 active torsions:
REMARK  status: ('A' for Active; 'I' for Inactive)
REMARK    1  A    between atoms: C_2  and  N_3 
REMARK    2  A    between atoms: C_2  and  C_13 
REMARK    3  A    between atoms: N_3  and  C_4 
REMARK    4  A    between atoms: C_4  and  C_6 
REMARK       I    between atoms: C_6  and  N_8 
REMARK    5  A    between atoms: C_13  and  N_15 
ROOT
HETATM    1  C   UNL     1     -42.949 -49.092  14.058  1.00  0.00     0.045 C 
HETATM    2  C   UNL     1     -41.989 -49.365  12.891  1.00  0.00     0.241 C 
ENDROOT
BRANCH   2   3
HETATM    3  N   UNL     1     -42.415 -50.562  12.131  1.00  0.00     0.103 N 
HETATM    4  H   UNL     1     -42.559 -50.315  11.150  1.00  0.00     0.317 HD
BRANCH   3   5
HETATM    5  C   UNL     1     -41.602 -51.802  12.197  1.00  0.00     0.308 C 
HETATM    6  C   UNL     1     -40.087 -51.609  12.253  1.00  0.00     0.053 C 
BRANCH   5   7
HETATM    7  C   UNL     1     -41.966 -52.577  13.496  1.00  0.00     0.252 C 
HETATM    8  O   UNL     1     -41.290 -52.501  14.526  1.00  0.00    -0.271 OA
HETATM    9  N   UNL     1     -43.075 -53.403  13.451  1.00  0.00    -0.350 N 
HETATM   10  C   UNL     1     -43.357 -54.303  14.556  1.00  0.00     0.126 C 
HETATM   11  C   UNL     1     -44.082 -53.516  12.415  1.00  0.00     0.126 C 
HETATM   12  C   UNL     1     -44.736 -54.880  14.262  1.00  0.00     0.021 C 
HETATM   13  C   UNL     1     -45.310 -53.953  13.195  1.00  0.00     0.021 C 
ENDBRANCH   5   7
ENDBRANCH   3   5
ENDBRANCH   2   3
BRANCH   2  14
HETATM   14  C   UNL     1     -41.644 -48.091  12.049  1.00  0.00     0.136 C 
HETATM   15  C   UNL     1     -40.187 -48.028  11.577  1.00  0.00     0.036 C 
BRANCH  14  16
HETATM   16  N   UNL     1     -42.528 -47.897  10.897  1.00  0.00    -0.297 N 
HETATM   17  C   UNL     1     -43.854 -47.562  10.891  1.00  0.00     0.118 A 
HETATM   18  C   UNL     1     -44.222 -47.433   9.568  1.00  0.00    -0.028 A 
HETATM   19  C   UNL     1     -45.534 -47.035   9.016  1.00  0.00     0.051 C 
HETATM   20  C   UNL     1     -43.048 -47.756   8.856  1.00  0.00     0.115 A 
HETATM   21  N   UNL     1     -42.036 -48.099   9.655  1.00  0.00    -0.309 N 
ATOM     22  HN  UNL     1     -41.110 -48.434   9.391  1.00  0.00     0.186 HD
ENDBRANCH  14  16
ENDBRANCH   2  14
TORSDOF 5
ENDMDL
MODEL 6
REMARK VINA RESULT:      -4.9      2.507      3.527
REMARK  5 active torsions:
REMARK  status: ('A' for Active; 'I' for Inactive)
REMARK    1  A    between atoms: C_2  and  N_3 
REMARK    2  A    between atoms: C_2  and  C_13 
REMARK    3  A    between atoms: N_3  and  C_4 
REMARK    4  A    between atoms: C_4  and  C_6 
REMARK       I    between atoms: C_6  and  N_8 
REMARK    5  A    between atoms: C_13  and  N_15 
ROOT
HETATM    1  C   UNL     1     -42.996 -48.516  11.982  1.00  0.00     0.045 C 
HETATM    2  C   UNL     1     -41.837 -49.503  12.178  1.00  0.00     0.241 C 
ENDROOT
BRANCH   2   3
HETATM    3  N   UNL     1     -42.258 -50.882  11.842  1.00  0.00     0.103 N 
HETATM    4  H   UNL     1     -41.669 -51.250  11.094  1.00  0.00     0.317 HD
BRANCH   3   5
HETATM    5  C   UNL     1     -42.361 -51.901  12.916  1.00  0.00     0.308 C 
HETATM    6  C   UNL     1     -43.289 -53.082  12.633  1.00  0.00     0.053 C 
BRANCH   5   7
HETATM    7  C   UNL     1     -40.957 -52.528  13.154  1.00  0.00     0.252 C 
HETATM    8  O   UNL     1     -40.277 -53.001  12.239  1.00  0.00    -0.271 OA
HETATM    9  N   UNL     1     -40.499 -52.576  14.458  1.00  0.00    -0.350 N 
HETATM   10  C   UNL     1     -39.294 -53.322  14.779  1.00  0.00     0.126 C 
HETATM   11  C   UNL     1     -41.054 -51.950  15.640  1.00  0.00     0.126 C 
HETATM   12  C   UNL     1     -38.982 -52.979  16.230  1.00  0.00     0.021 C 
HETATM   13  C   UNL     1     -39.827 -51.740  16.510  1.00  0.00     0.021 C 
ENDBRANCH   5   7
ENDBRANCH   3   5
ENDBRANCH   2   3
BRANCH   2  14
HETATM   14  C   UNL     1     -40.485 -49.016  11.555  1.00  0.00     0.136 C 
HETATM   15  C   UNL     1     -40.361 -47.493  11.438  1.00  0.00     0.036 C 
BRANCH  14  16
HETATM   16  N   UNL     1     -39.304 -49.540  12.246  1.00  0.00    -0.297 N 
HETATM   17  C   UNL     1     -38.855 -49.245  13.503  1.00  0.00     0.118 A 
HETATM   18  C   UNL     1     -37.749 -50.038  13.723  1.00  0.00    -0.028 A 
HETATM   19  C   UNL     1     -36.923 -50.142  14.944  1.00  0.00     0.051 C 
HETATM   20  C   UNL     1     -37.592 -50.746  12.513  1.00  0.00     0.115 A 
HETATM   21  N   UNL     1     -38.494 -50.402  11.592  1.00  0.00    -0.309 N 
ATOM     22  HN  UNL     1     -38.557 -50.715  10.623  1.00  0.00     0.186 HD
ENDBRANCH  14  16
ENDBRANCH   2  14
TORSDOF 5
ENDMDL
MODEL 7
REMARK VINA RESULT:      -4.9      3.240      5.524
REMARK  5 active torsions:
REMARK  status: ('A' for Active; 'I' for Inactive)
REMARK    1  A    between atoms: C_2  and  N_3 
REMARK    2  A    between atoms: C_2  and  C_13 
REMARK    3  A    between atoms: N_3  and  C_4 
REMARK    4  A    between atoms: C_4  and  C_6 
REMARK       I    between atoms: C_6  and  N_8 
REMARK    5  A    between atoms: C_13  and  N_15 
ROOT
HETATM    1  C   UNL     1     -39.547 -48.973  11.521  1.00  0.00     0.045 C 
HETATM    2  C   UNL     1     -41.056 -48.829  11.759  1.00  0.00     0.241 C 
ENDROOT
BRANCH   2   3
HETATM    3  N   UNL     1     -41.424 -49.312  13.109  1.00  0.00     0.103 N 
HETATM    4  H   UNL     1     -41.858 -48.555  13.640  1.00  0.00     0.317 HD
BRANCH   3   5
HETATM    5  C   UNL     1     -42.255 -50.533  13.251  1.00  0.00     0.308 C 
HETATM    6  C   UNL     1     -41.500 -51.824  13.569  1.00  0.00     0.053 C 
BRANCH   5   7
HETATM    7  C   UNL     1     -43.247 -50.335  14.433  1.00  0.00     0.252 C 
HETATM    8  O   UNL     1     -42.965 -49.668  15.432  1.00  0.00    -0.271 OA
HETATM    9  N   UNL     1     -44.470 -50.977  14.347  1.00  0.00    -0.350 N 
HETATM   10  C   UNL     1     -45.361 -51.000  15.493  1.00  0.00     0.126 C 
HETATM   11  C   UNL     1     -45.055 -51.667  13.216  1.00  0.00     0.126 C 
HETATM   12  C   UNL     1     -46.668 -51.589  14.975  1.00  0.00     0.021 C 
HETATM   13  C   UNL     1     -46.545 -51.491  13.458  1.00  0.00     0.021 C 
ENDBRANCH   5   7
ENDBRANCH   3   5
ENDBRANCH   2   3
BRANCH   2  14
HETATM   14  C   UNL     1     -41.629 -47.433  11.338  1.00  0.00     0.136 C 
HETATM   15  C   UNL     1     -40.569 -46.448  10.831  1.00  0.00     0.036 C 
BRANCH  14  16
HETATM   16  N   UNL     1     -42.710 -47.520  10.354  1.00  0.00    -0.297 N 
HETATM   17  C   UNL     1     -44.051 -47.336  10.547  1.00  0.00     0.118 A 
HETATM   18  C   UNL     1     -44.648 -47.458   9.310  1.00  0.00    -0.028 A 
HETATM   19  C   UNL     1     -46.075 -47.297   8.960  1.00  0.00     0.051 C 
HETATM   20  C   UNL     1     -43.576 -47.759   8.444  1.00  0.00     0.115 A 
HETATM   21  N   UNL     1     -42.409 -47.860   9.081  1.00  0.00    -0.309 N 
ATOM     22  HN  UNL     1     -41.503 -48.129   8.699  1.00  0.00     0.186 HD
ENDBRANCH  14  16
ENDBRANCH   2  14
TORSDOF 5
ENDMDL
MODEL 8
REMARK VINA RESULT:      -4.8      3.417      5.551
REMARK  5 active torsions:
REMARK  status: ('A' for Active; 'I' for Inactive)
REMARK    1  A    between atoms: C_2  and  N_3 
REMARK    2  A    between atoms: C_2  and  C_13 
REMARK    3  A    between atoms: N_3  and  C_4 
REMARK    4  A    between atoms: C_4  and  C_6 
REMARK       I    between atoms: C_6  and  N_8 
REMARK    5  A    between atoms: C_13  and  N_15 
ROOT
HETATM    1  C   UNL     1     -41.132 -48.209  13.021  1.00  0.00     0.045 C 
HETATM    2  C   UNL     1     -41.374 -48.707  11.589  1.00  0.00     0.241 C 
ENDROOT
BRANCH   2   3
HETATM    3  N   UNL     1     -42.029 -50.034  11.598  1.00  0.00     0.103 N 
HETATM    4  H   UNL     1     -41.435 -50.716  11.123  1.00  0.00     0.317 HD
BRANCH   3   5
HETATM    5  C   UNL     1     -42.495 -50.616  12.881  1.00  0.00     0.308 C 
HETATM    6  C   UNL     1     -43.966 -50.387  13.226  1.00  0.00     0.053 C 
BRANCH   5   7
HETATM    7  C   UNL     1     -42.320 -52.161  12.828  1.00  0.00     0.252 C 
HETATM    8  O   UNL     1     -43.108 -52.899  12.229  1.00  0.00    -0.271 OA
HETATM    9  N   UNL     1     -41.252 -52.701  13.521  1.00  0.00    -0.350 N 
HETATM   10  C   UNL     1     -41.141 -54.140  13.681  1.00  0.00     0.126 C 
HETATM   11  C   UNL     1     -40.137 -52.019  14.148  1.00  0.00     0.126 C 
HETATM   12  C   UNL     1     -39.765 -54.373  14.291  1.00  0.00     0.021 C 
HETATM   13  C   UNL     1     -39.029 -53.056  14.067  1.00  0.00     0.021 C 
ENDBRANCH   5   7
ENDBRANCH   3   5
ENDBRANCH   2   3
BRANCH   2  14
HETATM   14  C   UNL     1     -42.000 -47.625  10.645  1.00  0.00     0.136 C 
HETATM   15  C   UNL     1     -43.502 -47.404  10.856  1.00  0.00     0.036 C 
BRANCH  14  16
HETATM   16  N   UNL     1     -41.313 -46.333  10.704  1.00  0.00    -0.297 N 
HETATM   17  C   UNL     1     -41.808 -45.126  11.113  1.00  0.00     0.118 A 
HETATM   18  C   UNL     1     -40.762 -44.229  11.049  1.00  0.00    -0.028 A 
HETATM   19  C   UNL     1     -40.754 -42.801  11.431  1.00  0.00     0.051 C 
HETATM   20  C   UNL     1     -39.689 -44.994  10.548  1.00  0.00     0.115 A 
HETATM   21  N   UNL     1     -40.033 -46.254  10.277  1.00  0.00    -0.309 N 
ATOM     22  HN  UNL     1     -39.465 -46.985   9.850  1.00  0.00     0.186 HD
ENDBRANCH  14  16
ENDBRANCH   2  14
TORSDOF 5
ENDMDL
MODEL 9
REMARK VINA RESULT:      -4.8      3.700      6.054
REMARK  5 active torsions:
REMARK  status: ('A' for Active; 'I' for Inactive)
REMARK    1  A    between atoms: C_2  and  N_3 
REMARK    2  A    between atoms: C_2  and  C_13 
REMARK    3  A    between atoms: N_3  and  C_4 
REMARK    4  A    between atoms: C_4  and  C_6 
REMARK       I    between atoms: C_6  and  N_8 
REMARK    5  A    between atoms: C_13  and  N_15 
ROOT
HETATM    1  C   UNL     1     -43.025 -48.427  12.694  1.00  0.00     0.045 C 
HETATM    2  C   UNL     1     -41.881 -48.589  11.683  1.00  0.00     0.241 C 
ENDROOT
BRANCH   2   3
HETATM    3  N   UNL     1     -41.602 -50.021  11.429  1.00  0.00     0.103 N 
HETATM    4  H   UNL     1     -41.798 -50.243  10.451  1.00  0.00     0.317 HD
BRANCH   3   5
HETATM    5  C   UNL     1     -40.281 -50.588  11.793  1.00  0.00     0.308 C 
HETATM    6  C   UNL     1     -39.088 -49.640  11.673  1.00  0.00     0.053 C 
BRANCH   5   7
HETATM    7  C   UNL     1     -40.311 -51.025  13.286  1.00  0.00     0.252 C 
HETATM    8  O   UNL     1     -40.051 -50.249  14.210  1.00  0.00    -0.271 OA
HETATM    9  N   UNL     1     -40.607 -52.350  13.552  1.00  0.00    -0.350 N 
HETATM   10  C   UNL     1     -40.459 -52.872  14.899  1.00  0.00     0.126 C 
HETATM   11  C   UNL     1     -41.088 -53.372  12.645  1.00  0.00     0.126 C 
HETATM   12  C   UNL     1     -41.067 -54.269  14.859  1.00  0.00     0.021 C 
HETATM   13  C   UNL     1     -41.880 -54.284  13.567  1.00  0.00     0.021 C 
ENDBRANCH   5   7
ENDBRANCH   3   5
ENDBRANCH   2   3
BRANCH   2  14
HETATM   14  C   UNL     1     -42.022 -47.672  10.421  1.00  0.00     0.136 C 
HETATM   15  C   UNL     1     -43.470 -47.439   9.975  1.00  0.00     0.036 C 
BRANCH  14  16
HETATM   16  N   UNL     1     -41.352 -46.377  10.564  1.00  0.00    -0.297 N 
HETATM   17  C   UNL     1     -41.897 -45.173  10.914  1.00  0.00     0.118 A 
HETATM   18  C   UNL     1     -40.855 -44.273  10.977  1.00  0.00    -0.028 A 
HETATM   19  C   UNL     1     -40.897 -42.846  11.361  1.00  0.00     0.051 C 
HETATM   20  C   UNL     1     -39.726 -45.032  10.604  1.00  0.00     0.115 A 
HETATM   21  N   UNL     1     -40.031 -46.293  10.292  1.00  0.00    -0.309 N 
ATOM     22  HN  UNL     1     -39.414 -47.021   9.932  1.00  0.00     0.186 HD
ENDBRANCH  14  16
ENDBRANCH   2  14
TORSDOF 5
ENDMDL
