MODEL 1
REMARK VINA RESULT:      -6.2      0.000      0.000
REMARK  5 active torsions:
REMARK  status: ('A' for Active; 'I' for Inactive)
REMARK    1  A    between atoms: C_6  and  C_7 
REMARK    2  A    between atoms: C_7  and  C_8 
REMARK    3  A    between atoms: C_8  and  N_9 
REMARK       I    between atoms: N_9  and  C_10 
REMARK       I    between atoms: C_10  and  N_12 
REMARK    4  A    between atoms: N_12  and  C_13 
REMARK    5  A    between atoms: C_13  and  C_14 
ROOT
HETATM    1  N   UNL     1     -41.607 -50.905  11.429  1.00  0.00    -0.343 N 
HETATM    2  C   UNL     1     -41.816 -51.964  12.267  1.00  0.00     0.316 C 
HETATM    3  O   UNL     1     -41.052 -52.279  13.167  1.00  0.00    -0.247 OA
HETATM    4  N   UNL     1     -43.008 -52.582  12.014  1.00  0.00    -0.342 N 
HETATM    5  H   UNL     1     -42.319 -50.664  10.755  1.00  0.00     0.164 HD
HETATM    6  H   UNL     1     -43.346 -52.550  11.062  1.00  0.00     0.164 HD
ENDROOT
BRANCH   1   7
HETATM    7  C   UNL     1     -40.458 -50.029  11.566  1.00  0.00     0.131 C 
BRANCH   7   8
HETATM    8  C   UNL     1     -40.838 -48.556  11.698  1.00  0.00     0.084 C 
BRANCH   8   9
HETATM    9  C   UNL     1     -41.942 -48.184  10.756  1.00  0.00     0.052 A 
HETATM   10  N   UNL     1     -41.826 -48.172   9.444  1.00  0.00    -0.363 N 
HETATM   11  C   UNL     1     -43.026 -47.793   8.874  1.00  0.00     0.102 A 
ATOM     12  HN  UNL     1     -40.978 -48.407   8.928  1.00  0.00     0.165 HD
HETATM   13  C   UNL     1     -44.048 -47.521   9.758  1.00  0.00    -0.004 A 
HETATM   14  C   UNL     1     -45.446 -47.103   9.490  1.00  0.00     0.058 C 
HETATM   15  S   UNL     1     -43.490 -47.742  11.362  1.00  0.00    -0.080 SA
ENDBRANCH   8   9
ENDBRANCH   7   8
ENDBRANCH   1   7
BRANCH   4  16
HETATM   16  C   UNL     1     -43.461 -53.705  12.816  1.00  0.00     0.144 C 
BRANCH  16  17
HETATM   17  C   UNL     1     -44.818 -53.433  13.496  1.00  0.00     0.020 C 
HETATM   18  C   UNL     1     -45.512 -54.750  13.875  1.00  0.00     0.028 C 
HETATM   19  C   UNL     1     -45.727 -52.574  12.605  1.00  0.00     0.022 C 
HETATM   20  C   UNL     1     -46.607 -51.639  13.443  1.00  0.00     0.012 C 
HETATM   21  C   UNL     1     -46.281 -51.748  14.924  1.00  0.00     0.075 C 
HETATM   22  S   UNL     1     -44.603 -52.394  14.987  1.00  0.00    -0.158 SA
ENDBRANCH  16  17
ENDBRANCH   4  16
TORSDOF 5
ENDMDL
MODEL 2
REMARK VINA RESULT:      -5.6      2.236      2.518
REMARK  5 active torsions:
REMARK  status: ('A' for Active; 'I' for Inactive)
REMARK    1  A    between atoms: C_6  and  C_7 
REMARK    2  A    between atoms: C_7  and  C_8 
REMARK    3  A    between atoms: C_8  and  N_9 
REMARK       I    between atoms: N_9  and  C_10 
REMARK       I    between atoms: C_10  and  N_12 
REMARK    4  A    between atoms: N_12  and  C_13 
REMARK    5  A    between atoms: C_13  and  C_14 
ROOT
HETATM    1  N   UNL     1     -41.427 -50.714  11.346  1.00  0.00    -0.343 N 
HETATM    2  C   UNL     1     -41.596 -51.918  11.967  1.00  0.00     0.316 C 
HETATM    3  O   UNL     1     -40.693 -52.535  12.512  1.00  0.00    -0.247 OA
HETATM    4  N   UNL     1     -42.904 -52.314  11.958  1.00  0.00    -0.342 N 
HETATM    5  H   UNL     1     -42.236 -50.232  10.980  1.00  0.00     0.164 HD
HETATM    6  H   UNL     1     -43.469 -52.006  11.178  1.00  0.00     0.164 HD
ENDROOT
BRANCH   1   7
HETATM    7  C   UNL     1     -40.145 -50.036  11.314  1.00  0.00     0.131 C 
BRANCH   7   8
HETATM    8  C   UNL     1     -39.960 -49.045  12.462  1.00  0.00     0.084 C 
BRANCH   8   9
HETATM    9  C   UNL     1     -40.011 -47.628  11.981  1.00  0.00     0.052 A 
HETATM   10  N   UNL     1     -40.208 -47.277  10.726  1.00  0.00    -0.363 N 
HETATM   11  C   UNL     1     -40.206 -45.899  10.622  1.00  0.00     0.102 A 
ATOM     12  HN  UNL     1     -40.342 -47.924   9.949  1.00  0.00     0.165 HD
HETATM   13  C   UNL     1     -40.008 -45.212  11.801  1.00  0.00    -0.004 A 
HETATM   14  C   UNL     1     -39.957 -43.749  12.047  1.00  0.00     0.058 C 
HETATM   15  S   UNL     1     -39.813 -46.326  13.086  1.00  0.00    -0.080 SA
ENDBRANCH   8   9
ENDBRANCH   7   8
ENDBRANCH   1   7
BRANCH   4  16
HETATM   16  C   UNL     1     -43.325 -53.545  12.605  1.00  0.00     0.144 C 
BRANCH  16  17
HETATM   17  C   UNL     1     -44.662 -53.385  13.359  1.00  0.00     0.020 C 
HETATM   18  C   UNL     1     -45.267 -54.757  13.690  1.00  0.00     0.028 C 
HETATM   19  C   UNL     1     -45.655 -52.529  12.559  1.00  0.00     0.022 C 
HETATM   20  C   UNL     1     -46.542 -51.691  13.488  1.00  0.00     0.012 C 
HETATM   21  C   UNL     1     -46.142 -51.865  14.944  1.00  0.00     0.075 C 
HETATM   22  S   UNL     1     -44.431 -52.421  14.896  1.00  0.00    -0.158 SA
ENDBRANCH  16  17
ENDBRANCH   4  16
TORSDOF 5
ENDMDL
MODEL 3
REMARK VINA RESULT:      -5.6      2.282      3.217
REMARK  5 active torsions:
REMARK  status: ('A' for Active; 'I' for Inactive)
REMARK    1  A    between atoms: C_6  and  C_7 
REMARK    2  A    between atoms: C_7  and  C_8 
REMARK    3  A    between atoms: C_8  and  N_9 
REMARK       I    between atoms: N_9  and  C_10 
REMARK       I    between atoms: C_10  and  N_12 
REMARK    4  A    between atoms: N_12  and  C_13 
REMARK    5  A    between atoms: C_13  and  C_14 
ROOT
HETATM    1  N   UNL     1     -40.838 -51.017  11.115  1.00  0.00    -0.343 N 
HETATM    2  C   UNL     1     -40.866 -51.752  12.266  1.00  0.00     0.316 C 
HETATM    3  O   UNL     1     -40.391 -51.372  13.326  1.00  0.00    -0.247 OA
HETATM    4  N   UNL     1     -41.542 -52.928  12.100  1.00  0.00    -0.342 N 
HETATM    5  H   UNL     1     -41.315 -51.368  10.297  1.00  0.00     0.164 HD
HETATM    6  H   UNL     1     -41.522 -53.340  11.177  1.00  0.00     0.164 HD
ENDROOT
BRANCH   1   7
HETATM    7  C   UNL     1     -40.266 -49.685  11.064  1.00  0.00     0.131 C 
BRANCH   7   8
HETATM    8  C   UNL     1     -41.316 -48.577  11.101  1.00  0.00     0.084 C 
BRANCH   8   9
HETATM    9  C   UNL     1     -40.686 -47.225  11.246  1.00  0.00     0.052 A 
HETATM   10  N   UNL     1     -40.468 -46.396  10.246  1.00  0.00    -0.363 N 
HETATM   11  C   UNL     1     -39.883 -45.238  10.720  1.00  0.00     0.102 A 
ATOM     12  HN  UNL     1     -40.697 -46.581   9.269  1.00  0.00     0.165 HD
HETATM   13  C   UNL     1     -39.661 -45.195  12.080  1.00  0.00    -0.004 A 
HETATM   14  C   UNL     1     -39.067 -44.117  12.909  1.00  0.00     0.058 C 
HETATM   15  S   UNL     1     -40.199 -46.656  12.793  1.00  0.00    -0.080 SA
ENDBRANCH   8   9
ENDBRANCH   7   8
ENDBRANCH   1   7
BRANCH   4  16
HETATM   16  C   UNL     1     -41.739 -53.848  13.207  1.00  0.00     0.144 C 
BRANCH  16  17
HETATM   17  C   UNL     1     -43.128 -53.693  13.860  1.00  0.00     0.020 C 
HETATM   18  C   UNL     1     -43.056 -52.759  15.078  1.00  0.00     0.028 C 
HETATM   19  C   UNL     1     -43.716 -55.057  14.252  1.00  0.00     0.022 C 
HETATM   20  C   UNL     1     -45.242 -55.069  14.102  1.00  0.00     0.012 C 
HETATM   21  C   UNL     1     -45.754 -53.761  13.522  1.00  0.00     0.075 C 
HETATM   22  S   UNL     1     -44.345 -53.050  12.656  1.00  0.00    -0.158 SA
ENDBRANCH  16  17
ENDBRANCH   4  16
TORSDOF 5
ENDMDL
MODEL 4
REMARK VINA RESULT:      -5.4      2.728      4.432
REMARK  5 active torsions:
REMARK  status: ('A' for Active; 'I' for Inactive)
REMARK    1  A    between atoms: C_6  and  C_7 
REMARK    2  A    between atoms: C_7  and  C_8 
REMARK    3  A    between atoms: C_8  and  N_9 
REMARK       I    between atoms: N_9  and  C_10 
REMARK       I    between atoms: C_10  and  N_12 
REMARK    4  A    between atoms: N_12  and  C_13 
REMARK    5  A    between atoms: C_13  and  C_14 
ROOT
HETATM    1  N   UNL     1     -41.394 -51.093  11.352  1.00  0.00    -0.343 N 
HETATM    2  C   UNL     1     -41.642 -52.187  12.132  1.00  0.00     0.316 C 
HETATM    3  O   UNL     1     -40.827 -52.671  12.904  1.00  0.00    -0.247 OA
HETATM    4  N   UNL     1     -42.927 -52.630  11.989  1.00  0.00    -0.342 N 
HETATM    5  H   UNL     1     -42.142 -50.710  10.793  1.00  0.00     0.164 HD
HETATM    6  H   UNL     1     -43.367 -52.475  11.092  1.00  0.00     0.164 HD
ENDROOT
BRANCH   1   7
HETATM    7  C   UNL     1     -40.132 -50.380  11.405  1.00  0.00     0.131 C 
BRANCH   7   8
HETATM    8  C   UNL     1     -40.116 -49.261  12.445  1.00  0.00     0.084 C 
BRANCH   8   9
HETATM    9  C   UNL     1     -39.089 -49.511  13.507  1.00  0.00     0.052 A 
HETATM   10  N   UNL     1     -38.857 -50.687  14.053  1.00  0.00    -0.363 N 
HETATM   11  C   UNL     1     -37.847 -50.575  14.988  1.00  0.00     0.102 A 
ATOM     12  HN  UNL     1     -39.349 -51.550  13.820  1.00  0.00     0.165 HD
HETATM   13  C   UNL     1     -37.316 -49.313  15.146  1.00  0.00    -0.004 A 
HETATM   14  C   UNL     1     -36.230 -48.846  16.043  1.00  0.00     0.058 C 
HETATM   15  S   UNL     1     -38.111 -48.223  14.090  1.00  0.00    -0.080 SA
ENDBRANCH   8   9
ENDBRANCH   7   8
ENDBRANCH   1   7
BRANCH   4  16
HETATM   16  C   UNL     1     -43.428 -53.755  12.761  1.00  0.00     0.144 C 
BRANCH  16  17
HETATM   17  C   UNL     1     -44.780 -53.448  13.437  1.00  0.00     0.020 C 
HETATM   18  C   UNL     1     -45.503 -54.748  13.822  1.00  0.00     0.028 C 
HETATM   19  C   UNL     1     -45.668 -52.574  12.540  1.00  0.00     0.022 C 
HETATM   20  C   UNL     1     -46.527 -51.615  13.373  1.00  0.00     0.012 C 
HETATM   21  C   UNL     1     -46.205 -51.724  14.855  1.00  0.00     0.075 C 
HETATM   22  S   UNL     1     -44.542 -52.408  14.923  1.00  0.00    -0.158 SA
ENDBRANCH  16  17
ENDBRANCH   4  16
TORSDOF 5
ENDMDL
MODEL 5
REMARK VINA RESULT:      -5.1      1.537      6.083
REMARK  5 active torsions:
REMARK  status: ('A' for Active; 'I' for Inactive)
REMARK    1  A    between atoms: C_6  and  C_7 
REMARK    2  A    between atoms: C_7  and  C_8 
REMARK    3  A    between atoms: C_8  and  N_9 
REMARK       I    between atoms: N_9  and  C_10 
REMARK       I    between atoms: C_10  and  N_12 
REMARK    4  A    between atoms: N_12  and  C_13 
REMARK    5  A    between atoms: C_13  and  C_14 
ROOT
HETATM    1  N   UNL     1     -41.658 -52.394  12.327  1.00  0.00    -0.343 N 
HETATM    2  C   UNL     1     -40.915 -51.262  12.152  1.00  0.00     0.316 C 
HETATM    3  O   UNL     1     -39.782 -51.117  12.588  1.00  0.00    -0.247 OA
HETATM    4  N   UNL     1     -41.566 -50.342  11.379  1.00  0.00    -0.342 N 
HETATM    5  H   UNL     1     -42.558 -52.465  11.875  1.00  0.00     0.164 HD
HETATM    6  H   UNL     1     -42.577 -50.344  11.421  1.00  0.00     0.164 HD
ENDROOT
BRANCH   1   7
HETATM    7  C   UNL     1     -41.141 -53.555  13.027  1.00  0.00     0.131 C 
BRANCH   7   8
HETATM    8  C   UNL     1     -42.198 -54.273  13.863  1.00  0.00     0.084 C 
BRANCH   8   9
HETATM    9  C   UNL     1     -43.547 -53.640  13.710  1.00  0.00     0.052 A 
HETATM   10  N   UNL     1     -44.385 -53.906  12.729  1.00  0.00    -0.363 N 
HETATM   11  C   UNL     1     -45.537 -53.161  12.885  1.00  0.00     0.102 A 
ATOM     12  HN  UNL     1     -44.210 -54.564  11.969  1.00  0.00     0.165 HD
HETATM   13  C   UNL     1     -45.567 -52.331  13.987  1.00  0.00    -0.004 A 
HETATM   14  C   UNL     1     -46.636 -51.414  14.453  1.00  0.00     0.058 C 
HETATM   15  S   UNL     1     -44.101 -52.485  14.857  1.00  0.00    -0.080 SA
ENDBRANCH   8   9
ENDBRANCH   7   8
ENDBRANCH   1   7
BRANCH   4  16
HETATM   16  C   UNL     1     -40.943 -49.080  11.021  1.00  0.00     0.144 C 
BRANCH  16  17
HETATM   17  C   UNL     1     -41.936 -47.899  11.070  1.00  0.00     0.020 C 
HETATM   18  C   UNL     1     -42.906 -48.053  12.251  1.00  0.00     0.028 C 
HETATM   19  C   UNL     1     -42.703 -47.759   9.747  1.00  0.00     0.022 C 
HETATM   20  C   UNL     1     -43.005 -46.289   9.432  1.00  0.00     0.012 C 
HETATM   21  C   UNL     1     -42.389 -45.361  10.465  1.00  0.00     0.075 C 
HETATM   22  S   UNL     1     -41.046 -46.306  11.202  1.00  0.00    -0.158 SA
ENDBRANCH  16  17
ENDBRANCH   4  16
TORSDOF 5
ENDMDL
MODEL 6
REMARK VINA RESULT:      -5.1      2.144      6.468
REMARK  5 active torsions:
REMARK  status: ('A' for Active; 'I' for Inactive)
REMARK    1  A    between atoms: C_6  and  C_7 
REMARK    2  A    between atoms: C_7  and  C_8 
REMARK    3  A    between atoms: C_8  and  N_9 
REMARK       I    between atoms: N_9  and  C_10 
REMARK       I    between atoms: C_10  and  N_12 
REMARK    4  A    between atoms: N_12  and  C_13 
REMARK    5  A    between atoms: C_13  and  C_14 
ROOT
HETATM    1  N   UNL     1     -40.490 -51.786  13.771  1.00  0.00    -0.343 N 
HETATM    2  C   UNL     1     -39.744 -50.981  12.957  1.00  0.00     0.316 C 
HETATM    3  O   UNL     1     -38.722 -51.343  12.394  1.00  0.00    -0.247 OA
HETATM    4  N   UNL     1     -40.314 -49.749  12.804  1.00  0.00    -0.342 N 
HETATM    5  H   UNL     1     -41.361 -51.436  14.143  1.00  0.00     0.164 HD
HETATM    6  H   UNL     1     -40.866 -49.401  13.576  1.00  0.00     0.164 HD
ENDROOT
BRANCH   1   7
HETATM    7  C   UNL     1     -40.144 -53.175  14.007  1.00  0.00     0.131 C 
BRANCH   7   8
HETATM    8  C   UNL     1     -40.845 -54.140  13.052  1.00  0.00     0.084 C 
BRANCH   8   9
HETATM    9  C   UNL     1     -42.335 -54.039  13.163  1.00  0.00     0.052 A 
HETATM   10  N   UNL     1     -43.115 -53.513  12.240  1.00  0.00    -0.363 N 
HETATM   11  C   UNL     1     -44.432 -53.582  12.648  1.00  0.00     0.102 A 
ATOM     12  HN  UNL     1     -42.793 -53.115  11.357  1.00  0.00     0.165 HD
HETATM   13  C   UNL     1     -44.647 -54.163  13.880  1.00  0.00    -0.004 A 
HETATM   14  C   UNL     1     -45.918 -54.401  14.607  1.00  0.00     0.058 C 
HETATM   15  S   UNL     1     -43.146 -54.636  14.557  1.00  0.00    -0.080 SA
ENDBRANCH   8   9
ENDBRANCH   7   8
ENDBRANCH   1   7
BRANCH   4  16
HETATM   16  C   UNL     1     -39.718 -48.743  11.941  1.00  0.00     0.144 C 
BRANCH  16  17
HETATM   17  C   UNL     1     -40.694 -47.595  11.615  1.00  0.00     0.020 C 
HETATM   18  C   UNL     1     -39.934 -46.366  11.091  1.00  0.00     0.028 C 
HETATM   19  C   UNL     1     -41.552 -47.227  12.834  1.00  0.00     0.022 C 
HETATM   20  C   UNL     1     -42.958 -46.785  12.413  1.00  0.00     0.012 C 
HETATM   21  C   UNL     1     -43.155 -46.913  10.911  1.00  0.00     0.075 C 
HETATM   22  S   UNL     1     -41.937 -48.127  10.382  1.00  0.00    -0.158 SA
ENDBRANCH  16  17
ENDBRANCH   4  16
TORSDOF 5
ENDMDL
MODEL 7
REMARK VINA RESULT:      -5.0      1.812      6.676
REMARK  5 active torsions:
REMARK  status: ('A' for Active; 'I' for Inactive)
REMARK    1  A    between atoms: C_6  and  C_7 
REMARK    2  A    between atoms: C_7  and  C_8 
REMARK    3  A    between atoms: C_8  and  N_9 
REMARK       I    between atoms: N_9  and  C_10 
REMARK       I    between atoms: C_10  and  N_12 
REMARK    4  A    between atoms: N_12  and  C_13 
REMARK    5  A    between atoms: C_13  and  C_14 
ROOT
HETATM    1  N   UNL     1     -41.032 -51.663  12.231  1.00  0.00    -0.343 N 
HETATM    2  C   UNL     1     -41.833 -50.623  12.610  1.00  0.00     0.316 C 
HETATM    3  O   UNL     1     -42.281 -50.486  13.739  1.00  0.00    -0.247 OA
HETATM    4  N   UNL     1     -42.017 -49.729  11.594  1.00  0.00    -0.342 N 
HETATM    5  H   UNL     1     -40.643 -51.668  11.299  1.00  0.00     0.164 HD
HETATM    6  H   UNL     1     -41.989 -50.095  10.651  1.00  0.00     0.164 HD
ENDROOT
BRANCH   1   7
HETATM    7  C   UNL     1     -40.608 -52.689  13.165  1.00  0.00     0.131 C 
BRANCH   7   8
HETATM    8  C   UNL     1     -41.261 -54.045  12.905  1.00  0.00     0.084 C 
BRANCH   8   9
HETATM    9  C   UNL     1     -42.725 -54.021  13.221  1.00  0.00     0.052 A 
HETATM   10  N   UNL     1     -43.674 -53.827  12.329  1.00  0.00    -0.363 N 
HETATM   11  C   UNL     1     -44.910 -53.872  12.945  1.00  0.00     0.102 A 
ATOM     12  HN  UNL     1     -43.520 -53.669  11.333  1.00  0.00     0.165 HD
HETATM   13  C   UNL     1     -44.891 -54.101  14.305  1.00  0.00    -0.004 A 
HETATM   14  C   UNL     1     -46.019 -54.216  15.262  1.00  0.00     0.058 C 
HETATM   15  S   UNL     1     -43.270 -54.263  14.834  1.00  0.00    -0.080 SA
ENDBRANCH   8   9
ENDBRANCH   7   8
ENDBRANCH   1   7
BRANCH   4  16
HETATM   16  C   UNL     1     -42.796 -48.518  11.785  1.00  0.00     0.144 C 
BRANCH  16  17
HETATM   17  C   UNL     1     -42.236 -47.325  10.982  1.00  0.00     0.020 C 
HETATM   18  C   UNL     1     -42.901 -47.240   9.599  1.00  0.00     0.028 C 
HETATM   19  C   UNL     1     -40.708 -47.409  10.849  1.00  0.00     0.022 C 
HETATM   20  C   UNL     1     -40.073 -46.014  10.850  1.00  0.00     0.012 C 
HETATM   21  C   UNL     1     -41.114 -44.928  11.070  1.00  0.00     0.075 C 
HETATM   22  S   UNL     1     -42.487 -45.755  11.888  1.00  0.00    -0.158 SA
ENDBRANCH  16  17
ENDBRANCH   4  16
TORSDOF 5
ENDMDL
MODEL 8
REMARK VINA RESULT:      -5.0      1.999      2.328
REMARK  5 active torsions:
REMARK  status: ('A' for Active; 'I' for Inactive)
REMARK    1  A    between atoms: C_6  and  C_7 
REMARK    2  A    between atoms: C_7  and  C_8 
REMARK    3  A    between atoms: C_8  and  N_9 
REMARK       I    between atoms: N_9  and  C_10 
REMARK       I    between atoms: C_10  and  N_12 
REMARK    4  A    between atoms: N_12  and  C_13 
REMARK    5  A    between atoms: C_13  and  C_14 
ROOT
HETATM    1  N   UNL     1     -39.903 -51.739  12.940  1.00  0.00    -0.343 N 
HETATM    2  C   UNL     1     -40.762 -51.751  14.002  1.00  0.00     0.316 C 
HETATM    3  O   UNL     1     -40.612 -51.069  15.005  1.00  0.00    -0.247 OA
HETATM    4  N   UNL     1     -41.834 -52.568  13.778  1.00  0.00    -0.342 N 
HETATM    5  H   UNL     1     -40.133 -52.278  12.117  1.00  0.00     0.164 HD
HETATM    6  H   UNL     1     -41.682 -53.366  13.175  1.00  0.00     0.164 HD
ENDROOT
BRANCH   1   7
HETATM    7  C   UNL     1     -38.742 -50.871  12.898  1.00  0.00     0.131 C 
BRANCH   7   8
HETATM    8  C   UNL     1     -38.707 -49.972  11.663  1.00  0.00     0.084 C 
BRANCH   8   9
HETATM    9  C   UNL     1     -39.966 -49.171  11.530  1.00  0.00     0.052 A 
HETATM   10  N   UNL     1     -40.782 -49.236  10.497  1.00  0.00    -0.363 N 
HETATM   11  C   UNL     1     -41.847 -48.379  10.691  1.00  0.00     0.102 A 
ATOM     12  HN  UNL     1     -40.646 -49.829   9.679  1.00  0.00     0.165 HD
HETATM   13  C   UNL     1     -41.835 -47.668  11.873  1.00  0.00    -0.004 A 
HETATM   14  C   UNL     1     -42.814 -46.682  12.396  1.00  0.00     0.058 C 
HETATM   15  S   UNL     1     -40.439 -48.082  12.773  1.00  0.00    -0.080 SA
ENDBRANCH   8   9
ENDBRANCH   7   8
ENDBRANCH   1   7
BRANCH   4  16
HETATM   16  C   UNL     1     -42.902 -52.698  14.754  1.00  0.00     0.144 C 
BRANCH  16  17
HETATM   17  C   UNL     1     -44.297 -52.746  14.097  1.00  0.00     0.020 C 
HETATM   18  C   UNL     1     -44.204 -53.288  12.663  1.00  0.00     0.028 C 
HETATM   19  C   UNL     1     -44.972 -51.366  14.118  1.00  0.00     0.022 C 
HETATM   20  C   UNL     1     -46.491 -51.493  14.280  1.00  0.00     0.012 C 
HETATM   21  C   UNL     1     -46.912 -52.941  14.466  1.00  0.00     0.075 C 
HETATM   22  S   UNL     1     -45.443 -53.781  15.079  1.00  0.00    -0.158 SA
ENDBRANCH  16  17
ENDBRANCH   4  16
TORSDOF 5
ENDMDL
MODEL 9
REMARK VINA RESULT:      -5.0      2.935      6.534
REMARK  5 active torsions:
REMARK  status: ('A' for Active; 'I' for Inactive)
REMARK    1  A    between atoms: C_6  and  C_7 
REMARK    2  A    between atoms: C_7  and  C_8 
REMARK    3  A    between atoms: C_8  and  N_9 
REMARK       I    between atoms: N_9  and  C_10 
REMARK       I    between atoms: C_10  and  N_12 
REMARK    4  A    between atoms: N_12  and  C_13 
REMARK    5  A    between atoms: C_13  and  C_14 
ROOT
HETATM    1  N   UNL     1     -41.466 -53.181  14.057  1.00  0.00    -0.343 N 
HETATM    2  C   UNL     1     -40.165 -52.987  13.687  1.00  0.00     0.316 C 
HETATM    3  O   UNL     1     -39.389 -53.895  13.431  1.00  0.00    -0.247 OA
HETATM    4  N   UNL     1     -39.861 -51.659  13.579  1.00  0.00    -0.342 N 
HETATM    5  H   UNL     1     -42.065 -52.377  14.183  1.00  0.00     0.164 HD
HETATM    6  H   UNL     1     -40.370 -51.024  14.179  1.00  0.00     0.164 HD
ENDROOT
BRANCH   1   7
HETATM    7  C   UNL     1     -42.054 -54.504  14.141  1.00  0.00     0.131 C 
BRANCH   7   8
HETATM    8  C   UNL     1     -43.327 -54.544  14.984  1.00  0.00     0.084 C 
BRANCH   8   9
HETATM    9  C   UNL     1     -44.348 -53.566  14.487  1.00  0.00     0.052 A 
HETATM   10  N   UNL     1     -44.867 -52.599  15.217  1.00  0.00    -0.363 N 
HETATM   11  C   UNL     1     -45.767 -51.876  14.459  1.00  0.00     0.102 A 
ATOM     12  HN  UNL     1     -44.638 -52.413  16.194  1.00  0.00     0.165 HD
HETATM   13  C   UNL     1     -45.926 -52.297  13.156  1.00  0.00    -0.004 A 
HETATM   14  C   UNL     1     -46.792 -51.751  12.082  1.00  0.00     0.058 C 
HETATM   15  S   UNL     1     -44.917 -53.650  12.867  1.00  0.00    -0.080 SA
ENDBRANCH   8   9
ENDBRANCH   7   8
ENDBRANCH   1   7
BRANCH   4  16
HETATM   16  C   UNL     1     -38.545 -51.218  13.150  1.00  0.00     0.144 C 
BRANCH  16  17
HETATM   17  C   UNL     1     -38.596 -49.889  12.369  1.00  0.00     0.020 C 
HETATM   18  C   UNL     1     -37.461 -49.821  11.336  1.00  0.00     0.028 C 
HETATM   19  C   UNL     1     -38.544 -48.681  13.317  1.00  0.00     0.022 C 
HETATM   20  C   UNL     1     -39.375 -47.513  12.775  1.00  0.00     0.012 C 
HETATM   21  C   UNL     1     -40.098 -47.892  11.493  1.00  0.00     0.075 C 
HETATM   22  S   UNL     1     -40.210 -49.688  11.532  1.00  0.00    -0.158 SA
ENDBRANCH  16  17
ENDBRANCH   4  16
TORSDOF 5
ENDMDL
