MODEL 1
REMARK VINA RESULT:      -4.5      0.000      0.000
REMARK  4 active torsions:
REMARK  status: ('A' for Active; 'I' for Inactive)
REMARK    1  A    between atoms: N_5  and  C_6 
REMARK    2  A    between atoms: C_6  and  C_7 
REMARK    3  A    between atoms: C_7  and  C_8 
REMARK    4  A    between atoms: C_13  and  N_14 
ROOT
HETATM    1  C   UNL     3     -42.885 -47.642   9.543  1.00  0.00     0.143 A 
HETATM    2  N   UNL     3     -42.853 -48.017   8.248  1.00  0.00    -0.280 N 
ATOM      3  HN  UNL     3     -42.044 -48.356   7.730  1.00  0.00     0.189 HD
HETATM    4  N   UNL     3     -44.083 -47.858   7.784  1.00  0.00    -0.263 N 
ATOM      5  HN  UNL     3     -44.411 -48.051   6.838  1.00  0.00     0.190 HD
HETATM    6  C   UNL     3     -44.810 -47.389   8.814  1.00  0.00     0.238 A 
HETATM    7  O   UNL     3     -44.087 -47.252   9.898  1.00  0.00    -0.264 OA
ENDROOT
BRANCH   1   8
HETATM    8  C   UNL     3     -41.701 -47.657  10.455  1.00  0.00     0.116 C 
BRANCH   8   9
HETATM    9  C   UNL     3     -41.524 -49.044  11.080  1.00  0.00     0.274 C 
BRANCH   9  10
HETATM   10  N   UNL     3     -40.574 -49.830  10.303  1.00  0.00     0.078 N 
HETATM   11  H   UNL     3     -40.778 -50.845  10.448  1.00  0.00     0.312 HD
HETATM   12  H   UNL     3     -39.605 -49.646  10.650  1.00  0.00     0.312 HD
ENDBRANCH   9  10
ENDBRANCH   8   9
ENDBRANCH   1   8
BRANCH   6  13
HETATM   13  N   UNL     3     -46.184 -47.081   8.736  1.00  0.00    -0.364 N 
HETATM   14  H   UNL     3     -46.855 -47.528   9.379  1.00  0.00     0.159 HD
HETATM   15  H   UNL     3     -46.524 -46.410   8.033  1.00  0.00     0.159 HD
ENDBRANCH   6  13
TORSDOF 4
ENDMDL
MODEL 2
REMARK VINA RESULT:      -4.5      5.420      6.159
REMARK  4 active torsions:
REMARK  status: ('A' for Active; 'I' for Inactive)
REMARK    1  A    between atoms: N_5  and  C_6 
REMARK    2  A    between atoms: C_6  and  C_7 
REMARK    3  A    between atoms: C_7  and  C_8 
REMARK    4  A    between atoms: C_13  and  N_14 
ROOT
HETATM    1  C   UNL     3     -39.897 -51.159  12.160  1.00  0.00     0.143 A 
HETATM    2  N   UNL     3     -40.881 -51.161  11.237  1.00  0.00    -0.280 N 
ATOM      3  HN  UNL     3     -41.163 -50.381  10.643  1.00  0.00     0.189 HD
HETATM    4  N   UNL     3     -41.407 -52.375  11.255  1.00  0.00    -0.263 N 
ATOM      5  HN  UNL     3     -42.172 -52.720  10.677  1.00  0.00     0.190 HD
HETATM    6  C   UNL     3     -40.725 -53.060  12.190  1.00  0.00     0.238 A 
HETATM    7  O   UNL     3     -39.797 -52.326  12.752  1.00  0.00    -0.264 OA
ENDROOT
BRANCH   1   8
HETATM    8  C   UNL     3     -39.039 -49.977  12.477  1.00  0.00     0.116 C 
BRANCH   8   9
HETATM    9  C   UNL     3     -37.610 -50.204  11.976  1.00  0.00     0.274 C 
BRANCH   9  10
HETATM   10  N   UNL     3     -37.552 -50.052  10.527  1.00  0.00     0.078 N 
HETATM   11  H   UNL     3     -36.550 -50.045  10.229  1.00  0.00     0.312 HD
HETATM   12  H   UNL     3     -37.972 -49.133  10.258  1.00  0.00     0.312 HD
ENDBRANCH   9  10
ENDBRANCH   8   9
ENDBRANCH   1   8
BRANCH   6  13
HETATM   13  N   UNL     3     -40.979 -54.406  12.525  1.00  0.00    -0.364 N 
HETATM   14  H   UNL     3     -41.015 -54.699  13.513  1.00  0.00     0.159 HD
HETATM   15  H   UNL     3     -41.128 -55.104  11.783  1.00  0.00     0.159 HD
ENDBRANCH   6  13
TORSDOF 4
ENDMDL
MODEL 3
REMARK VINA RESULT:      -4.4      1.651      2.103
REMARK  4 active torsions:
REMARK  status: ('A' for Active; 'I' for Inactive)
REMARK    1  A    between atoms: N_5  and  C_6 
REMARK    2  A    between atoms: C_6  and  C_7 
REMARK    3  A    between atoms: C_7  and  C_8 
REMARK    4  A    between atoms: C_13  and  N_14 
ROOT
HETATM    1  C   UNL     3     -44.108 -46.554   9.222  1.00  0.00     0.143 A 
HETATM    2  N   UNL     3     -45.160 -45.718   9.108  1.00  0.00    -0.280 N 
ATOM      3  HN  UNL     3     -45.146 -44.703   9.197  1.00  0.00     0.189 HD
HETATM    4  N   UNL     3     -46.214 -46.478   8.858  1.00  0.00    -0.263 N 
ATOM      5  HN  UNL     3     -47.174 -46.167   8.713  1.00  0.00     0.190 HD
HETATM    6  C   UNL     3     -45.761 -47.744   8.834  1.00  0.00     0.238 A 
HETATM    7  O   UNL     3     -44.472 -47.804   9.056  1.00  0.00    -0.264 OA
ENDROOT
BRANCH   1   8
HETATM    8  C   UNL     3     -42.709 -46.115   9.512  1.00  0.00     0.116 C 
BRANCH   8   9
HETATM    9  C   UNL     3     -42.037 -47.081  10.492  1.00  0.00     0.274 C 
BRANCH   9  10
HETATM   10  N   UNL     3     -41.725 -48.340   9.826  1.00  0.00     0.078 N 
HETATM   11  H   UNL     3     -40.688 -48.475   9.832  1.00  0.00     0.312 HD
HETATM   12  H   UNL     3     -42.034 -48.290   8.828  1.00  0.00     0.312 HD
ENDBRANCH   9  10
ENDBRANCH   8   9
ENDBRANCH   1   8
BRANCH   6  13
HETATM   13  N   UNL     3     -46.576 -48.871   8.599  1.00  0.00    -0.364 N 
HETATM   14  H   UNL     3     -47.061 -49.336   9.381  1.00  0.00     0.159 HD
HETATM   15  H   UNL     3     -46.690 -49.236   7.642  1.00  0.00     0.159 HD
ENDBRANCH   6  13
TORSDOF 4
ENDMDL
MODEL 4
REMARK VINA RESULT:      -4.2      5.358      6.699
REMARK  4 active torsions:
REMARK  status: ('A' for Active; 'I' for Inactive)
REMARK    1  A    between atoms: N_5  and  C_6 
REMARK    2  A    between atoms: C_6  and  C_7 
REMARK    3  A    between atoms: C_7  and  C_8 
REMARK    4  A    between atoms: C_13  and  N_14 
ROOT
HETATM    1  C   UNL     3     -40.696 -52.846  12.393  1.00  0.00     0.143 A 
HETATM    2  N   UNL     3     -41.356 -52.305  11.349  1.00  0.00    -0.280 N 
ATOM      3  HN  UNL     3     -42.128 -52.724  10.831  1.00  0.00     0.189 HD
HETATM    4  N   UNL     3     -40.804 -51.122  11.131  1.00  0.00    -0.263 N 
ATOM      5  HN  UNL     3     -41.066 -50.445  10.415  1.00  0.00     0.190 HD
HETATM    6  C   UNL     3     -39.829 -50.993  12.048  1.00  0.00     0.238 A 
HETATM    7  O   UNL     3     -39.752 -52.043  12.828  1.00  0.00    -0.264 OA
ENDROOT
BRANCH   1   8
HETATM    8  C   UNL     3     -40.992 -54.191  12.974  1.00  0.00     0.116 C 
BRANCH   8   9
HETATM    9  C   UNL     3     -40.082 -54.467  14.174  1.00  0.00     0.274 C 
BRANCH   9  10
HETATM   10  N   UNL     3     -38.766 -54.900  13.721  1.00  0.00     0.078 N 
HETATM   11  H   UNL     3     -38.557 -55.835  14.141  1.00  0.00     0.312 HD
HETATM   12  H   UNL     3     -38.042 -54.227  14.062  1.00  0.00     0.312 HD
ENDBRANCH   9  10
ENDBRANCH   8   9
ENDBRANCH   1   8
BRANCH   6  13
HETATM   13  N   UNL     3     -38.990 -49.865  12.157  1.00  0.00    -0.364 N 
HETATM   14  H   UNL     3     -38.512 -49.489  11.324  1.00  0.00     0.159 HD
HETATM   15  H   UNL     3     -38.850 -49.411  13.070  1.00  0.00     0.159 HD
ENDBRANCH   6  13
TORSDOF 4
ENDMDL
MODEL 5
REMARK VINA RESULT:      -4.1      1.659      2.132
REMARK  4 active torsions:
REMARK  status: ('A' for Active; 'I' for Inactive)
REMARK    1  A    between atoms: N_5  and  C_6 
REMARK    2  A    between atoms: C_6  and  C_7 
REMARK    3  A    between atoms: C_7  and  C_8 
REMARK    4  A    between atoms: C_13  and  N_14 
ROOT
HETATM    1  C   UNL     3     -42.394 -48.273  11.073  1.00  0.00     0.143 A 
HETATM    2  N   UNL     3     -43.739 -48.358  11.119  1.00  0.00    -0.280 N 
ATOM      3  HN  UNL     3     -44.300 -48.746  11.876  1.00  0.00     0.189 HD
HETATM    4  N   UNL     3     -44.184 -47.840   9.986  1.00  0.00    -0.263 N 
ATOM      5  HN  UNL     3     -45.157 -47.744   9.696  1.00  0.00     0.190 HD
HETATM    6  C   UNL     3     -43.093 -47.463   9.296  1.00  0.00     0.238 A 
HETATM    7  O   UNL     3     -41.989 -47.723   9.952  1.00  0.00    -0.264 OA
ENDROOT
BRANCH   1   8
HETATM    8  C   UNL     3     -41.480 -48.751  12.155  1.00  0.00     0.116 C 
BRANCH   8   9
HETATM    9  C   UNL     3     -40.833 -50.081  11.758  1.00  0.00     0.274 C 
BRANCH   9  10
HETATM   10  N   UNL     3     -40.386 -50.032  10.372  1.00  0.00     0.078 N 
HETATM   11  H   UNL     3     -41.147 -50.403   9.759  1.00  0.00     0.312 HD
HETATM   12  H   UNL     3     -39.550 -50.650  10.254  1.00  0.00     0.312 HD
ENDBRANCH   9  10
ENDBRANCH   8   9
ENDBRANCH   1   8
BRANCH   6  13
HETATM   13  N   UNL     3     -43.132 -46.862   8.021  1.00  0.00    -0.364 N 
HETATM   14  H   UNL     3     -43.972 -46.348   7.714  1.00  0.00     0.159 HD
HETATM   15  H   UNL     3     -42.322 -46.936   7.390  1.00  0.00     0.159 HD
ENDBRANCH   6  13
TORSDOF 4
ENDMDL
MODEL 6
REMARK VINA RESULT:      -4.1      5.171      6.763
REMARK  4 active torsions:
REMARK  status: ('A' for Active; 'I' for Inactive)
REMARK    1  A    between atoms: N_5  and  C_6 
REMARK    2  A    between atoms: C_6  and  C_7 
REMARK    3  A    between atoms: C_7  and  C_8 
REMARK    4  A    between atoms: C_13  and  N_14 
ROOT
HETATM    1  C   UNL     3     -42.465 -53.368  12.965  1.00  0.00     0.143 A 
HETATM    2  N   UNL     3     -41.532 -54.148  12.382  1.00  0.00    -0.280 N 
ATOM      3  HN  UNL     3     -41.430 -55.157  12.481  1.00  0.00     0.189 HD
HETATM    4  N   UNL     3     -40.775 -53.342  11.654  1.00  0.00    -0.263 N 
ATOM      5  HN  UNL     3     -39.975 -53.605  11.079  1.00  0.00     0.190 HD
HETATM    6  C   UNL     3     -41.275 -52.106  11.828  1.00  0.00     0.238 A 
HETATM    7  O   UNL     3     -42.311 -52.108  12.630  1.00  0.00    -0.264 OA
ENDROOT
BRANCH   1   8
HETATM    8  C   UNL     3     -43.530 -53.871  13.885  1.00  0.00     0.116 C 
BRANCH   8   9
HETATM    9  C   UNL     3     -44.874 -53.949  13.156  1.00  0.00     0.274 C 
BRANCH   9  10
HETATM   10  N   UNL     3     -45.030 -52.808  12.263  1.00  0.00     0.078 N 
HETATM   11  H   UNL     3     -44.930 -53.137  11.275  1.00  0.00     0.312 HD
HETATM   12  H   UNL     3     -44.269 -52.116  12.447  1.00  0.00     0.312 HD
ENDBRANCH   9  10
ENDBRANCH   8   9
ENDBRANCH   1   8
BRANCH   6  13
HETATM   13  N   UNL     3     -40.748 -50.947  11.222  1.00  0.00    -0.364 N 
HETATM   14  H   UNL     3     -39.927 -51.012  10.601  1.00  0.00     0.159 HD
HETATM   15  H   UNL     3     -41.180 -50.029  11.397  1.00  0.00     0.159 HD
ENDBRANCH   6  13
TORSDOF 4
ENDMDL
MODEL 7
REMARK VINA RESULT:      -4.1      2.513      3.065
REMARK  4 active torsions:
REMARK  status: ('A' for Active; 'I' for Inactive)
REMARK    1  A    between atoms: N_5  and  C_6 
REMARK    2  A    between atoms: C_6  and  C_7 
REMARK    3  A    between atoms: C_7  and  C_8 
REMARK    4  A    between atoms: C_13  and  N_14 
ROOT
HETATM    1  C   UNL     3     -40.417 -47.401  11.253  1.00  0.00     0.143 A 
HETATM    2  N   UNL     3     -39.960 -46.403  10.469  1.00  0.00    -0.280 N 
ATOM      3  HN  UNL     3     -38.986 -46.181  10.269  1.00  0.00     0.189 HD
HETATM    4  N   UNL     3     -41.029 -45.770  10.012  1.00  0.00    -0.263 N 
ATOM      5  HN  UNL     3     -41.043 -44.964   9.387  1.00  0.00     0.190 HD
HETATM    6  C   UNL     3     -42.090 -46.405  10.539  1.00  0.00     0.238 A 
HETATM    7  O   UNL     3     -41.729 -47.407  11.301  1.00  0.00    -0.264 OA
ENDROOT
BRANCH   1   8
HETATM    8  C   UNL     3     -39.542 -48.370  11.982  1.00  0.00     0.116 C 
BRANCH   8   9
HETATM    9  C   UNL     3     -39.956 -49.809  11.662  1.00  0.00     0.274 C 
BRANCH   9  10
HETATM   10  N   UNL     3     -40.465 -49.897  10.299  1.00  0.00     0.078 N 
HETATM   11  H   UNL     3     -40.139 -49.060   9.763  1.00  0.00     0.312 HD
HETATM   12  H   UNL     3     -41.510 -49.878  10.317  1.00  0.00     0.312 HD
ENDBRANCH   9  10
ENDBRANCH   8   9
ENDBRANCH   1   8
BRANCH   6  13
HETATM   13  N   UNL     3     -43.430 -46.037  10.300  1.00  0.00    -0.364 N 
HETATM   14  H   UNL     3     -44.040 -45.754  11.082  1.00  0.00     0.159 HD
HETATM   15  H   UNL     3     -43.807 -46.050   9.342  1.00  0.00     0.159 HD
ENDBRANCH   6  13
TORSDOF 4
ENDMDL
MODEL 8
REMARK VINA RESULT:      -4.1      1.629      4.079
REMARK  4 active torsions:
REMARK  status: ('A' for Active; 'I' for Inactive)
REMARK    1  A    between atoms: N_5  and  C_6 
REMARK    2  A    between atoms: C_6  and  C_7 
REMARK    3  A    between atoms: C_7  and  C_8 
REMARK    4  A    between atoms: C_13  and  N_14 
ROOT
HETATM    1  C   UNL     3     -41.927 -47.207  10.223  1.00  0.00     0.143 A 
HETATM    2  N   UNL     3     -40.668 -46.853  10.550  1.00  0.00    -0.280 N 
ATOM      3  HN  UNL     3     -40.269 -45.916  10.518  1.00  0.00     0.189 HD
HETATM    4  N   UNL     3     -40.053 -47.965  10.920  1.00  0.00    -0.263 N 
ATOM      5  HN  UNL     3     -39.087 -48.057  11.234  1.00  0.00     0.190 HD
HETATM    6  C   UNL     3     -40.962 -48.949  10.799  1.00  0.00     0.238 A 
HETATM    7  O   UNL     3     -42.115 -48.497  10.373  1.00  0.00    -0.264 OA
ENDROOT
BRANCH   1   8
HETATM    8  C   UNL     3     -42.973 -46.254   9.741  1.00  0.00     0.116 C 
BRANCH   8   9
HETATM    9  C   UNL     3     -43.890 -46.937   8.722  1.00  0.00     0.274 C 
BRANCH   9  10
HETATM   10  N   UNL     3     -43.096 -47.596   7.692  1.00  0.00     0.078 N 
HETATM   11  H   UNL     3     -42.769 -46.877   7.007  1.00  0.00     0.312 HD
HETATM   12  H   UNL     3     -43.697 -48.279   7.175  1.00  0.00     0.312 HD
ENDBRANCH   9  10
ENDBRANCH   8   9
ENDBRANCH   1   8
BRANCH   6  13
HETATM   13  N   UNL     3     -40.704 -50.304  11.096  1.00  0.00    -0.364 N 
HETATM   14  H   UNL     3     -41.017 -50.709  11.991  1.00  0.00     0.159 HD
HETATM   15  H   UNL     3     -40.201 -50.894  10.419  1.00  0.00     0.159 HD
ENDBRANCH   6  13
TORSDOF 4
ENDMDL
MODEL 9
REMARK VINA RESULT:      -4.0      1.999      2.240
REMARK  4 active torsions:
REMARK  status: ('A' for Active; 'I' for Inactive)
REMARK    1  A    between atoms: N_5  and  C_6 
REMARK    2  A    between atoms: C_6  and  C_7 
REMARK    3  A    between atoms: C_7  and  C_8 
REMARK    4  A    between atoms: C_13  and  N_14 
ROOT
HETATM    1  C   UNL     3     -41.866 -47.341  10.363  1.00  0.00     0.143 A 
HETATM    2  N   UNL     3     -42.000 -48.241   9.368  1.00  0.00    -0.280 N 
ATOM      3  HN  UNL     3     -41.404 -49.049   9.191  1.00  0.00     0.189 HD
HETATM    4  N   UNL     3     -43.057 -47.866   8.666  1.00  0.00    -0.263 N 
ATOM      5  HN  UNL     3     -43.442 -48.328   7.843  1.00  0.00     0.190 HD
HETATM    6  C   UNL     3     -43.521 -46.753   9.261  1.00  0.00     0.238 A 
HETATM    7  O   UNL     3     -42.800 -46.420  10.303  1.00  0.00    -0.264 OA
ENDROOT
BRANCH   1   8
HETATM    8  C   UNL     3     -40.787 -47.380  11.398  1.00  0.00     0.116 C 
BRANCH   8   9
HETATM    9  C   UNL     3     -39.975 -46.083  11.371  1.00  0.00     0.274 C 
BRANCH   9  10
HETATM   10  N   UNL     3     -39.754 -45.653   9.996  1.00  0.00     0.078 N 
HETATM   11  H   UNL     3     -38.794 -45.945   9.702  1.00  0.00     0.312 HD
HETATM   12  H   UNL     3     -39.800 -44.610   9.947  1.00  0.00     0.312 HD
ENDBRANCH   9  10
ENDBRANCH   8   9
ENDBRANCH   1   8
BRANCH   6  13
HETATM   13  N   UNL     3     -44.648 -46.030   8.816  1.00  0.00    -0.364 N 
HETATM   14  H   UNL     3     -44.595 -45.008   8.693  1.00  0.00     0.159 HD
HETATM   15  H   UNL     3     -45.530 -46.521   8.614  1.00  0.00     0.159 HD
ENDBRANCH   6  13
TORSDOF 4
ENDMDL
