MODEL 1
REMARK VINA RESULT:      -5.8      0.000      0.000
REMARK  6 active torsions:
REMARK  status: ('A' for Active; 'I' for Inactive)
REMARK    1  A    between atoms: C_2  and  C_5 
REMARK    2  A    between atoms: C_5  and  C_6 
REMARK    3  A    between atoms: C_6  and  N_9 
REMARK    4  A    between atoms: N_9  and  C_10 
REMARK    5  A    between atoms: C_10  and  C_11 
REMARK    6  A    between atoms: C_15  and  N_19 
ROOT
HETATM    1  C   UNL     1     -41.076 -52.916  12.840  1.00  0.00    -0.009 C 
HETATM    2  C   UNL     1     -41.370 -52.230  11.691  1.00  0.00     0.116 C 
HETATM    3  N   UNL     1     -40.840 -51.045  11.341  1.00  0.00    -0.201 N 
ATOM      4  HN  UNL     1     -41.179 -50.529  10.529  1.00  0.00     0.183 HD
HETATM    5  C   UNL     1     -39.854 -50.574  12.102  1.00  0.00     0.680 C 
HETATM    6  N   UNL     1     -39.287 -51.318  13.069  1.00  0.00    -0.201 N 
ATOM      7  HN  UNL     1     -38.418 -51.028  13.517  1.00  0.00     0.183 HD
HETATM    8  C   UNL     1     -39.909 -52.465  13.425  1.00  0.00     0.116 C 
ENDROOT
BRANCH   1   9
HETATM    9  C   UNL     1     -41.882 -54.046  13.412  1.00  0.00     0.156 C 
BRANCH   9  10
HETATM   10  N   UNL     1     -43.336 -54.068  13.195  1.00  0.00    -0.409 N 
HETATM   11  H   UNL     1     -43.620 -53.269  12.633  1.00  0.00     0.154 HD
BRANCH  10  12
HETATM   12  C   UNL     1     -44.343 -54.385  14.247  1.00  0.00     0.019 C 
HETATM   13  C   UNL     1     -43.514 -55.138  15.325  1.00  0.00     0.037 C 
HETATM   14  C   UNL     1     -45.375 -55.402  13.764  1.00  0.00     0.037 C 
BRANCH  12  15
HETATM   15  C   UNL     1     -45.027 -53.097  14.834  1.00  0.00     0.038 C 
BRANCH  15  16
HETATM   16  C   UNL     1     -45.563 -51.930  13.924  1.00  0.00    -0.049 C 
HETATM   17  C   UNL     1     -46.087 -52.430  12.572  1.00  0.00     0.014 C 
HETATM   18  C   UNL     1     -44.546 -50.789  13.694  1.00  0.00     0.014 C 
HETATM   19  C   UNL     1     -46.751 -51.262  14.662  1.00  0.00     0.014 C 
ENDBRANCH  15  16
ENDBRANCH  12  15
ENDBRANCH  10  12
ENDBRANCH   9  10
ENDBRANCH   1   9
BRANCH   5  20
HETATM   20  N   UNL     1     -39.479 -49.250  11.978  1.00  0.00    -0.214 N 
HETATM   21  C   UNL     1     -38.604 -48.674  13.010  1.00  0.00     0.167 C 
HETATM   22  C   UNL     1     -39.400 -47.932  14.094  1.00  0.00     0.188 C 
HETATM   23  O   UNL     1     -40.312 -46.982  13.511  1.00  0.00    -0.388 OA
HETATM   24  C   UNL     1     -41.241 -47.661  12.649  1.00  0.00     0.188 C 
HETATM   25  C   UNL     1     -40.521 -48.352  11.479  1.00  0.00     0.167 C 
ENDBRANCH   5  20
TORSDOF 6
ENDMDL
MODEL 2
REMARK VINA RESULT:      -5.8      1.501      1.662
REMARK  6 active torsions:
REMARK  status: ('A' for Active; 'I' for Inactive)
REMARK    1  A    between atoms: C_2  and  C_5 
REMARK    2  A    between atoms: C_5  and  C_6 
REMARK    3  A    between atoms: C_6  and  N_9 
REMARK    4  A    between atoms: N_9  and  C_10 
REMARK    5  A    between atoms: C_10  and  C_11 
REMARK    6  A    between atoms: C_15  and  N_19 
ROOT
HETATM    1  C   UNL     1     -41.666 -51.962  13.072  1.00  0.00    -0.009 C 
HETATM    2  C   UNL     1     -41.188 -51.915  11.789  1.00  0.00     0.116 C 
HETATM    3  N   UNL     1     -40.857 -50.792  11.128  1.00  0.00    -0.201 N 
ATOM      4  HN  UNL     1     -40.612 -50.809  10.138  1.00  0.00     0.183 HD
HETATM    5  C   UNL     1     -40.864 -49.656  11.823  1.00  0.00     0.680 C 
HETATM    6  N   UNL     1     -41.019 -49.643  13.160  1.00  0.00    -0.201 N 
ATOM      7  HN  UNL     1     -40.838 -48.799  13.704  1.00  0.00     0.183 HD
HETATM    8  C   UNL     1     -41.424 -50.787  13.756  1.00  0.00     0.116 C 
ENDROOT
BRANCH   1   9
HETATM    9  C   UNL     1     -42.350 -53.139  13.705  1.00  0.00     0.156 C 
BRANCH   9  10
HETATM   10  N   UNL     1     -43.812 -53.255  13.604  1.00  0.00    -0.409 N 
HETATM   11  H   UNL     1     -44.228 -52.340  13.445  1.00  0.00     0.154 HD
BRANCH  10  12
HETATM   12  C   UNL     1     -44.657 -54.095  14.499  1.00  0.00     0.019 C 
HETATM   13  C   UNL     1     -43.618 -54.854  15.370  1.00  0.00     0.037 C 
HETATM   14  C   UNL     1     -45.397 -55.188  13.729  1.00  0.00     0.037 C 
BRANCH  12  15
HETATM   15  C   UNL     1     -45.639 -53.238  15.378  1.00  0.00     0.038 C 
BRANCH  15  16
HETATM   16  C   UNL     1     -46.008 -51.747  15.033  1.00  0.00    -0.049 C 
HETATM   17  C   UNL     1     -46.501 -51.581  13.589  1.00  0.00     0.014 C 
HETATM   18  C   UNL     1     -44.875 -50.734  15.311  1.00  0.00     0.014 C 
HETATM   19  C   UNL     1     -47.166 -51.317  15.969  1.00  0.00     0.014 C 
ENDBRANCH  15  16
ENDBRANCH  12  15
ENDBRANCH  10  12
ENDBRANCH   9  10
ENDBRANCH   1   9
BRANCH   5  20
HETATM   20  N   UNL     1     -40.830 -48.452  11.147  1.00  0.00    -0.214 N 
HETATM   21  C   UNL     1     -40.223 -47.292  11.819  1.00  0.00     0.167 C 
HETATM   22  C   UNL     1     -41.272 -46.414  12.516  1.00  0.00     0.188 C 
HETATM   23  O   UNL     1     -42.342 -46.067  11.616  1.00  0.00    -0.388 OA
HETATM   24  C   UNL     1     -42.989 -47.261  11.143  1.00  0.00     0.188 C 
HETATM   25  C   UNL     1     -42.018 -48.151  10.349  1.00  0.00     0.167 C 
ENDBRANCH   5  20
TORSDOF 6
ENDMDL
MODEL 3
REMARK VINA RESULT:      -5.7      2.290      6.601
REMARK  6 active torsions:
REMARK  status: ('A' for Active; 'I' for Inactive)
REMARK    1  A    between atoms: C_2  and  C_5 
REMARK    2  A    between atoms: C_5  and  C_6 
REMARK    3  A    between atoms: C_6  and  N_9 
REMARK    4  A    between atoms: N_9  and  C_10 
REMARK    5  A    between atoms: C_10  and  C_11 
REMARK    6  A    between atoms: C_15  and  N_19 
ROOT
HETATM    1  C   UNL     1     -40.934 -52.731  13.184  1.00  0.00    -0.009 C 
HETATM    2  C   UNL     1     -41.479 -53.859  13.740  1.00  0.00     0.116 C 
HETATM    3  N   UNL     1     -42.753 -54.259  13.583  1.00  0.00    -0.201 N 
ATOM      4  HN  UNL     1     -43.132 -55.047  14.109  1.00  0.00     0.183 HD
HETATM    5  C   UNL     1     -43.498 -53.583  12.711  1.00  0.00     0.680 C 
HETATM    6  N   UNL     1     -42.966 -52.657  11.892  1.00  0.00    -0.201 N 
ATOM      7  HN  UNL     1     -43.497 -52.281  11.106  1.00  0.00     0.183 HD
HETATM    8  C   UNL     1     -41.705 -52.243  12.147  1.00  0.00     0.116 C 
ENDROOT
BRANCH   1   9
HETATM    9  C   UNL     1     -39.644 -52.088  13.604  1.00  0.00     0.156 C 
BRANCH   9  10
HETATM   10  N   UNL     1     -39.568 -50.622  13.679  1.00  0.00    -0.409 N 
HETATM   11  H   UNL     1     -40.497 -50.227  13.804  1.00  0.00     0.154 HD
BRANCH  10  12
HETATM   12  C   UNL     1     -38.725 -49.773  12.790  1.00  0.00     0.019 C 
HETATM   13  C   UNL     1     -37.562 -50.720  12.382  1.00  0.00     0.037 C 
HETATM   14  C   UNL     1     -38.053 -48.634  13.555  1.00  0.00     0.037 C 
BRANCH  12  15
HETATM   15  C   UNL     1     -39.513 -49.246  11.537  1.00  0.00     0.038 C 
BRANCH  15  16
HETATM   16  C   UNL     1     -40.584 -48.096  11.628  1.00  0.00    -0.049 C 
HETATM   17  C   UNL     1     -39.982 -46.708  11.371  1.00  0.00     0.014 C 
HETATM   18  C   UNL     1     -41.380 -48.076  12.952  1.00  0.00     0.014 C 
HETATM   19  C   UNL     1     -41.646 -48.350  10.528  1.00  0.00     0.014 C 
ENDBRANCH  15  16
ENDBRANCH  12  15
ENDBRANCH  10  12
ENDBRANCH   9  10
ENDBRANCH   1   9
BRANCH   5  20
HETATM   20  N   UNL     1     -44.869 -53.747  12.726  1.00  0.00    -0.214 N 
HETATM   21  C   UNL     1     -45.716 -52.555  12.558  1.00  0.00     0.167 C 
HETATM   22  C   UNL     1     -46.172 -51.978  13.906  1.00  0.00     0.188 C 
HETATM   23  O   UNL     1     -46.762 -52.996  14.737  1.00  0.00    -0.388 OA
HETATM   24  C   UNL     1     -45.804 -54.038  14.989  1.00  0.00     0.188 C 
HETATM   25  C   UNL     1     -45.369 -54.731  13.687  1.00  0.00     0.167 C 
ENDBRANCH   5  20
TORSDOF 6
ENDMDL
MODEL 4
REMARK VINA RESULT:      -5.6      3.811      5.080
REMARK  6 active torsions:
REMARK  status: ('A' for Active; 'I' for Inactive)
REMARK    1  A    between atoms: C_2  and  C_5 
REMARK    2  A    between atoms: C_5  and  C_6 
REMARK    3  A    between atoms: C_6  and  N_9 
REMARK    4  A    between atoms: N_9  and  C_10 
REMARK    5  A    between atoms: C_10  and  C_11 
REMARK    6  A    between atoms: C_15  and  N_19 
ROOT
HETATM    1  C   UNL     1     -42.522 -48.332  12.381  1.00  0.00    -0.009 C 
HETATM    2  C   UNL     1     -42.081 -48.763  11.157  1.00  0.00     0.116 C 
HETATM    3  N   UNL     1     -42.494 -48.280   9.972  1.00  0.00    -0.201 N 
ATOM      4  HN  UNL     1     -42.213 -48.714   9.093  1.00  0.00     0.183 HD
HETATM    5  C   UNL     1     -43.287 -47.210   9.997  1.00  0.00     0.680 C 
HETATM    6  N   UNL     1     -43.525 -46.530  11.134  1.00  0.00    -0.201 N 
ATOM      7  HN  UNL     1     -43.973 -45.614  11.116  1.00  0.00     0.183 HD
HETATM    8  C   UNL     1     -43.149 -47.104  12.299  1.00  0.00     0.116 C 
ENDROOT
BRANCH   1   9
HETATM    9  C   UNL     1     -42.341 -49.063  13.679  1.00  0.00     0.156 C 
BRANCH   9  10
HETATM   10  N   UNL     1     -42.078 -50.509  13.655  1.00  0.00    -0.409 N 
HETATM   11  H   UNL     1     -41.274 -50.711  13.065  1.00  0.00     0.154 HD
BRANCH  10  12
HETATM   12  C   UNL     1     -43.130 -51.557  13.529  1.00  0.00     0.019 C 
HETATM   13  C   UNL     1     -43.006 -52.356  14.856  1.00  0.00     0.037 C 
HETATM   14  C   UNL     1     -42.803 -52.567  12.430  1.00  0.00     0.037 C 
BRANCH  12  15
HETATM   15  C   UNL     1     -44.568 -50.948  13.349  1.00  0.00     0.038 C 
BRANCH  15  16
HETATM   16  C   UNL     1     -45.872 -51.830  13.357  1.00  0.00    -0.049 C 
HETATM   17  C   UNL     1     -45.569 -53.326  13.506  1.00  0.00     0.014 C 
HETATM   18  C   UNL     1     -46.793 -51.609  12.136  1.00  0.00     0.014 C 
HETATM   19  C   UNL     1     -46.723 -51.406  14.581  1.00  0.00     0.014 C 
ENDBRANCH  15  16
ENDBRANCH  12  15
ENDBRANCH  10  12
ENDBRANCH   9  10
ENDBRANCH   1   9
BRANCH   5  20
HETATM   20  N   UNL     1     -43.977 -46.855   8.854  1.00  0.00    -0.214 N 
HETATM   21  C   UNL     1     -45.072 -45.880   8.976  1.00  0.00     0.167 C 
HETATM   22  C   UNL     1     -46.440 -46.563   9.109  1.00  0.00     0.188 C 
HETATM   23  O   UNL     1     -46.642 -47.534   8.064  1.00  0.00    -0.388 OA
HETATM   24  C   UNL     1     -45.621 -48.544   8.131  1.00  0.00     0.188 C 
HETATM   25  C   UNL     1     -44.222 -47.946   7.910  1.00  0.00     0.167 C 
ENDBRANCH   5  20
TORSDOF 6
ENDMDL
MODEL 5
REMARK VINA RESULT:      -5.5      2.679      3.602
REMARK  6 active torsions:
REMARK  status: ('A' for Active; 'I' for Inactive)
REMARK    1  A    between atoms: C_2  and  C_5 
REMARK    2  A    between atoms: C_5  and  C_6 
REMARK    3  A    between atoms: C_6  and  N_9 
REMARK    4  A    between atoms: N_9  and  C_10 
REMARK    5  A    between atoms: C_10  and  C_11 
REMARK    6  A    between atoms: C_15  and  N_19 
ROOT
HETATM    1  C   UNL     1     -42.553 -49.044  12.110  1.00  0.00    -0.009 C 
HETATM    2  C   UNL     1     -43.471 -48.067  11.827  1.00  0.00     0.116 C 
HETATM    3  N   UNL     1     -43.194 -46.895  11.229  1.00  0.00    -0.201 N 
ATOM      4  HN  UNL     1     -43.898 -46.162  11.142  1.00  0.00     0.183 HD
HETATM    5  C   UNL     1     -41.960 -46.735  10.755  1.00  0.00     0.680 C 
HETATM    6  N   UNL     1     -41.079 -47.751  10.710  1.00  0.00    -0.201 N 
ATOM      7  HN  UNL     1     -40.211 -47.673  10.180  1.00  0.00     0.183 HD
HETATM    8  C   UNL     1     -41.385 -48.877  11.392  1.00  0.00     0.116 C 
ENDROOT
BRANCH   1   9
HETATM    9  C   UNL     1     -42.762 -50.189  13.059  1.00  0.00     0.156 C 
BRANCH   9  10
HETATM   10  N   UNL     1     -43.058 -51.522  12.515  1.00  0.00    -0.409 N 
HETATM   11  H   UNL     1     -43.592 -51.440  11.653  1.00  0.00     0.154 HD
BRANCH  10  12
HETATM   12  C   UNL     1     -43.504 -52.687  13.330  1.00  0.00     0.019 C 
HETATM   13  C   UNL     1     -42.172 -53.299  13.845  1.00  0.00     0.037 C 
HETATM   14  C   UNL     1     -44.132 -53.782  12.469  1.00  0.00     0.037 C 
BRANCH  12  15
HETATM   15  C   UNL     1     -44.447 -52.267  14.515  1.00  0.00     0.038 C 
BRANCH  15  16
HETATM   16  C   UNL     1     -46.012 -52.181  14.366  1.00  0.00    -0.049 C 
HETATM   17  C   UNL     1     -46.698 -53.540  14.564  1.00  0.00     0.014 C 
HETATM   18  C   UNL     1     -46.488 -51.551  13.039  1.00  0.00     0.014 C 
HETATM   19  C   UNL     1     -46.542 -51.231  15.471  1.00  0.00     0.014 C 
ENDBRANCH  15  16
ENDBRANCH  12  15
ENDBRANCH  10  12
ENDBRANCH   9  10
ENDBRANCH   1   9
BRANCH   5  20
HETATM   20  N   UNL     1     -41.531 -45.468  10.407  1.00  0.00    -0.214 N 
HETATM   21  C   UNL     1     -40.083 -45.213  10.354  1.00  0.00     0.167 C 
HETATM   22  C   UNL     1     -39.557 -44.599  11.660  1.00  0.00     0.188 C 
HETATM   23  O   UNL     1     -40.334 -43.449  12.045  1.00  0.00    -0.388 OA
HETATM   24  C   UNL     1     -41.707 -43.830  12.242  1.00  0.00     0.188 C 
HETATM   25  C   UNL     1     -42.333 -44.369  10.945  1.00  0.00     0.167 C 
ENDBRANCH   5  20
TORSDOF 6
ENDMDL
MODEL 6
REMARK VINA RESULT:      -5.4      2.483      7.084
REMARK  6 active torsions:
REMARK  status: ('A' for Active; 'I' for Inactive)
REMARK    1  A    between atoms: C_2  and  C_5 
REMARK    2  A    between atoms: C_5  and  C_6 
REMARK    3  A    between atoms: C_6  and  N_9 
REMARK    4  A    between atoms: N_9  and  C_10 
REMARK    5  A    between atoms: C_10  and  C_11 
REMARK    6  A    between atoms: C_15  and  N_19 
ROOT
HETATM    1  C   UNL     1     -41.014 -52.866  13.184  1.00  0.00    -0.009 C 
HETATM    2  C   UNL     1     -41.553 -53.994  13.744  1.00  0.00     0.116 C 
HETATM    3  N   UNL     1     -42.834 -54.382  13.620  1.00  0.00    -0.201 N 
ATOM      4  HN  UNL     1     -43.205 -55.172  14.149  1.00  0.00     0.183 HD
HETATM    5  C   UNL     1     -43.597 -53.691  12.776  1.00  0.00     0.680 C 
HETATM    6  N   UNL     1     -43.081 -52.762  11.951  1.00  0.00    -0.201 N 
ATOM      7  HN  UNL     1     -43.631 -52.374  11.184  1.00  0.00     0.183 HD
HETATM    8  C   UNL     1     -41.810 -52.362  12.174  1.00  0.00     0.116 C 
ENDROOT
BRANCH   1   9
HETATM    9  C   UNL     1     -39.707 -52.238  13.573  1.00  0.00     0.156 C 
BRANCH   9  10
HETATM   10  N   UNL     1     -39.611 -50.773  13.643  1.00  0.00    -0.409 N 
HETATM   11  H   UNL     1     -40.540 -50.358  13.622  1.00  0.00     0.154 HD
BRANCH  10  12
HETATM   12  C   UNL     1     -38.625 -49.953  12.883  1.00  0.00     0.019 C 
HETATM   13  C   UNL     1     -39.441 -49.450  11.659  1.00  0.00     0.037 C 
HETATM   14  C   UNL     1     -37.508 -50.808  12.286  1.00  0.00     0.037 C 
BRANCH  12  15
HETATM   15  C   UNL     1     -38.054 -48.760  13.732  1.00  0.00     0.038 C 
BRANCH  15  16
HETATM   16  C   UNL     1     -37.597 -48.924  15.229  1.00  0.00    -0.049 C 
HETATM   17  C   UNL     1     -36.516 -47.911  15.629  1.00  0.00     0.014 C 
HETATM   18  C   UNL     1     -37.130 -50.350  15.596  1.00  0.00     0.014 C 
HETATM   19  C   UNL     1     -38.830 -48.663  16.132  1.00  0.00     0.014 C 
ENDBRANCH  15  16
ENDBRANCH  12  15
ENDBRANCH  10  12
ENDBRANCH   9  10
ENDBRANCH   1   9
BRANCH   5  20
HETATM   20  N   UNL     1     -44.969 -53.844  12.828  1.00  0.00    -0.214 N 
HETATM   21  C   UNL     1     -45.812 -52.668  12.562  1.00  0.00     0.167 C 
HETATM   22  C   UNL     1     -46.243 -51.962  13.856  1.00  0.00     0.188 C 
HETATM   23  O   UNL     1     -46.824 -52.892  14.789  1.00  0.00    -0.388 OA
HETATM   24  C   UNL     1     -45.868 -53.912  15.124  1.00  0.00     0.188 C 
HETATM   25  C   UNL     1     -45.458 -54.728  13.887  1.00  0.00     0.167 C 
ENDBRANCH   5  20
TORSDOF 6
ENDMDL
MODEL 7
REMARK VINA RESULT:      -5.4      2.453      3.396
REMARK  6 active torsions:
REMARK  status: ('A' for Active; 'I' for Inactive)
REMARK    1  A    between atoms: C_2  and  C_5 
REMARK    2  A    between atoms: C_5  and  C_6 
REMARK    3  A    between atoms: C_6  and  N_9 
REMARK    4  A    between atoms: N_9  and  C_10 
REMARK    5  A    between atoms: C_10  and  C_11 
REMARK    6  A    between atoms: C_15  and  N_19 
ROOT
HETATM    1  C   UNL     1     -41.613 -50.439  13.626  1.00  0.00    -0.009 C 
HETATM    2  C   UNL     1     -41.894 -50.458  12.286  1.00  0.00     0.116 C 
HETATM    3  N   UNL     1     -42.347 -49.409  11.576  1.00  0.00    -0.201 N 
ATOM      4  HN  UNL     1     -42.643 -49.511  10.605  1.00  0.00     0.183 HD
HETATM    5  C   UNL     1     -42.391 -48.232  12.197  1.00  0.00     0.680 C 
HETATM    6  N   UNL     1     -41.847 -48.050  13.414  1.00  0.00    -0.201 N 
ATOM      7  HN  UNL     1     -41.717 -47.115  13.800  1.00  0.00     0.183 HD
HETATM    8  C   UNL     1     -41.478 -49.151  14.107  1.00  0.00     0.116 C 
ENDROOT
BRANCH   1   9
HETATM    9  C   UNL     1     -41.436 -51.649  14.497  1.00  0.00     0.156 C 
BRANCH   9  10
HETATM   10  N   UNL     1     -42.593 -52.519  14.754  1.00  0.00    -0.409 N 
HETATM   11  H   UNL     1     -42.624 -52.783  15.736  1.00  0.00     0.154 HD
BRANCH  10  12
HETATM   12  C   UNL     1     -43.022 -53.639  13.870  1.00  0.00     0.019 C 
HETATM   13  C   UNL     1     -43.408 -54.763  14.872  1.00  0.00     0.037 C 
HETATM   14  C   UNL     1     -41.855 -54.214  13.067  1.00  0.00     0.037 C 
BRANCH  12  15
HETATM   15  C   UNL     1     -44.228 -53.246  12.942  1.00  0.00     0.038 C 
BRANCH  15  16
HETATM   16  C   UNL     1     -45.513 -52.514  13.482  1.00  0.00    -0.049 C 
HETATM   17  C   UNL     1     -45.189 -51.168  14.143  1.00  0.00     0.014 C 
HETATM   18  C   UNL     1     -46.371 -53.368  14.441  1.00  0.00     0.014 C 
HETATM   19  C   UNL     1     -46.436 -52.224  12.271  1.00  0.00     0.014 C 
ENDBRANCH  15  16
ENDBRANCH  12  15
ENDBRANCH  10  12
ENDBRANCH   9  10
ENDBRANCH   1   9
BRANCH   5  20
HETATM   20  N   UNL     1     -43.114 -47.198  11.633  1.00  0.00    -0.214 N 
HETATM   21  C   UNL     1     -43.911 -47.482  10.429  1.00  0.00     0.167 C 
HETATM   22  C   UNL     1     -43.156 -47.125   9.140  1.00  0.00     0.188 C 
HETATM   23  O   UNL     1     -42.643 -45.780   9.192  1.00  0.00    -0.388 OA
HETATM   24  C   UNL     1     -41.739 -45.644  10.301  1.00  0.00     0.188 C 
HETATM   25  C   UNL     1     -42.449 -45.895  11.642  1.00  0.00     0.167 C 
ENDBRANCH   5  20
TORSDOF 6
ENDMDL
MODEL 8
REMARK VINA RESULT:      -5.4      1.700      2.536
REMARK  6 active torsions:
REMARK  status: ('A' for Active; 'I' for Inactive)
REMARK    1  A    between atoms: C_2  and  C_5 
REMARK    2  A    between atoms: C_5  and  C_6 
REMARK    3  A    between atoms: C_6  and  N_9 
REMARK    4  A    between atoms: N_9  and  C_10 
REMARK    5  A    between atoms: C_10  and  C_11 
REMARK    6  A    between atoms: C_15  and  N_19 
ROOT
HETATM    1  C   UNL     1     -42.556 -52.238  12.865  1.00  0.00    -0.009 C 
HETATM    2  C   UNL     1     -42.824 -50.967  12.431  1.00  0.00     0.116 C 
HETATM    3  N   UNL     1     -41.917 -50.116  11.920  1.00  0.00    -0.201 N 
ATOM      4  HN  UNL     1     -42.153 -49.145  11.716  1.00  0.00     0.183 HD
HETATM    5  C   UNL     1     -40.697 -50.598  11.691  1.00  0.00     0.680 C 
HETATM    6  N   UNL     1     -40.421 -51.911  11.795  1.00  0.00    -0.201 N 
ATOM      7  HN  UNL     1     -39.546 -52.296  11.441  1.00  0.00     0.183 HD
HETATM    8  C   UNL     1     -41.347 -52.701  12.385  1.00  0.00     0.116 C 
ENDROOT
BRANCH   1   9
HETATM    9  C   UNL     1     -43.453 -53.071  13.734  1.00  0.00     0.156 C 
BRANCH   9  10
HETATM   10  N   UNL     1     -44.545 -52.416  14.468  1.00  0.00    -0.409 N 
HETATM   11  H   UNL     1     -44.400 -52.508  15.471  1.00  0.00     0.154 HD
BRANCH  10  12
HETATM   12  C   UNL     1     -45.988 -52.522  14.109  1.00  0.00     0.019 C 
HETATM   13  C   UNL     1     -46.311 -54.023  14.351  1.00  0.00     0.037 C 
HETATM   14  C   UNL     1     -46.224 -52.305  12.616  1.00  0.00     0.037 C 
BRANCH  12  15
HETATM   15  C   UNL     1     -46.896 -51.583  14.983  1.00  0.00     0.038 C 
BRANCH  15  16
HETATM   16  C   UNL     1     -46.699 -51.415  16.536  1.00  0.00    -0.049 C 
HETATM   17  C   UNL     1     -45.634 -50.367  16.884  1.00  0.00     0.014 C 
HETATM   18  C   UNL     1     -46.391 -52.733  17.281  1.00  0.00     0.014 C 
HETATM   19  C   UNL     1     -48.043 -50.924  17.133  1.00  0.00     0.014 C 
ENDBRANCH  15  16
ENDBRANCH  12  15
ENDBRANCH  10  12
ENDBRANCH   9  10
ENDBRANCH   1   9
BRANCH   5  20
HETATM   20  N   UNL     1     -39.657 -49.719  11.457  1.00  0.00    -0.214 N 
HETATM   21  C   UNL     1     -38.286 -50.169  11.742  1.00  0.00     0.167 C 
HETATM   22  C   UNL     1     -37.813 -49.731  13.135  1.00  0.00     0.188 C 
HETATM   23  O   UNL     1     -38.012 -48.318  13.333  1.00  0.00    -0.388 OA
HETATM   24  C   UNL     1     -39.408 -47.998  13.205  1.00  0.00     0.188 C 
HETATM   25  C   UNL     1     -39.934 -48.323  11.797  1.00  0.00     0.167 C 
ENDBRANCH   5  20
TORSDOF 6
ENDMDL
MODEL 9
REMARK VINA RESULT:      -5.3      2.761      6.860
REMARK  6 active torsions:
REMARK  status: ('A' for Active; 'I' for Inactive)
REMARK    1  A    between atoms: C_2  and  C_5 
REMARK    2  A    between atoms: C_5  and  C_6 
REMARK    3  A    between atoms: C_6  and  N_9 
REMARK    4  A    between atoms: N_9  and  C_10 
REMARK    5  A    between atoms: C_10  and  C_11 
REMARK    6  A    between atoms: C_15  and  N_19 
ROOT
HETATM    1  C   UNL     1     -41.626 -50.876  12.068  1.00  0.00    -0.009 C 
HETATM    2  C   UNL     1     -42.735 -50.412  12.724  1.00  0.00     0.116 C 
HETATM    3  N   UNL     1     -43.842 -51.133  12.977  1.00  0.00    -0.201 N 
ATOM      4  HN  UNL     1     -44.679 -50.703  13.372  1.00  0.00     0.183 HD
HETATM    5  C   UNL     1     -43.796 -52.432  12.691  1.00  0.00     0.680 C 
HETATM    6  N   UNL     1     -42.651 -53.040  12.332  1.00  0.00    -0.201 N 
ATOM      7  HN  UNL     1     -42.582 -54.058  12.297  1.00  0.00     0.183 HD
HETATM    8  C   UNL     1     -41.595 -52.256  12.020  1.00  0.00     0.116 C 
ENDROOT
BRANCH   1   9
HETATM    9  C   UNL     1     -40.539 -50.022  11.482  1.00  0.00     0.156 C 
BRANCH   9  10
HETATM   10  N   UNL     1     -39.619 -49.316  12.386  1.00  0.00    -0.409 N 
HETATM   11  H   UNL     1     -39.630 -48.318  12.190  1.00  0.00     0.154 HD
BRANCH  10  12
HETATM   12  C   UNL     1     -38.252 -49.792  12.742  1.00  0.00     0.019 C 
HETATM   13  C   UNL     1     -37.660 -48.609  13.558  1.00  0.00     0.037 C 
HETATM   14  C   UNL     1     -37.351 -49.913  11.514  1.00  0.00     0.037 C 
BRANCH  12  15
HETATM   15  C   UNL     1     -38.277 -51.122  13.579  1.00  0.00     0.038 C 
BRANCH  15  16
HETATM   16  C   UNL     1     -38.739 -51.172  15.083  1.00  0.00    -0.049 C 
HETATM   17  C   UNL     1     -40.016 -50.359  15.333  1.00  0.00     0.014 C 
HETATM   18  C   UNL     1     -37.650 -50.749  16.094  1.00  0.00     0.014 C 
HETATM   19  C   UNL     1     -39.055 -52.649  15.432  1.00  0.00     0.014 C 
ENDBRANCH  15  16
ENDBRANCH  12  15
ENDBRANCH  10  12
ENDBRANCH   9  10
ENDBRANCH   1   9
BRANCH   5  20
HETATM   20  N   UNL     1     -44.974 -53.154  12.644  1.00  0.00    -0.214 N 
HETATM   21  C   UNL     1     -46.240 -52.436  12.857  1.00  0.00     0.167 C 
HETATM   22  C   UNL     1     -46.713 -52.520  14.316  1.00  0.00     0.188 C 
HETATM   23  O   UNL     1     -46.735 -53.884  14.779  1.00  0.00    -0.388 OA
HETATM   24  C   UNL     1     -45.416 -54.450  14.695  1.00  0.00     0.188 C 
HETATM   25  C   UNL     1     -44.910 -54.488  13.243  1.00  0.00     0.167 C 
ENDBRANCH   5  20
TORSDOF 6
ENDMDL
