MODEL 1
REMARK VINA RESULT:      -6.6      0.000      0.000
REMARK  4 active torsions:
REMARK  status: ('A' for Active; 'I' for Inactive)
REMARK    1  A    between atoms: N_1  and  C_8 
REMARK    2  A    between atoms: N_2  and  C_7 
REMARK    3  A    between atoms: C_8  and  C_9 
REMARK       I    between atoms: C_9  and  N_11 
REMARK    4  A    between atoms: N_11  and  C_15 
ROOT
HETATM    1  N   UNL     1     -40.044 -50.880  12.084  1.00  0.00    -0.255 N 
HETATM    2  N   UNL     1     -39.739 -48.560  12.401  1.00  0.00    -0.279 N 
HETATM    3  C   UNL     1     -40.372 -49.586  11.699  1.00  0.00     0.334 C 
HETATM    4  C   UNL     1     -39.000 -51.199  12.942  1.00  0.00     0.292 C 
HETATM    5  C   UNL     1     -38.262 -50.044  13.496  1.00  0.00     0.200 C 
HETATM    6  C   UNL     1     -38.682 -48.805  13.253  1.00  0.00     0.146 C 
HETATM    7  O   UNL     1     -41.193 -49.365  10.809  1.00  0.00    -0.246 OA
HETATM    8  O   UNL     1     -38.707 -52.345  13.263  1.00  0.00    -0.264 OA
HETATM    9  F   UNL     1     -37.231 -50.304  14.320  1.00  0.00    -0.199 F 
ENDROOT
BRANCH   1  10
HETATM   10  C   UNL     1     -41.002 -51.935  11.783  1.00  0.00     0.240 C 
BRANCH  10  11
HETATM   11  C   UNL     1     -42.151 -52.204  12.754  1.00  0.00     0.240 C 
HETATM   12  N   UNL     1     -43.241 -51.360  12.655  1.00  0.00    -0.326 N 
HETATM   13  H   UNL     1     -43.221 -50.665  11.917  1.00  0.00     0.169 HD
HETATM   14  O   UNL     1     -41.975 -53.030  13.649  1.00  0.00    -0.271 OA
BRANCH  12  15
HETATM   15  C   UNL     1     -44.355 -51.312  13.533  1.00  0.00     0.035 A 
HETATM   16  C   UNL     1     -44.283 -50.908  14.872  1.00  0.00     0.047 A 
HETATM   17  C   UNL     1     -45.438 -50.846  15.660  1.00  0.00     0.008 A 
HETATM   18  I   UNL     1     -45.313 -50.184  17.630  1.00  0.00    -0.045 I 
HETATM   19  C   UNL     1     -46.675 -51.208  15.134  1.00  0.00     0.018 A 
HETATM   20  C   UNL     1     -46.755 -51.631  13.809  1.00  0.00     0.003 A 
HETATM   21  C   UNL     1     -45.605 -51.677  13.014  1.00  0.00     0.029 A 
ENDBRANCH  12  15
ENDBRANCH  10  11
ENDBRANCH   1  10
BRANCH   2  22
HETATM   22  C   UNL     1     -40.289 -47.221  12.215  1.00  0.00     0.232 C 
HETATM   23  O   UNL     1     -39.819 -46.588  11.013  1.00  0.00    -0.366 OA
HETATM   24  C   UNL     1     -39.876 -45.164  11.223  1.00  0.00     0.170 C 
HETATM   25  C   UNL     1     -40.177 -44.922  12.689  1.00  0.00     0.031 C 
HETATM   26  C   UNL     1     -39.881 -46.256  13.322  1.00  0.00     0.056 C 
ENDBRANCH   2  22
TORSDOF 4
ENDMDL
MODEL 2
REMARK VINA RESULT:      -6.4      2.683      3.540
REMARK  4 active torsions:
REMARK  status: ('A' for Active; 'I' for Inactive)
REMARK    1  A    between atoms: N_1  and  C_8 
REMARK    2  A    between atoms: N_2  and  C_7 
REMARK    3  A    between atoms: C_8  and  C_9 
REMARK       I    between atoms: C_9  and  N_11 
REMARK    4  A    between atoms: N_11  and  C_15 
ROOT
HETATM    1  N   UNL     1     -39.456 -48.828  12.459  1.00  0.00    -0.255 N 
HETATM    2  N   UNL     1     -41.024 -47.595  11.196  1.00  0.00    -0.279 N 
HETATM    3  C   UNL     1     -40.328 -48.791  11.379  1.00  0.00     0.334 C 
HETATM    4  C   UNL     1     -39.088 -47.716  13.205  1.00  0.00     0.292 C 
HETATM    5  C   UNL     1     -39.741 -46.449  12.816  1.00  0.00     0.200 C 
HETATM    6  C   UNL     1     -40.696 -46.448  11.888  1.00  0.00     0.146 C 
HETATM    7  O   UNL     1     -40.493 -49.766  10.647  1.00  0.00    -0.246 OA
HETATM    8  O   UNL     1     -38.303 -47.756  14.147  1.00  0.00    -0.264 OA
HETATM    9  F   UNL     1     -39.403 -45.341  13.500  1.00  0.00    -0.199 F 
ENDROOT
BRANCH   1  10
HETATM   10  C   UNL     1     -39.114 -50.135  13.003  1.00  0.00     0.240 C 
BRANCH  10  11
HETATM   11  C   UNL     1     -40.164 -50.919  13.790  1.00  0.00     0.240 C 
HETATM   12  N   UNL     1     -40.961 -51.776  13.054  1.00  0.00    -0.326 N 
HETATM   13  H   UNL     1     -40.755 -51.861  12.065  1.00  0.00     0.169 HD
HETATM   14  O   UNL     1     -40.341 -50.627  14.972  1.00  0.00    -0.271 OA
BRANCH  12  15
HETATM   15  C   UNL     1     -42.091 -52.492  13.525  1.00  0.00     0.035 A 
HETATM   16  C   UNL     1     -43.386 -51.963  13.589  1.00  0.00     0.047 A 
HETATM   17  C   UNL     1     -44.456 -52.751  14.026  1.00  0.00     0.008 A 
HETATM   18  I   UNL     1     -46.383 -51.958  14.052  1.00  0.00    -0.045 I 
HETATM   19  C   UNL     1     -44.251 -54.068  14.428  1.00  0.00     0.018 A 
HETATM   20  C   UNL     1     -42.963 -54.598  14.388  1.00  0.00     0.003 A 
HETATM   21  C   UNL     1     -41.894 -53.818  13.936  1.00  0.00     0.029 A 
ENDBRANCH  12  15
ENDBRANCH  10  11
ENDBRANCH   1  10
BRANCH   2  22
HETATM   22  C   UNL     1     -42.145 -47.641  10.263  1.00  0.00     0.232 C 
HETATM   23  O   UNL     1     -42.309 -46.418   9.528  1.00  0.00    -0.366 OA
HETATM   24  C   UNL     1     -43.698 -46.319   9.155  1.00  0.00     0.170 C 
HETATM   25  C   UNL     1     -44.454 -47.411   9.887  1.00  0.00     0.031 C 
HETATM   26  C   UNL     1     -43.487 -47.833  10.961  1.00  0.00     0.056 C 
ENDBRANCH   2  22
TORSDOF 4
ENDMDL
MODEL 3
REMARK VINA RESULT:      -6.3      6.394      8.806
REMARK  4 active torsions:
REMARK  status: ('A' for Active; 'I' for Inactive)
REMARK    1  A    between atoms: N_1  and  C_8 
REMARK    2  A    between atoms: N_2  and  C_7 
REMARK    3  A    between atoms: C_8  and  C_9 
REMARK       I    between atoms: C_9  and  N_11 
REMARK    4  A    between atoms: N_11  and  C_15 
ROOT
HETATM    1  N   UNL     1     -40.497 -54.439  15.049  1.00  0.00    -0.255 N 
HETATM    2  N   UNL     1     -42.780 -54.227  14.486  1.00  0.00    -0.279 N 
HETATM    3  C   UNL     1     -41.819 -54.721  15.368  1.00  0.00     0.334 C 
HETATM    4  C   UNL     1     -40.083 -53.905  13.836  1.00  0.00     0.292 C 
HETATM    5  C   UNL     1     -41.167 -53.583  12.884  1.00  0.00     0.200 C 
HETATM    6  C   UNL     1     -42.439 -53.704  13.256  1.00  0.00     0.146 C 
HETATM    7  O   UNL     1     -42.119 -55.347  16.384  1.00  0.00    -0.246 OA
HETATM    8  O   UNL     1     -38.911 -53.675  13.557  1.00  0.00    -0.264 OA
HETATM    9  F   UNL     1     -40.813 -53.079  11.688  1.00  0.00    -0.199 F 
ENDROOT
BRANCH   1  10
HETATM   10  C   UNL     1     -39.524 -54.456  16.133  1.00  0.00     0.240 C 
BRANCH  10  11
HETATM   11  C   UNL     1     -38.791 -55.756  16.463  1.00  0.00     0.240 C 
HETATM   12  N   UNL     1     -39.223 -56.430  17.589  1.00  0.00    -0.326 N 
HETATM   13  H   UNL     1     -40.022 -56.044  18.079  1.00  0.00     0.169 HD
HETATM   14  O   UNL     1     -37.781 -56.034  15.816  1.00  0.00    -0.271 OA
BRANCH  12  15
HETATM   15  C   UNL     1     -38.613 -57.566  18.180  1.00  0.00     0.035 A 
HETATM   16  C   UNL     1     -37.424 -57.525  18.919  1.00  0.00     0.047 A 
HETATM   17  C   UNL     1     -36.910 -58.685  19.507  1.00  0.00     0.008 A 
HETATM   18  I   UNL     1     -35.173 -58.584  20.653  1.00  0.00    -0.045 I 
HETATM   19  C   UNL     1     -37.558 -59.907  19.350  1.00  0.00     0.018 A 
HETATM   20  C   UNL     1     -38.730 -59.964  18.600  1.00  0.00     0.003 A 
HETATM   21  C   UNL     1     -39.256 -58.803  18.024  1.00  0.00     0.029 A 
ENDBRANCH  12  15
ENDBRANCH  10  11
ENDBRANCH   1  10
BRANCH   2  22
HETATM   22  C   UNL     1     -44.161 -54.258  14.958  1.00  0.00     0.232 C 
HETATM   23  O   UNL     1     -44.934 -55.306  14.351  1.00  0.00    -0.366 OA
HETATM   24  C   UNL     1     -46.314 -54.891  14.367  1.00  0.00     0.170 C 
HETATM   25  C   UNL     1     -46.356 -53.436  14.793  1.00  0.00     0.031 C 
HETATM   26  C   UNL     1     -44.930 -52.988  14.614  1.00  0.00     0.056 C 
ENDBRANCH   2  22
TORSDOF 4
ENDMDL
MODEL 4
REMARK VINA RESULT:      -6.2      3.869      6.718
REMARK  4 active torsions:
REMARK  status: ('A' for Active; 'I' for Inactive)
REMARK    1  A    between atoms: N_1  and  C_8 
REMARK    2  A    between atoms: N_2  and  C_7 
REMARK    3  A    between atoms: C_8  and  C_9 
REMARK       I    between atoms: C_9  and  N_11 
REMARK    4  A    between atoms: N_11  and  C_15 
ROOT
HETATM    1  N   UNL     1     -41.513 -53.570  12.896  1.00  0.00    -0.255 N 
HETATM    2  N   UNL     1     -40.809 -54.508  14.946  1.00  0.00    -0.279 N 
HETATM    3  C   UNL     1     -40.458 -53.980  13.702  1.00  0.00     0.334 C 
HETATM    4  C   UNL     1     -42.848 -53.848  13.155  1.00  0.00     0.292 C 
HETATM    5  C   UNL     1     -43.109 -54.580  14.412  1.00  0.00     0.200 C 
HETATM    6  C   UNL     1     -42.113 -54.828  15.259  1.00  0.00     0.146 C 
HETATM    7  O   UNL     1     -39.287 -53.857  13.347  1.00  0.00    -0.246 OA
HETATM    8  O   UNL     1     -43.771 -53.497  12.428  1.00  0.00    -0.264 OA
HETATM    9  F   UNL     1     -44.388 -54.887  14.698  1.00  0.00    -0.199 F 
ENDROOT
BRANCH   1  10
HETATM   10  C   UNL     1     -41.228 -52.576  11.870  1.00  0.00     0.240 C 
BRANCH  10  11
HETATM   11  C   UNL     1     -41.169 -51.098  12.253  1.00  0.00     0.240 C 
HETATM   12  N   UNL     1     -42.233 -50.319  11.839  1.00  0.00    -0.326 N 
HETATM   13  H   UNL     1     -42.993 -50.793  11.363  1.00  0.00     0.169 HD
HETATM   14  O   UNL     1     -40.129 -50.668  12.752  1.00  0.00    -0.271 OA
BRANCH  12  15
HETATM   15  C   UNL     1     -42.338 -48.908  11.940  1.00  0.00     0.035 A 
HETATM   16  C   UNL     1     -42.692 -48.229  13.113  1.00  0.00     0.047 A 
HETATM   17  C   UNL     1     -42.730 -46.831  13.141  1.00  0.00     0.008 A 
HETATM   18  I   UNL     1     -43.199 -45.843  14.915  1.00  0.00    -0.045 I 
HETATM   19  C   UNL     1     -42.441 -46.089  11.999  1.00  0.00     0.018 A 
HETATM   20  C   UNL     1     -42.107 -46.756  10.822  1.00  0.00     0.003 A 
HETATM   21  C   UNL     1     -42.052 -48.153  10.795  1.00  0.00     0.029 A 
ENDBRANCH  12  15
ENDBRANCH  10  11
ENDBRANCH   1  10
BRANCH   2  22
HETATM   22  C   UNL     1     -39.721 -54.662  15.907  1.00  0.00     0.232 C 
HETATM   23  O   UNL     1     -38.989 -55.885  15.728  1.00  0.00    -0.366 OA
HETATM   24  C   UNL     1     -38.419 -56.239  17.003  1.00  0.00     0.170 C 
HETATM   25  C   UNL     1     -39.016 -55.318  18.050  1.00  0.00     0.031 C 
HETATM   26  C   UNL     1     -40.213 -54.735  17.348  1.00  0.00     0.056 C 
ENDBRANCH   2  22
TORSDOF 4
ENDMDL
MODEL 5
REMARK VINA RESULT:      -6.2      4.756      7.749
REMARK  4 active torsions:
REMARK  status: ('A' for Active; 'I' for Inactive)
REMARK    1  A    between atoms: N_1  and  C_8 
REMARK    2  A    between atoms: N_2  and  C_7 
REMARK    3  A    between atoms: C_8  and  C_9 
REMARK       I    between atoms: C_9  and  N_11 
REMARK    4  A    between atoms: N_11  and  C_15 
ROOT
HETATM    1  N   UNL     1     -45.335 -53.864  14.403  1.00  0.00    -0.255 N 
HETATM    2  N   UNL     1     -46.521 -52.308  15.725  1.00  0.00    -0.279 N 
HETATM    3  C   UNL     1     -45.881 -53.545  15.639  1.00  0.00     0.334 C 
HETATM    4  C   UNL     1     -45.571 -53.149  13.236  1.00  0.00     0.292 C 
HETATM    5  C   UNL     1     -46.419 -51.949  13.392  1.00  0.00     0.200 C 
HETATM    6  C   UNL     1     -46.805 -51.557  14.603  1.00  0.00     0.146 C 
HETATM    7  O   UNL     1     -45.780 -54.301  16.605  1.00  0.00    -0.246 OA
HETATM    8  O   UNL     1     -45.098 -53.449  12.145  1.00  0.00    -0.264 OA
HETATM    9  F   UNL     1     -46.689 -51.232  12.285  1.00  0.00    -0.199 F 
ENDROOT
BRANCH   1  10
HETATM   10  C   UNL     1     -44.253 -54.839  14.377  1.00  0.00     0.240 C 
BRANCH  10  11
HETATM   11  C   UNL     1     -42.866 -54.434  14.874  1.00  0.00     0.240 C 
HETATM   12  N   UNL     1     -42.454 -53.154  14.554  1.00  0.00    -0.326 N 
HETATM   13  H   UNL     1     -43.119 -52.566  14.064  1.00  0.00     0.169 HD
HETATM   14  O   UNL     1     -42.152 -55.303  15.376  1.00  0.00    -0.271 OA
BRANCH  12  15
HETATM   15  C   UNL     1     -41.166 -52.602  14.770  1.00  0.00     0.035 A 
HETATM   16  C   UNL     1     -40.390 -52.003  13.770  1.00  0.00     0.047 A 
HETATM   17  C   UNL     1     -39.145 -51.442  14.074  1.00  0.00     0.008 A 
HETATM   18  I   UNL     1     -38.038 -50.503  12.580  1.00  0.00    -0.045 I 
HETATM   19  C   UNL     1     -38.644 -51.489  15.372  1.00  0.00     0.018 A 
HETATM   20  C   UNL     1     -39.399 -52.100  16.371  1.00  0.00     0.003 A 
HETATM   21  C   UNL     1     -40.651 -52.647  16.073  1.00  0.00     0.029 A 
ENDBRANCH  12  15
ENDBRANCH  10  11
ENDBRANCH   1  10
BRANCH   2  22
HETATM   22  C   UNL     1     -46.831 -51.838  17.071  1.00  0.00     0.232 C 
HETATM   23  O   UNL     1     -48.226 -51.543  17.250  1.00  0.00    -0.366 OA
HETATM   24  C   UNL     1     -48.329 -50.552  18.291  1.00  0.00     0.170 C 
HETATM   25  C   UNL     1     -46.930 -50.056  18.601  1.00  0.00     0.031 C 
HETATM   26  C   UNL     1     -46.132 -50.528  17.414  1.00  0.00     0.056 C 
ENDBRANCH   2  22
TORSDOF 4
ENDMDL
MODEL 6
REMARK VINA RESULT:      -6.1      3.192      4.585
REMARK  4 active torsions:
REMARK  status: ('A' for Active; 'I' for Inactive)
REMARK    1  A    between atoms: N_1  and  C_8 
REMARK    2  A    between atoms: N_2  and  C_7 
REMARK    3  A    between atoms: C_8  and  C_9 
REMARK       I    between atoms: C_9  and  N_11 
REMARK    4  A    between atoms: N_11  and  C_15 
ROOT
HETATM    1  N   UNL     1     -41.514 -47.081  11.441  1.00  0.00    -0.255 N 
HETATM    2  N   UNL     1     -41.769 -44.768  11.842  1.00  0.00    -0.279 N 
HETATM    3  C   UNL     1     -41.307 -46.005  12.294  1.00  0.00     0.334 C 
HETATM    4  C   UNL     1     -42.317 -47.038  10.309  1.00  0.00     0.292 C 
HETATM    5  C   UNL     1     -42.918 -45.722  10.011  1.00  0.00     0.200 C 
HETATM    6  C   UNL     1     -42.588 -44.657  10.738  1.00  0.00     0.146 C 
HETATM    7  O   UNL     1     -40.727 -46.136  13.372  1.00  0.00    -0.246 OA
HETATM    8  O   UNL     1     -42.507 -47.999   9.571  1.00  0.00    -0.264 OA
HETATM    9  F   UNL     1     -43.718 -45.635   8.932  1.00  0.00    -0.199 F 
ENDROOT
BRANCH   1  10
HETATM   10  C   UNL     1     -40.639 -48.236  11.592  1.00  0.00     0.240 C 
BRANCH  10  11
HETATM   11  C   UNL     1     -41.105 -49.426  12.432  1.00  0.00     0.240 C 
HETATM   12  N   UNL     1     -42.165 -50.152  11.923  1.00  0.00    -0.326 N 
HETATM   13  H   UNL     1     -42.517 -49.877  11.013  1.00  0.00     0.169 HD
HETATM   14  O   UNL     1     -40.627 -49.564  13.558  1.00  0.00    -0.271 OA
BRANCH  12  15
HETATM   15  C   UNL     1     -42.866 -51.196  12.579  1.00  0.00     0.035 A 
HETATM   16  C   UNL     1     -44.034 -51.007  13.330  1.00  0.00     0.047 A 
HETATM   17  C   UNL     1     -44.691 -52.097  13.911  1.00  0.00     0.008 A 
HETATM   18  I   UNL     1     -46.459 -51.796  14.970  1.00  0.00    -0.045 I 
HETATM   19  C   UNL     1     -44.184 -53.386  13.773  1.00  0.00     0.018 A 
HETATM   20  C   UNL     1     -43.012 -53.583  13.046  1.00  0.00     0.003 A 
HETATM   21  C   UNL     1     -42.362 -52.498  12.450  1.00  0.00     0.029 A 
ENDBRANCH  12  15
ENDBRANCH  10  11
ENDBRANCH   1  10
BRANCH   2  22
HETATM   22  C   UNL     1     -41.301 -43.600  12.579  1.00  0.00     0.232 C 
HETATM   23  O   UNL     1     -42.360 -42.685  12.906  1.00  0.00    -0.366 OA
HETATM   24  C   UNL     1     -41.777 -41.374  13.033  1.00  0.00     0.170 C 
HETATM   25  C   UNL     1     -40.345 -41.453  12.540  1.00  0.00     0.031 C 
HETATM   26  C   UNL     1     -40.318 -42.752  11.780  1.00  0.00     0.056 C 
ENDBRANCH   2  22
TORSDOF 4
ENDMDL
MODEL 7
REMARK VINA RESULT:      -6.1      3.999      5.364
REMARK  4 active torsions:
REMARK  status: ('A' for Active; 'I' for Inactive)
REMARK    1  A    between atoms: N_1  and  C_8 
REMARK    2  A    between atoms: N_2  and  C_7 
REMARK    3  A    between atoms: C_8  and  C_9 
REMARK       I    between atoms: C_9  and  N_11 
REMARK    4  A    between atoms: N_11  and  C_15 
ROOT
HETATM    1  N   UNL     1     -39.381 -46.445  13.123  1.00  0.00    -0.255 N 
HETATM    2  N   UNL     1     -41.066 -46.050  11.516  1.00  0.00    -0.279 N 
HETATM    3  C   UNL     1     -39.997 -46.840  11.943  1.00  0.00     0.334 C 
HETATM    4  C   UNL     1     -39.617 -45.234  13.760  1.00  0.00     0.292 C 
HETATM    5  C   UNL     1     -40.639 -44.375  13.127  1.00  0.00     0.200 C 
HETATM    6  C   UNL     1     -41.341 -44.827  12.090  1.00  0.00     0.146 C 
HETATM    7  O   UNL     1     -39.634 -47.843  11.328  1.00  0.00    -0.246 OA
HETATM    8  O   UNL     1     -39.055 -44.886  14.793  1.00  0.00    -0.264 OA
HETATM    9  F   UNL     1     -40.890 -43.183  13.699  1.00  0.00    -0.199 F 
ENDROOT
BRANCH   1  10
HETATM   10  C   UNL     1     -38.650 -47.458  13.872  1.00  0.00     0.240 C 
BRANCH  10  11
HETATM   11  C   UNL     1     -39.306 -48.812  14.141  1.00  0.00     0.240 C 
HETATM   12  N   UNL     1     -38.816 -49.881  13.415  1.00  0.00    -0.326 N 
HETATM   13  H   UNL     1     -38.029 -49.699  12.803  1.00  0.00     0.169 HD
HETATM   14  O   UNL     1     -40.313 -48.839  14.849  1.00  0.00    -0.271 OA
BRANCH  12  15
HETATM   15  C   UNL     1     -39.352 -51.193  13.376  1.00  0.00     0.035 A 
HETATM   16  C   UNL     1     -38.998 -52.214  14.268  1.00  0.00     0.047 A 
HETATM   17  C   UNL     1     -39.606 -53.471  14.190  1.00  0.00     0.008 A 
HETATM   18  I   UNL     1     -39.105 -54.951  15.567  1.00  0.00    -0.045 I 
HETATM   19  C   UNL     1     -40.558 -53.739  13.210  1.00  0.00     0.018 A 
HETATM   20  C   UNL     1     -40.903 -52.738  12.305  1.00  0.00     0.003 A 
HETATM   21  C   UNL     1     -40.309 -51.475  12.391  1.00  0.00     0.029 A 
ENDBRANCH  12  15
ENDBRANCH  10  11
ENDBRANCH   1  10
BRANCH   2  22
HETATM   22  C   UNL     1     -41.898 -46.614  10.458  1.00  0.00     0.232 C 
HETATM   23  O   UNL     1     -42.386 -45.620   9.543  1.00  0.00    -0.366 OA
HETATM   24  C   UNL     1     -43.615 -46.115   8.979  1.00  0.00     0.170 C 
HETATM   25  C   UNL     1     -44.011 -47.360   9.751  1.00  0.00     0.031 C 
HETATM   26  C   UNL     1     -43.164 -47.275  10.992  1.00  0.00     0.056 C 
ENDBRANCH   2  22
TORSDOF 4
ENDMDL
MODEL 8
REMARK VINA RESULT:      -5.8      3.415      4.723
REMARK  4 active torsions:
REMARK  status: ('A' for Active; 'I' for Inactive)
REMARK    1  A    between atoms: N_1  and  C_8 
REMARK    2  A    between atoms: N_2  and  C_7 
REMARK    3  A    between atoms: C_8  and  C_9 
REMARK       I    between atoms: C_9  and  N_11 
REMARK    4  A    between atoms: N_11  and  C_15 
ROOT
HETATM    1  N   UNL     1     -40.321 -48.073  12.122  1.00  0.00    -0.255 N 
HETATM    2  N   UNL     1     -41.344 -45.967  11.812  1.00  0.00    -0.279 N 
HETATM    3  C   UNL     1     -40.569 -46.801  12.620  1.00  0.00     0.334 C 
HETATM    4  C   UNL     1     -40.956 -48.616  11.013  1.00  0.00     0.292 C 
HETATM    5  C   UNL     1     -41.906 -47.716  10.325  1.00  0.00     0.200 C 
HETATM    6  C   UNL     1     -42.019 -46.446  10.709  1.00  0.00     0.146 C 
HETATM    7  O   UNL     1     -40.108 -46.428  13.699  1.00  0.00    -0.246 OA
HETATM    8  O   UNL     1     -40.743 -49.747  10.590  1.00  0.00    -0.264 OA
HETATM    9  F   UNL     1     -42.559 -48.203   9.254  1.00  0.00    -0.199 F 
ENDROOT
BRANCH   1  10
HETATM   10  C   UNL     1     -39.149 -48.776  12.625  1.00  0.00     0.240 C 
BRANCH  10  11
HETATM   11  C   UNL     1     -39.332 -49.934  13.607  1.00  0.00     0.240 C 
HETATM   12  N   UNL     1     -39.638 -51.161  13.050  1.00  0.00    -0.326 N 
HETATM   13  H   UNL     1     -39.665 -51.213  12.038  1.00  0.00     0.169 HD
HETATM   14  O   UNL     1     -39.356 -49.677  14.811  1.00  0.00    -0.271 OA
BRANCH  12  15
HETATM   15  C   UNL     1     -39.998 -52.341  13.750  1.00  0.00     0.035 A 
HETATM   16  C   UNL     1     -41.319 -52.756  13.963  1.00  0.00     0.047 A 
HETATM   17  C   UNL     1     -41.589 -53.958  14.627  1.00  0.00     0.008 A 
HETATM   18  I   UNL     1     -43.561 -54.583  14.875  1.00  0.00    -0.045 I 
HETATM   19  C   UNL     1     -40.552 -54.750  15.110  1.00  0.00     0.018 A 
HETATM   20  C   UNL     1     -39.235 -54.336  14.922  1.00  0.00     0.003 A 
HETATM   21  C   UNL     1     -38.961 -53.144  14.244  1.00  0.00     0.029 A 
ENDBRANCH  12  15
ENDBRANCH  10  11
ENDBRANCH   1  10
BRANCH   2  22
HETATM   22  C   UNL     1     -41.361 -44.555  12.178  1.00  0.00     0.232 C 
HETATM   23  O   UNL     1     -42.669 -43.969  12.075  1.00  0.00    -0.366 OA
HETATM   24  C   UNL     1     -42.495 -42.559  11.833  1.00  0.00     0.170 C 
HETATM   25  C   UNL     1     -41.025 -42.315  11.549  1.00  0.00     0.031 C 
HETATM   26  C   UNL     1     -40.501 -43.696  11.258  1.00  0.00     0.056 C 
ENDBRANCH   2  22
TORSDOF 4
ENDMDL
MODEL 9
REMARK VINA RESULT:      -5.8      3.008      6.316
REMARK  4 active torsions:
REMARK  status: ('A' for Active; 'I' for Inactive)
REMARK    1  A    between atoms: N_1  and  C_8 
REMARK    2  A    between atoms: N_2  and  C_7 
REMARK    3  A    between atoms: C_8  and  C_9 
REMARK       I    between atoms: C_9  and  N_11 
REMARK    4  A    between atoms: N_11  and  C_15 
ROOT
HETATM    1  N   UNL     1     -40.971 -52.304  13.143  1.00  0.00    -0.255 N 
HETATM    2  N   UNL     1     -42.211 -53.703  14.586  1.00  0.00    -0.279 N 
HETATM    3  C   UNL     1     -42.216 -52.702  13.613  1.00  0.00     0.334 C 
HETATM    4  C   UNL     1     -39.763 -52.673  13.721  1.00  0.00     0.292 C 
HETATM    5  C   UNL     1     -39.868 -53.595  14.871  1.00  0.00     0.200 C 
HETATM    6  C   UNL     1     -41.050 -54.101  15.215  1.00  0.00     0.146 C 
HETATM    7  O   UNL     1     -43.258 -52.217  13.174  1.00  0.00    -0.246 OA
HETATM    8  O   UNL     1     -38.669 -52.302  13.310  1.00  0.00    -0.264 OA
HETATM    9  F   UNL     1     -38.725 -53.967  15.475  1.00  0.00    -0.199 F 
ENDROOT
BRANCH   1  10
HETATM   10  C   UNL     1     -40.915 -51.685  11.826  1.00  0.00     0.240 C 
BRANCH  10  11
HETATM   11  C   UNL     1     -40.891 -50.161  11.713  1.00  0.00     0.240 C 
HETATM   12  N   UNL     1     -42.110 -49.548  11.494  1.00  0.00    -0.326 N 
HETATM   13  H   UNL     1     -42.929 -50.145  11.478  1.00  0.00     0.169 HD
HETATM   14  O   UNL     1     -39.796 -49.599  11.664  1.00  0.00    -0.271 OA
BRANCH  12  15
HETATM   15  C   UNL     1     -42.326 -48.175  11.209  1.00  0.00     0.035 A 
HETATM   16  C   UNL     1     -42.259 -47.154  12.165  1.00  0.00     0.047 A 
HETATM   17  C   UNL     1     -42.443 -45.818  11.793  1.00  0.00     0.008 A 
HETATM   18  I   UNL     1     -42.277 -44.313  13.224  1.00  0.00    -0.045 I 
HETATM   19  C   UNL     1     -42.719 -45.481  10.471  1.00  0.00     0.018 A 
HETATM   20  C   UNL     1     -42.808 -46.490   9.516  1.00  0.00     0.003 A 
HETATM   21  C   UNL     1     -42.608 -47.825   9.881  1.00  0.00     0.029 A 
ENDBRANCH  12  15
ENDBRANCH  10  11
ENDBRANCH   1  10
BRANCH   2  22
HETATM   22  C   UNL     1     -43.498 -54.331  14.866  1.00  0.00     0.232 C 
HETATM   23  O   UNL     1     -44.213 -54.693  13.672  1.00  0.00    -0.366 OA
HETATM   24  C   UNL     1     -45.618 -54.696  13.993  1.00  0.00     0.170 C 
HETATM   25  C   UNL     1     -45.780 -54.091  15.374  1.00  0.00     0.031 C 
HETATM   26  C   UNL     1     -44.459 -53.406  15.603  1.00  0.00     0.056 C 
ENDBRANCH   2  22
TORSDOF 4
ENDMDL
