MODEL 1
REMARK VINA RESULT:      -6.1      0.000      0.000
REMARK  3 active torsions:
REMARK  status: ('A' for Active; 'I' for Inactive)
REMARK    1  A    between atoms: C_2  and  C_3 
REMARK    2  A    between atoms: C_2  and  N_15 
REMARK       I    between atoms: C_3  and  N_5 
REMARK    3  A    between atoms: N_5  and  C_6 
REMARK       I    between atoms: N_9  and  C_12 
ROOT
HETATM    1  C   UNL     1     -41.478 -49.062  11.951  1.00  0.00     0.242 C 
HETATM    2  O   UNL     1     -40.896 -48.761  12.999  1.00  0.00    -0.271 OA
HETATM    3  N   UNL     1     -42.214 -50.229  11.841  1.00  0.00    -0.355 N 
HETATM    4  H   UNL     1     -42.866 -50.250  11.053  1.00  0.00     0.162 HD
ENDROOT
BRANCH   3   5
HETATM    5  C   UNL     1     -42.566 -50.998  13.045  1.00  0.00     0.087 C 
HETATM    6  C   UNL     1     -42.455 -52.533  12.870  1.00  0.00     0.045 C 
HETATM    7  C   UNL     1     -43.719 -53.244  12.368  1.00  0.00     0.127 C 
HETATM    8  N   UNL     1     -44.935 -52.688  12.955  1.00  0.00    -0.352 N 
HETATM    9  C   UNL     1     -45.052 -51.247  12.775  1.00  0.00     0.127 C 
HETATM   10  C   UNL     1     -45.877 -53.321  13.749  1.00  0.00     0.215 C 
HETATM   11  C   UNL     1     -43.943 -50.580  13.574  1.00  0.00     0.045 C 
HETATM   12  O   UNL     1     -46.853 -52.716  14.205  1.00  0.00    -0.274 OA
HETATM   13  C   UNL     1     -45.738 -54.783  14.088  1.00  0.00     0.117 C 
ENDBRANCH   3   5
BRANCH   1  14
HETATM   14  C   UNL     1     -41.380 -48.198  10.691  1.00  0.00     0.195 C 
HETATM   15  C   UNL     1     -40.624 -46.897  10.980  1.00  0.00     0.044 C 
BRANCH  14  16
HETATM   16  N   UNL     1     -42.700 -47.958  10.111  1.00  0.00    -0.290 N 
HETATM   17  C   UNL     1     -43.854 -47.587  10.745  1.00  0.00     0.112 A 
HETATM   18  C   UNL     1     -44.788 -47.375   9.757  1.00  0.00     0.037 A 
HETATM   19  C   UNL     1     -44.116 -47.679   8.562  1.00  0.00     0.108 A 
HETATM   20  N   UNL     1     -42.857 -48.075   8.772  1.00  0.00    -0.309 N 
ATOM     21  HN  UNL     1     -42.174 -48.391   8.083  1.00  0.00     0.186 HD
ENDBRANCH  14  16
ENDBRANCH   1  14
TORSDOF 3
ENDMDL
MODEL 2
REMARK VINA RESULT:      -5.9      4.723      7.238
REMARK  3 active torsions:
REMARK  status: ('A' for Active; 'I' for Inactive)
REMARK    1  A    between atoms: C_2  and  C_3 
REMARK    2  A    between atoms: C_2  and  N_15 
REMARK       I    between atoms: C_3  and  N_5 
REMARK    3  A    between atoms: N_5  and  C_6 
REMARK       I    between atoms: N_9  and  C_12 
ROOT
HETATM    1  C   UNL     1     -45.870 -53.797  14.727  1.00  0.00     0.242 C 
HETATM    2  O   UNL     1     -46.217 -54.975  14.864  1.00  0.00    -0.271 OA
HETATM    3  N   UNL     1     -44.542 -53.448  14.551  1.00  0.00    -0.355 N 
HETATM    4  H   UNL     1     -44.393 -52.507  14.179  1.00  0.00     0.162 HD
ENDROOT
BRANCH   3   5
HETATM    5  C   UNL     1     -43.542 -54.480  14.234  1.00  0.00     0.087 C 
HETATM    6  C   UNL     1     -42.859 -55.102  15.477  1.00  0.00     0.045 C 
HETATM    7  C   UNL     1     -41.589 -54.397  15.969  1.00  0.00     0.127 C 
HETATM    8  N   UNL     1     -40.753 -53.932  14.865  1.00  0.00    -0.352 N 
HETATM    9  C   UNL     1     -41.470 -53.092  13.916  1.00  0.00     0.127 C 
HETATM   10  C   UNL     1     -39.453 -54.296  14.555  1.00  0.00     0.215 C 
HETATM   11  C   UNL     1     -42.518 -53.951  13.223  1.00  0.00     0.045 C 
HETATM   12  O   UNL     1     -38.871 -53.841  13.565  1.00  0.00    -0.274 OA
HETATM   13  C   UNL     1     -38.701 -55.273  15.423  1.00  0.00     0.117 C 
ENDBRANCH   3   5
BRANCH   1  14
HETATM   14  C   UNL     1     -46.873 -52.642  14.796  1.00  0.00     0.195 C 
HETATM   15  C   UNL     1     -46.438 -51.488  13.887  1.00  0.00     0.044 C 
BRANCH  14  16
HETATM   16  N   UNL     1     -47.089 -52.213  16.177  1.00  0.00    -0.290 N 
HETATM   17  C   UNL     1     -47.901 -51.214  16.641  1.00  0.00     0.112 A 
HETATM   18  C   UNL     1     -47.848 -51.278  18.014  1.00  0.00     0.037 A 
HETATM   19  C   UNL     1     -46.950 -52.323  18.287  1.00  0.00     0.108 A 
HETATM   20  N   UNL     1     -46.451 -52.870  17.174  1.00  0.00    -0.309 N 
ATOM     21  HN  UNL     1     -45.752 -53.610  17.095  1.00  0.00     0.186 HD
ENDBRANCH  14  16
ENDBRANCH   1  14
TORSDOF 3
ENDMDL
MODEL 3
REMARK VINA RESULT:      -5.8      2.775      6.584
REMARK  3 active torsions:
REMARK  status: ('A' for Active; 'I' for Inactive)
REMARK    1  A    between atoms: C_2  and  C_3 
REMARK    2  A    between atoms: C_2  and  N_15 
REMARK       I    between atoms: C_3  and  N_5 
REMARK    3  A    between atoms: N_5  and  C_6 
REMARK       I    between atoms: N_9  and  C_12 
ROOT
HETATM    1  C   UNL     1     -44.344 -50.810  13.919  1.00  0.00     0.242 C 
HETATM    2  O   UNL     1     -44.273 -50.310  15.046  1.00  0.00    -0.271 OA
HETATM    3  N   UNL     1     -43.414 -50.518  12.935  1.00  0.00    -0.355 N 
HETATM    4  H   UNL     1     -43.400 -51.176  12.152  1.00  0.00     0.162 HD
ENDROOT
BRANCH   3   5
HETATM    5  C   UNL     1     -42.158 -49.836  13.285  1.00  0.00     0.087 C 
HETATM    6  C   UNL     1     -41.515 -49.056  12.113  1.00  0.00     0.045 C 
HETATM    7  C   UNL     1     -40.534 -49.846  11.237  1.00  0.00     0.127 C 
HETATM    8  N   UNL     1     -39.699 -50.751  12.023  1.00  0.00    -0.352 N 
HETATM    9  C   UNL     1     -40.468 -51.651  12.871  1.00  0.00     0.127 C 
HETATM   10  C   UNL     1     -38.320 -50.757  12.154  1.00  0.00     0.215 C 
HETATM   11  C   UNL     1     -41.170 -50.815  13.932  1.00  0.00     0.045 C 
HETATM   12  O   UNL     1     -37.742 -51.570  12.882  1.00  0.00    -0.274 OA
HETATM   13  C   UNL     1     -37.473 -49.758  11.408  1.00  0.00     0.117 C 
ENDBRANCH   3   5
BRANCH   1  14
HETATM   14  C   UNL     1     -45.491 -51.740  13.514  1.00  0.00     0.195 C 
HETATM   15  C   UNL     1     -46.782 -51.363  14.248  1.00  0.00     0.044 C 
BRANCH  14  16
HETATM   16  N   UNL     1     -45.128 -53.143  13.711  1.00  0.00    -0.290 N 
HETATM   17  C   UNL     1     -43.919 -53.667  14.077  1.00  0.00     0.112 A 
HETATM   18  C   UNL     1     -44.115 -55.018  14.242  1.00  0.00     0.037 A 
HETATM   19  C   UNL     1     -45.467 -55.223  13.918  1.00  0.00     0.108 A 
HETATM   20  N   UNL     1     -46.080 -54.092  13.553  1.00  0.00    -0.309 N 
ATOM     21  HN  UNL     1     -47.041 -53.974  13.231  1.00  0.00     0.186 HD
ENDBRANCH  14  16
ENDBRANCH   1  14
TORSDOF 3
ENDMDL
MODEL 4
REMARK VINA RESULT:      -5.8      2.079      2.393
REMARK  3 active torsions:
REMARK  status: ('A' for Active; 'I' for Inactive)
REMARK    1  A    between atoms: C_2  and  C_3 
REMARK    2  A    between atoms: C_2  and  N_15 
REMARK       I    between atoms: C_3  and  N_5 
REMARK    3  A    between atoms: N_5  and  C_6 
REMARK       I    between atoms: N_9  and  C_12 
ROOT
HETATM    1  C   UNL     1     -41.582 -49.165  11.364  1.00  0.00     0.242 C 
HETATM    2  O   UNL     1     -40.448 -49.374  10.921  1.00  0.00    -0.271 OA
HETATM    3  N   UNL     1     -42.325 -50.171  11.957  1.00  0.00    -0.355 N 
HETATM    4  H   UNL     1     -43.111 -49.845  12.524  1.00  0.00     0.162 HD
ENDROOT
BRANCH   3   5
HETATM    5  C   UNL     1     -41.683 -51.440  12.336  1.00  0.00     0.087 C 
HETATM    6  C   UNL     1     -42.592 -52.683  12.174  1.00  0.00     0.045 C 
HETATM    7  C   UNL     1     -43.444 -53.055  13.393  1.00  0.00     0.127 C 
HETATM    8  N   UNL     1     -42.721 -52.871  14.649  1.00  0.00    -0.352 N 
HETATM    9  C   UNL     1     -42.167 -51.532  14.801  1.00  0.00     0.127 C 
HETATM   10  C   UNL     1     -42.397 -53.819  15.605  1.00  0.00     0.215 C 
HETATM   11  C   UNL     1     -41.086 -51.347  13.746  1.00  0.00     0.045 C 
HETATM   12  O   UNL     1     -41.751 -53.526  16.616  1.00  0.00    -0.274 OA
HETATM   13  C   UNL     1     -42.823 -55.255  15.437  1.00  0.00     0.117 C 
ENDBRANCH   3   5
BRANCH   1  14
HETATM   14  C   UNL     1     -42.263 -47.800  11.241  1.00  0.00     0.195 C 
HETATM   15  C   UNL     1     -42.984 -47.432  12.542  1.00  0.00     0.044 C 
BRANCH  14  16
HETATM   16  N   UNL     1     -43.150 -47.755  10.080  1.00  0.00    -0.290 N 
HETATM   17  C   UNL     1     -44.470 -47.399  10.031  1.00  0.00     0.112 A 
HETATM   18  C   UNL     1     -44.824 -47.405   8.701  1.00  0.00     0.037 A 
HETATM   19  C   UNL     1     -43.662 -47.813   8.026  1.00  0.00     0.108 A 
HETATM   20  N   UNL     1     -42.650 -48.068   8.862  1.00  0.00    -0.309 N 
ATOM     21  HN  UNL     1     -41.718 -48.417   8.634  1.00  0.00     0.186 HD
ENDBRANCH  14  16
ENDBRANCH   1  14
TORSDOF 3
ENDMDL
MODEL 5
REMARK VINA RESULT:      -5.7      2.490      6.499
REMARK  3 active torsions:
REMARK  status: ('A' for Active; 'I' for Inactive)
REMARK    1  A    between atoms: C_2  and  C_3 
REMARK    2  A    between atoms: C_2  and  N_15 
REMARK       I    between atoms: C_3  and  N_5 
REMARK    3  A    between atoms: N_5  and  C_6 
REMARK       I    between atoms: N_9  and  C_12 
ROOT
HETATM    1  C   UNL     1     -42.019 -51.431  12.671  1.00  0.00     0.242 C 
HETATM    2  O   UNL     1     -41.684 -52.181  11.748  1.00  0.00    -0.271 OA
HETATM    3  N   UNL     1     -41.634 -50.101  12.700  1.00  0.00    -0.355 N 
HETATM    4  H   UNL     1     -42.176 -49.513  13.338  1.00  0.00     0.162 HD
ENDROOT
BRANCH   3   5
HETATM    5  C   UNL     1     -41.064 -49.470  11.499  1.00  0.00     0.087 C 
HETATM    6  C   UNL     1     -39.737 -48.714  11.751  1.00  0.00     0.045 C 
HETATM    7  C   UNL     1     -39.868 -47.236  12.143  1.00  0.00     0.127 C 
HETATM    8  N   UNL     1     -40.933 -46.563  11.404  1.00  0.00    -0.352 N 
HETATM    9  C   UNL     1     -42.220 -47.237  11.508  1.00  0.00     0.127 C 
HETATM   10  C   UNL     1     -40.834 -45.484  10.541  1.00  0.00     0.215 C 
HETATM   11  C   UNL     1     -42.106 -48.582  10.806  1.00  0.00     0.045 C 
HETATM   12  O   UNL     1     -41.823 -45.029   9.956  1.00  0.00    -0.274 OA
HETATM   13  C   UNL     1     -39.503 -44.827  10.282  1.00  0.00     0.117 C 
ENDBRANCH   3   5
BRANCH   1  14
HETATM   14  C   UNL     1     -42.830 -51.930  13.868  1.00  0.00     0.195 C 
HETATM   15  C   UNL     1     -42.323 -53.297  14.339  1.00  0.00     0.044 C 
BRANCH  14  16
HETATM   16  N   UNL     1     -44.261 -51.939  13.570  1.00  0.00    -0.290 N 
HETATM   17  C   UNL     1     -45.279 -51.336  14.257  1.00  0.00     0.112 A 
HETATM   18  C   UNL     1     -46.421 -51.539  13.517  1.00  0.00     0.037 A 
HETATM   19  C   UNL     1     -46.000 -52.306  12.418  1.00  0.00     0.108 A 
HETATM   20  N   UNL     1     -44.694 -52.589  12.464  1.00  0.00    -0.309 N 
ATOM     21  HN  UNL     1     -44.152 -53.161  11.817  1.00  0.00     0.186 HD
ENDBRANCH  14  16
ENDBRANCH   1  14
TORSDOF 3
ENDMDL
MODEL 6
REMARK VINA RESULT:      -5.6      1.516      2.383
REMARK  3 active torsions:
REMARK  status: ('A' for Active; 'I' for Inactive)
REMARK    1  A    between atoms: C_2  and  C_3 
REMARK    2  A    between atoms: C_2  and  N_15 
REMARK       I    between atoms: C_3  and  N_5 
REMARK    3  A    between atoms: N_5  and  C_6 
REMARK       I    between atoms: N_9  and  C_12 
ROOT
HETATM    1  C   UNL     1     -42.065 -48.323  11.857  1.00  0.00     0.242 C 
HETATM    2  O   UNL     1     -41.001 -48.236  12.479  1.00  0.00    -0.271 OA
HETATM    3  N   UNL     1     -42.883 -49.434  11.969  1.00  0.00    -0.355 N 
HETATM    4  H   UNL     1     -43.842 -49.294  11.644  1.00  0.00     0.162 HD
ENDROOT
BRANCH   3   5
HETATM    5  C   UNL     1     -42.658 -50.412  13.046  1.00  0.00     0.087 C 
HETATM    6  C   UNL     1     -42.325 -51.839  12.547  1.00  0.00     0.045 C 
HETATM    7  C   UNL     1     -43.525 -52.767  12.315  1.00  0.00     0.127 C 
HETATM    8  N   UNL     1     -44.555 -52.600  13.336  1.00  0.00    -0.352 N 
HETATM    9  C   UNL     1     -44.996 -51.221  13.488  1.00  0.00     0.127 C 
HETATM   10  C   UNL     1     -45.040 -53.538  14.234  1.00  0.00     0.215 C 
HETATM   11  C   UNL     1     -43.830 -50.410  14.035  1.00  0.00     0.045 C 
HETATM   12  O   UNL     1     -45.901 -53.250  15.071  1.00  0.00    -0.274 OA
HETATM   13  C   UNL     1     -44.521 -54.954  14.220  1.00  0.00     0.117 C 
ENDBRANCH   3   5
BRANCH   1  14
HETATM   14  C   UNL     1     -42.524 -47.238  10.879  1.00  0.00     0.195 C 
HETATM   15  C   UNL     1     -42.794 -47.833   9.493  1.00  0.00     0.044 C 
BRANCH  14  16
HETATM   16  N   UNL     1     -41.571 -46.131  10.834  1.00  0.00    -0.290 N 
HETATM   17  C   UNL     1     -41.713 -44.864  11.331  1.00  0.00     0.112 A 
HETATM   18  C   UNL     1     -40.503 -44.236  11.143  1.00  0.00     0.037 A 
HETATM   19  C   UNL     1     -39.704 -45.191  10.493  1.00  0.00     0.108 A 
HETATM   20  N   UNL     1     -40.360 -46.333  10.263  1.00  0.00    -0.309 N 
ATOM     21  HN  UNL     1     -40.025 -47.163   9.773  1.00  0.00     0.186 HD
ENDBRANCH  14  16
ENDBRANCH   1  14
TORSDOF 3
ENDMDL
MODEL 7
REMARK VINA RESULT:      -5.5      2.821      3.286
REMARK  3 active torsions:
REMARK  status: ('A' for Active; 'I' for Inactive)
REMARK    1  A    between atoms: C_2  and  C_3 
REMARK    2  A    between atoms: C_2  and  N_15 
REMARK       I    between atoms: C_3  and  N_5 
REMARK    3  A    between atoms: N_5  and  C_6 
REMARK       I    between atoms: N_9  and  C_12 
ROOT
HETATM    1  C   UNL     1     -41.230 -47.553  11.963  1.00  0.00     0.242 C 
HETATM    2  O   UNL     1     -41.668 -47.021  12.988  1.00  0.00    -0.271 OA
HETATM    3  N   UNL     1     -40.809 -48.871  11.953  1.00  0.00    -0.355 N 
HETATM    4  H   UNL     1     -40.729 -49.288  11.021  1.00  0.00     0.162 HD
ENDROOT
BRANCH   3   5
HETATM    5  C   UNL     1     -41.136 -49.761  13.078  1.00  0.00     0.087 C 
HETATM    6  C   UNL     1     -39.902 -50.266  13.865  1.00  0.00     0.045 C 
HETATM    7  C   UNL     1     -39.273 -51.571  13.361  1.00  0.00     0.127 C 
HETATM    8  N   UNL     1     -40.279 -52.539  12.931  1.00  0.00    -0.352 N 
HETATM    9  C   UNL     1     -41.206 -52.003  11.944  1.00  0.00     0.127 C 
HETATM   10  C   UNL     1     -40.527 -53.806  13.434  1.00  0.00     0.215 C 
HETATM   11  C   UNL     1     -42.033 -50.916  12.615  1.00  0.00     0.045 C 
HETATM   12  O   UNL     1     -41.438 -54.512  12.990  1.00  0.00    -0.274 OA
HETATM   13  C   UNL     1     -39.689 -54.365  14.554  1.00  0.00     0.117 C 
ENDBRANCH   3   5
BRANCH   1  14
HETATM   14  C   UNL     1     -41.072 -46.779  10.651  1.00  0.00     0.195 C 
HETATM   15  C   UNL     1     -40.596 -45.347  10.918  1.00  0.00     0.044 C 
BRANCH  14  16
HETATM   16  N   UNL     1     -42.301 -46.819   9.862  1.00  0.00    -0.290 N 
HETATM   17  C   UNL     1     -43.271 -45.861   9.746  1.00  0.00     0.112 A 
HETATM   18  C   UNL     1     -44.160 -46.320   8.802  1.00  0.00     0.037 A 
HETATM   19  C   UNL     1     -43.664 -47.581   8.431  1.00  0.00     0.108 A 
HETATM   20  N   UNL     1     -42.555 -47.910   9.102  1.00  0.00    -0.309 N 
ATOM     21  HN  UNL     1     -42.025 -48.781   9.052  1.00  0.00     0.186 HD
ENDBRANCH  14  16
ENDBRANCH   1  14
TORSDOF 3
ENDMDL
MODEL 8
REMARK VINA RESULT:      -5.3      3.114      6.798
REMARK  3 active torsions:
REMARK  status: ('A' for Active; 'I' for Inactive)
REMARK    1  A    between atoms: C_2  and  C_3 
REMARK    2  A    between atoms: C_2  and  N_15 
REMARK       I    between atoms: C_3  and  N_5 
REMARK    3  A    between atoms: N_5  and  C_6 
REMARK       I    between atoms: N_9  and  C_12 
ROOT
HETATM    1  C   UNL     1     -44.101 -53.482  13.173  1.00  0.00     0.242 C 
HETATM    2  O   UNL     1     -44.405 -53.725  12.001  1.00  0.00    -0.271 OA
HETATM    3  N   UNL     1     -43.001 -52.703  13.491  1.00  0.00    -0.355 N 
HETATM    4  H   UNL     1     -42.996 -52.341  14.447  1.00  0.00     0.162 HD
ENDROOT
BRANCH   3   5
HETATM    5  C   UNL     1     -42.334 -51.907  12.449  1.00  0.00     0.087 C 
HETATM    6  C   UNL     1     -40.899 -52.381  12.112  1.00  0.00     0.045 C 
HETATM    7  C   UNL     1     -39.771 -51.754  12.942  1.00  0.00     0.127 C 
HETATM    8  N   UNL     1     -40.002 -50.335  13.202  1.00  0.00    -0.352 N 
HETATM    9  C   UNL     1     -41.297 -50.066  13.811  1.00  0.00     0.127 C 
HETATM   10  C   UNL     1     -39.224 -49.252  12.825  1.00  0.00     0.215 C 
HETATM   11  C   UNL     1     -42.377 -50.413  12.797  1.00  0.00     0.045 C 
HETATM   12  O   UNL     1     -39.556 -48.093  13.090  1.00  0.00    -0.274 OA
HETATM   13  C   UNL     1     -37.937 -49.457  12.068  1.00  0.00     0.117 C 
ENDBRANCH   3   5
BRANCH   1  14
HETATM   14  C   UNL     1     -44.882 -54.068  14.352  1.00  0.00     0.195 C 
HETATM   15  C   UNL     1     -45.695 -55.291  13.914  1.00  0.00     0.044 C 
BRANCH  14  16
HETATM   16  N   UNL     1     -45.710 -53.050  14.995  1.00  0.00    -0.290 N 
HETATM   17  C   UNL     1     -46.404 -52.024  14.414  1.00  0.00     0.112 A 
HETATM   18  C   UNL     1     -47.118 -51.418  15.422  1.00  0.00     0.037 A 
HETATM   19  C   UNL     1     -46.763 -52.124  16.583  1.00  0.00     0.108 A 
HETATM   20  N   UNL     1     -45.875 -53.093  16.339  1.00  0.00    -0.309 N 
ATOM     21  HN  UNL     1     -45.426 -53.718  17.008  1.00  0.00     0.186 HD
ENDBRANCH  14  16
ENDBRANCH   1  14
TORSDOF 3
ENDMDL
MODEL 9
REMARK VINA RESULT:      -5.3      4.291      6.869
REMARK  3 active torsions:
REMARK  status: ('A' for Active; 'I' for Inactive)
REMARK    1  A    between atoms: C_2  and  C_3 
REMARK    2  A    between atoms: C_2  and  N_15 
REMARK       I    between atoms: C_3  and  N_5 
REMARK    3  A    between atoms: N_5  and  C_6 
REMARK       I    between atoms: N_9  and  C_12 
ROOT
HETATM    1  C   UNL     1     -43.923 -54.481  15.409  1.00  0.00     0.242 C 
HETATM    2  O   UNL     1     -43.544 -55.008  16.460  1.00  0.00    -0.271 OA
HETATM    3  N   UNL     1     -43.070 -53.715  14.633  1.00  0.00    -0.355 N 
HETATM    4  H   UNL     1     -43.389 -53.561  13.673  1.00  0.00     0.162 HD
ENDROOT
BRANCH   3   5
HETATM    5  C   UNL     1     -41.620 -53.742  14.881  1.00  0.00     0.087 C 
HETATM    6  C   UNL     1     -41.115 -52.608  15.806  1.00  0.00     0.045 C 
HETATM    7  C   UNL     1     -40.705 -51.305  15.108  1.00  0.00     0.127 C 
HETATM    8  N   UNL     1     -40.007 -51.550  13.849  1.00  0.00    -0.352 N 
HETATM    9  C   UNL     1     -40.752 -52.406  12.937  1.00  0.00     0.127 C 
HETATM   10  C   UNL     1     -38.716 -51.192  13.494  1.00  0.00     0.215 C 
HETATM   11  C   UNL     1     -40.844 -53.792  13.559  1.00  0.00     0.045 C 
HETATM   12  O   UNL     1     -38.240 -51.492  12.395  1.00  0.00    -0.274 OA
HETATM   13  C   UNL     1     -37.842 -50.423  14.451  1.00  0.00     0.117 C 
ENDBRANCH   3   5
BRANCH   1  14
HETATM   14  C   UNL     1     -45.370 -54.592  14.922  1.00  0.00     0.195 C 
HETATM   15  C   UNL     1     -45.449 -55.419  13.634  1.00  0.00     0.044 C 
BRANCH  14  16
HETATM   16  N   UNL     1     -45.981 -53.272  14.775  1.00  0.00    -0.290 N 
HETATM   17  C   UNL     1     -46.156 -52.304  15.725  1.00  0.00     0.112 A 
HETATM   18  C   UNL     1     -46.667 -51.206  15.071  1.00  0.00     0.037 A 
HETATM   19  C   UNL     1     -46.800 -51.619  13.735  1.00  0.00     0.108 A 
HETATM   20  N   UNL     1     -46.423 -52.889  13.554  1.00  0.00    -0.309 N 
ATOM     21  HN  UNL     1     -46.461 -53.440  12.696  1.00  0.00     0.186 HD
ENDBRANCH  14  16
ENDBRANCH   1  14
TORSDOF 3
ENDMDL
