MODEL 1
REMARK VINA RESULT:      -5.7      0.000      0.000
REMARK  8 active torsions:
REMARK  status: ('A' for Active; 'I' for Inactive)
REMARK    1  A    between atoms: C_2  and  N_3 
REMARK    2  A    between atoms: C_2  and  C_12 
REMARK    3  A    between atoms: N_3  and  C_4 
REMARK    4  A    between atoms: C_4  and  C_5 
REMARK    5  A    between atoms: C_5  and  C_6 
REMARK    6  A    between atoms: C_6  and  N_7 
REMARK    7  A    between atoms: N_7  and  S_8 
REMARK    8  A    between atoms: C_12  and  N_14 
ROOT
HETATM    1  C   UNL     1     -40.386 -51.848  13.091  1.00  0.00     0.045 C 
HETATM    2  C   UNL     1     -41.821 -51.396  12.772  1.00  0.00     0.240 C 
ENDROOT
BRANCH   2   3
HETATM    3  N   UNL     1     -41.807 -50.382  11.685  1.00  0.00     0.089 N 
HETATM    4  H   UNL     1     -42.310 -50.739  10.873  1.00  0.00     0.316 HD
BRANCH   3   5
HETATM    5  C   UNL     1     -42.362 -49.096  12.089  1.00  0.00     0.271 C 
BRANCH   5   6
HETATM    6  C   UNL     1     -41.325 -47.973  12.103  1.00  0.00     0.045 C 
BRANCH   6   7
HETATM    7  C   UNL     1     -41.304 -47.371  10.702  1.00  0.00     0.105 C 
BRANCH   7   8
HETATM    8  N   UNL     1     -42.153 -48.129   9.772  1.00  0.00    -0.220 NA
HETATM    9  H   UNL     1     -42.531 -49.005  10.144  1.00  0.00     0.139 HD
BRANCH   8  10
HETATM   10  S   UNL     1     -43.396 -47.252   9.043  1.00  0.00     0.205 S 
HETATM   11  O   UNL     1     -44.595 -47.553   9.792  1.00  0.00    -0.212 OA
HETATM   12  O   UNL     1     -42.936 -45.889   8.876  1.00  0.00    -0.212 OA
HETATM   13  C   UNL     1     -43.512 -48.023   7.436  1.00  0.00     0.179 C 
ENDBRANCH   8  10
ENDBRANCH   7   8
ENDBRANCH   6   7
ENDBRANCH   5   6
ENDBRANCH   3   5
ENDBRANCH   2   3
BRANCH   2  14
HETATM   14  C   UNL     1     -42.793 -52.601  12.528  1.00  0.00     0.136 C 
HETATM   15  C   UNL     1     -42.303 -53.905  13.170  1.00  0.00     0.036 C 
BRANCH  14  16
HETATM   16  N   UNL     1     -44.170 -52.339  12.960  1.00  0.00    -0.297 N 
HETATM   17  C   UNL     1     -44.609 -51.921  14.187  1.00  0.00     0.118 A 
HETATM   18  C   UNL     1     -45.981 -51.821  14.106  1.00  0.00    -0.028 A 
HETATM   19  C   UNL     1     -46.925 -51.368  15.149  1.00  0.00     0.051 C 
HETATM   20  C   UNL     1     -46.275 -52.245  12.792  1.00  0.00     0.115 A 
HETATM   21  N   UNL     1     -45.183 -52.567  12.094  1.00  0.00    -0.309 N 
ATOM     22  HN  UNL     1     -45.127 -52.906  11.134  1.00  0.00     0.186 HD
ENDBRANCH  14  16
ENDBRANCH   2  14
TORSDOF 8
ENDMDL
MODEL 2
REMARK VINA RESULT:      -5.5      3.108      6.053
REMARK  8 active torsions:
REMARK  status: ('A' for Active; 'I' for Inactive)
REMARK    1  A    between atoms: C_2  and  N_3 
REMARK    2  A    between atoms: C_2  and  C_12 
REMARK    3  A    between atoms: N_3  and  C_4 
REMARK    4  A    between atoms: C_4  and  C_5 
REMARK    5  A    between atoms: C_5  and  C_6 
REMARK    6  A    between atoms: C_6  and  N_7 
REMARK    7  A    between atoms: N_7  and  S_8 
REMARK    8  A    between atoms: C_12  and  N_14 
ROOT
HETATM    1  C   UNL     1     -43.074 -48.812  13.354  1.00  0.00     0.045 C 
HETATM    2  C   UNL     1     -41.931 -48.709  12.331  1.00  0.00     0.240 C 
ENDROOT
BRANCH   2   3
HETATM    3  N   UNL     1     -41.829 -49.971  11.552  1.00  0.00     0.089 N 
HETATM    4  H   UNL     1     -41.623 -49.759  10.576  1.00  0.00     0.316 HD
BRANCH   3   5
HETATM    5  C   UNL     1     -40.833 -50.896  12.082  1.00  0.00     0.271 C 
BRANCH   5   6
HETATM    6  C   UNL     1     -41.224 -52.363  11.904  1.00  0.00     0.045 C 
BRANCH   6   7
HETATM    7  C   UNL     1     -42.477 -52.593  12.743  1.00  0.00     0.105 C 
BRANCH   7   8
HETATM    8  N   UNL     1     -43.676 -52.726  11.903  1.00  0.00    -0.220 NA
HETATM    9  H   UNL     1     -43.552 -53.280  11.052  1.00  0.00     0.139 HD
BRANCH   8  10
HETATM   10  S   UNL     1     -45.070 -53.241  12.704  1.00  0.00     0.205 S 
HETATM   11  O   UNL     1     -46.184 -52.700  11.960  1.00  0.00    -0.212 OA
HETATM   12  O   UNL     1     -44.943 -54.663  12.941  1.00  0.00    -0.212 OA
HETATM   13  C   UNL     1     -44.949 -52.381  14.265  1.00  0.00     0.179 C 
ENDBRANCH   8  10
ENDBRANCH   7   8
ENDBRANCH   6   7
ENDBRANCH   5   6
ENDBRANCH   3   5
ENDBRANCH   2   3
BRANCH   2  14
HETATM   14  C   UNL     1     -42.016 -47.409  11.460  1.00  0.00     0.136 C 
HETATM   15  C   UNL     1     -40.661 -46.988  10.879  1.00  0.00     0.036 C 
BRANCH  14  16
HETATM   16  N   UNL     1     -43.000 -47.494  10.375  1.00  0.00    -0.297 N 
HETATM   17  C   UNL     1     -44.364 -47.532  10.471  1.00  0.00     0.118 A 
HETATM   18  C   UNL     1     -44.850 -47.617   9.184  1.00  0.00    -0.028 A 
HETATM   19  C   UNL     1     -46.260 -47.642   8.741  1.00  0.00     0.051 C 
HETATM   20  C   UNL     1     -43.688 -47.668   8.385  1.00  0.00     0.115 A 
HETATM   21  N   UNL     1     -42.563 -47.601   9.101  1.00  0.00    -0.309 N 
ATOM     22  HN  UNL     1     -41.600 -47.626   8.765  1.00  0.00     0.186 HD
ENDBRANCH  14  16
ENDBRANCH   2  14
TORSDOF 8
ENDMDL
MODEL 3
REMARK VINA RESULT:      -5.3      1.777      2.336
REMARK  8 active torsions:
REMARK  status: ('A' for Active; 'I' for Inactive)
REMARK    1  A    between atoms: C_2  and  N_3 
REMARK    2  A    between atoms: C_2  and  C_12 
REMARK    3  A    between atoms: N_3  and  C_4 
REMARK    4  A    between atoms: C_4  and  C_5 
REMARK    5  A    between atoms: C_5  and  C_6 
REMARK    6  A    between atoms: C_6  and  N_7 
REMARK    7  A    between atoms: N_7  and  S_8 
REMARK    8  A    between atoms: C_12  and  N_14 
ROOT
HETATM    1  C   UNL     1     -41.349 -51.198  13.864  1.00  0.00     0.045 C 
HETATM    2  C   UNL     1     -42.074 -51.361  12.518  1.00  0.00     0.240 C 
ENDROOT
BRANCH   2   3
HETATM    3  N   UNL     1     -41.092 -51.329  11.402  1.00  0.00     0.089 N 
HETATM    4  H   UNL     1     -41.575 -51.458  10.513  1.00  0.00     0.316 HD
BRANCH   3   5
HETATM    5  C   UNL     1     -40.300 -50.105  11.367  1.00  0.00     0.271 C 
BRANCH   5   6
HETATM    6  C   UNL     1     -41.114 -48.875  10.963  1.00  0.00     0.045 C 
BRANCH   6   7
HETATM    7  C   UNL     1     -40.427 -47.664  11.586  1.00  0.00     0.105 C 
BRANCH   7   8
HETATM    8  N   UNL     1     -40.002 -46.696  10.566  1.00  0.00    -0.220 NA
HETATM    9  H   UNL     1     -39.897 -47.077   9.622  1.00  0.00     0.139 HD
BRANCH   8  10
HETATM   10  S   UNL     1     -40.907 -45.273  10.493  1.00  0.00     0.205 S 
HETATM   11  O   UNL     1     -39.990 -44.234  10.082  1.00  0.00    -0.212 OA
HETATM   12  O   UNL     1     -42.112 -45.553   9.742  1.00  0.00    -0.212 OA
HETATM   13  C   UNL     1     -41.341 -45.013  12.206  1.00  0.00     0.179 C 
ENDBRANCH   8  10
ENDBRANCH   7   8
ENDBRANCH   6   7
ENDBRANCH   5   6
ENDBRANCH   3   5
ENDBRANCH   2   3
BRANCH   2  14
HETATM   14  C   UNL     1     -43.043 -52.592  12.499  1.00  0.00     0.136 C 
HETATM   15  C   UNL     1     -42.498 -53.795  13.279  1.00  0.00     0.036 C 
BRANCH  14  16
HETATM   16  N   UNL     1     -44.395 -52.280  12.976  1.00  0.00    -0.297 N 
HETATM   17  C   UNL     1     -44.809 -52.055  14.261  1.00  0.00     0.118 A 
HETATM   18  C   UNL     1     -46.163 -51.808  14.204  1.00  0.00    -0.028 A 
HETATM   19  C   UNL     1     -47.075 -51.465  15.315  1.00  0.00     0.051 C 
HETATM   20  C   UNL     1     -46.478 -51.951  12.835  1.00  0.00     0.115 A 
HETATM   21  N   UNL     1     -45.412 -52.245  12.086  1.00  0.00    -0.309 N 
ATOM     22  HN  UNL     1     -45.374 -52.405  11.079  1.00  0.00     0.186 HD
ENDBRANCH  14  16
ENDBRANCH   2  14
TORSDOF 8
ENDMDL
MODEL 4
REMARK VINA RESULT:      -5.2      3.235      4.249
REMARK  8 active torsions:
REMARK  status: ('A' for Active; 'I' for Inactive)
REMARK    1  A    between atoms: C_2  and  N_3 
REMARK    2  A    between atoms: C_2  and  C_12 
REMARK    3  A    between atoms: N_3  and  C_4 
REMARK    4  A    between atoms: C_4  and  C_5 
REMARK    5  A    between atoms: C_5  and  C_6 
REMARK    6  A    between atoms: C_6  and  N_7 
REMARK    7  A    between atoms: N_7  and  S_8 
REMARK    8  A    between atoms: C_12  and  N_14 
ROOT
HETATM    1  C   UNL     1     -39.436 -47.428  13.993  1.00  0.00     0.045 C 
HETATM    2  C   UNL     1     -40.256 -48.131  12.898  1.00  0.00     0.240 C 
ENDROOT
BRANCH   2   3
HETATM    3  N   UNL     1     -40.909 -47.122  12.024  1.00  0.00     0.089 N 
HETATM    4  H   UNL     1     -41.545 -46.546  12.576  1.00  0.00     0.316 HD
BRANCH   3   5
HETATM    5  C   UNL     1     -39.960 -46.275  11.311  1.00  0.00     0.271 C 
BRANCH   5   6
HETATM    6  C   UNL     1     -40.629 -45.118  10.569  1.00  0.00     0.045 C 
BRANCH   6   7
HETATM    7  C   UNL     1     -42.109 -45.466  10.448  1.00  0.00     0.105 C 
BRANCH   7   8
HETATM    8  N   UNL     1     -42.439 -45.981   9.112  1.00  0.00    -0.220 NA
HETATM    9  H   UNL     1     -41.693 -45.893   8.416  1.00  0.00     0.139 HD
BRANCH   8  10
HETATM   10  S   UNL     1     -43.056 -47.551   9.071  1.00  0.00     0.205 S 
HETATM   11  O   UNL     1     -43.340 -47.835   7.682  1.00  0.00    -0.212 OA
HETATM   12  O   UNL     1     -42.171 -48.395   9.845  1.00  0.00    -0.212 OA
HETATM   13  C   UNL     1     -44.601 -47.374   9.950  1.00  0.00     0.179 C 
ENDBRANCH   8  10
ENDBRANCH   7   8
ENDBRANCH   6   7
ENDBRANCH   5   6
ENDBRANCH   3   5
ENDBRANCH   2   3
BRANCH   2  14
HETATM   14  C   UNL     1     -39.430 -49.222  12.133  1.00  0.00     0.136 C 
HETATM   15  C   UNL     1     -37.961 -49.274  12.567  1.00  0.00     0.036 C 
BRANCH  14  16
HETATM   16  N   UNL     1     -40.009 -50.566  12.227  1.00  0.00    -0.297 N 
HETATM   17  C   UNL     1     -39.674 -51.574  13.089  1.00  0.00     0.118 A 
HETATM   18  C   UNL     1     -40.492 -52.642  12.788  1.00  0.00    -0.028 A 
HETATM   19  C   UNL     1     -40.557 -53.957  13.459  1.00  0.00     0.051 C 
HETATM   20  C   UNL     1     -41.258 -52.186  11.695  1.00  0.00     0.115 A 
HETATM   21  N   UNL     1     -40.966 -50.931  11.344  1.00  0.00    -0.309 N 
ATOM     22  HN  UNL     1     -41.370 -50.378  10.588  1.00  0.00     0.186 HD
ENDBRANCH  14  16
ENDBRANCH   2  14
TORSDOF 8
ENDMDL
MODEL 5
REMARK VINA RESULT:      -5.2      3.742      6.991
REMARK  8 active torsions:
REMARK  status: ('A' for Active; 'I' for Inactive)
REMARK    1  A    between atoms: C_2  and  N_3 
REMARK    2  A    between atoms: C_2  and  C_12 
REMARK    3  A    between atoms: N_3  and  C_4 
REMARK    4  A    between atoms: C_4  and  C_5 
REMARK    5  A    between atoms: C_5  and  C_6 
REMARK    6  A    between atoms: C_6  and  N_7 
REMARK    7  A    between atoms: N_7  and  S_8 
REMARK    8  A    between atoms: C_12  and  N_14 
ROOT
HETATM    1  C   UNL     1     -43.204 -48.704  12.625  1.00  0.00     0.045 C 
HETATM    2  C   UNL     1     -41.873 -48.953  11.896  1.00  0.00     0.240 C 
ENDROOT
BRANCH   2   3
HETATM    3  N   UNL     1     -41.725 -50.398  11.583  1.00  0.00     0.089 N 
HETATM    4  H   UNL     1     -40.736 -50.634  11.501  1.00  0.00     0.316 HD
BRANCH   3   5
HETATM    5  C   UNL     1     -42.367 -51.268  12.561  1.00  0.00     0.271 C 
BRANCH   5   6
HETATM    6  C   UNL     1     -41.597 -52.567  12.804  1.00  0.00     0.045 C 
BRANCH   6   7
HETATM    7  C   UNL     1     -40.230 -52.175  13.356  1.00  0.00     0.105 C 
BRANCH   7   8
HETATM    8  N   UNL     1     -39.295 -51.807  12.284  1.00  0.00    -0.220 NA
HETATM    9  H   UNL     1     -39.730 -51.421  11.442  1.00  0.00     0.139 HD
BRANCH   8  10
HETATM   10  S   UNL     1     -38.008 -50.821  12.748  1.00  0.00     0.205 S 
HETATM   11  O   UNL     1     -36.804 -51.527  12.374  1.00  0.00    -0.212 OA
HETATM   12  O   UNL     1     -38.277 -49.484  12.261  1.00  0.00    -0.212 OA
HETATM   13  C   UNL     1     -38.149 -50.826  14.528  1.00  0.00     0.179 C 
ENDBRANCH   8  10
ENDBRANCH   7   8
ENDBRANCH   6   7
ENDBRANCH   5   6
ENDBRANCH   3   5
ENDBRANCH   2   3
BRANCH   2  14
HETATM   14  C   UNL     1     -41.668 -47.995  10.672  1.00  0.00     0.136 C 
HETATM   15  C   UNL     1     -42.989 -47.550  10.032  1.00  0.00     0.036 C 
BRANCH  14  16
HETATM   16  N   UNL     1     -40.860 -46.811  10.984  1.00  0.00    -0.297 N 
HETATM   17  C   UNL     1     -40.439 -46.372  12.209  1.00  0.00     0.118 A 
HETATM   18  C   UNL     1     -39.716 -45.220  11.991  1.00  0.00    -0.028 A 
HETATM   19  C   UNL     1     -39.011 -44.384  12.986  1.00  0.00     0.051 C 
HETATM   20  C   UNL     1     -39.797 -45.027  10.596  1.00  0.00     0.115 A 
HETATM   21  N   UNL     1     -40.495 -45.984   9.979  1.00  0.00    -0.309 N 
ATOM     22  HN  UNL     1     -40.704 -46.069   8.984  1.00  0.00     0.186 HD
ENDBRANCH  14  16
ENDBRANCH   2  14
TORSDOF 8
ENDMDL
MODEL 6
REMARK VINA RESULT:      -5.2      4.590      6.661
REMARK  8 active torsions:
REMARK  status: ('A' for Active; 'I' for Inactive)
REMARK    1  A    between atoms: C_2  and  N_3 
REMARK    2  A    between atoms: C_2  and  C_12 
REMARK    3  A    between atoms: N_3  and  C_4 
REMARK    4  A    between atoms: C_4  and  C_5 
REMARK    5  A    between atoms: C_5  and  C_6 
REMARK    6  A    between atoms: C_6  and  N_7 
REMARK    7  A    between atoms: N_7  and  S_8 
REMARK    8  A    between atoms: C_12  and  N_14 
ROOT
HETATM    1  C   UNL     1     -39.305 -48.777  11.701  1.00  0.00     0.045 C 
HETATM    2  C   UNL     1     -40.612 -49.308  11.090  1.00  0.00     0.240 C 
ENDROOT
BRANCH   2   3
HETATM    3  N   UNL     1     -40.667 -50.788  11.210  1.00  0.00     0.089 N 
HETATM    4  H   UNL     1     -39.724 -51.175  11.151  1.00  0.00     0.316 HD
BRANCH   3   5
HETATM    5  C   UNL     1     -41.317 -51.244  12.434  1.00  0.00     0.271 C 
BRANCH   5   6
HETATM    6  C   UNL     1     -42.332 -52.361  12.192  1.00  0.00     0.045 C 
BRANCH   6   7
HETATM    7  C   UNL     1     -41.678 -53.661  12.650  1.00  0.00     0.105 C 
BRANCH   7   8
HETATM    8  N   UNL     1     -40.217 -53.529  12.747  1.00  0.00    -0.220 NA
HETATM    9  H   UNL     1     -39.846 -52.612  12.488  1.00  0.00     0.139 HD
BRANCH   8  10
HETATM   10  S   UNL     1     -39.541 -54.009  14.216  1.00  0.00     0.205 S 
HETATM   11  O   UNL     1     -38.932 -55.298  13.977  1.00  0.00    -0.212 OA
HETATM   12  O   UNL     1     -38.770 -52.897  14.732  1.00  0.00    -0.212 OA
HETATM   13  C   UNL     1     -40.985 -54.236  15.242  1.00  0.00     0.179 C 
ENDBRANCH   8  10
ENDBRANCH   7   8
ENDBRANCH   6   7
ENDBRANCH   5   6
ENDBRANCH   3   5
ENDBRANCH   2   3
BRANCH   2  14
HETATM   14  C   UNL     1     -41.879 -48.562  11.632  1.00  0.00     0.136 C 
HETATM   15  C   UNL     1     -41.533 -47.390  12.559  1.00  0.00     0.036 C 
BRANCH  14  16
HETATM   16  N   UNL     1     -42.778 -48.089  10.573  1.00  0.00    -0.297 N 
HETATM   17  C   UNL     1     -44.077 -47.674  10.687  1.00  0.00     0.118 A 
HETATM   18  C   UNL     1     -44.497 -47.333   9.420  1.00  0.00    -0.028 A 
HETATM   19  C   UNL     1     -45.807 -46.784   9.011  1.00  0.00     0.051 C 
HETATM   20  C   UNL     1     -43.383 -47.621   8.603  1.00  0.00     0.115 A 
HETATM   21  N   UNL     1     -42.340 -48.087   9.294  1.00  0.00    -0.309 N 
ATOM     22  HN  UNL     1     -41.427 -48.374   8.940  1.00  0.00     0.186 HD
ENDBRANCH  14  16
ENDBRANCH   2  14
TORSDOF 8
ENDMDL
MODEL 7
REMARK VINA RESULT:      -5.2      3.908      4.318
REMARK  8 active torsions:
REMARK  status: ('A' for Active; 'I' for Inactive)
REMARK    1  A    between atoms: C_2  and  N_3 
REMARK    2  A    between atoms: C_2  and  C_12 
REMARK    3  A    between atoms: N_3  and  C_4 
REMARK    4  A    between atoms: C_4  and  C_5 
REMARK    5  A    between atoms: C_5  and  C_6 
REMARK    6  A    between atoms: C_6  and  N_7 
REMARK    7  A    between atoms: N_7  and  S_8 
REMARK    8  A    between atoms: C_12  and  N_14 
ROOT
HETATM    1  C   UNL     1     -40.812 -54.192  12.720  1.00  0.00     0.045 C 
HETATM    2  C   UNL     1     -41.608 -53.594  13.892  1.00  0.00     0.240 C 
ENDROOT
BRANCH   2   3
HETATM    3  N   UNL     1     -41.796 -52.134  13.688  1.00  0.00     0.089 N 
HETATM    4  H   UNL     1     -41.103 -51.617  14.229  1.00  0.00     0.316 HD
BRANCH   3   5
HETATM    5  C   UNL     1     -41.733 -51.735  12.287  1.00  0.00     0.271 C 
BRANCH   5   6
HETATM    6  C   UNL     1     -41.549 -50.228  12.100  1.00  0.00     0.045 C 
BRANCH   6   7
HETATM    7  C   UNL     1     -40.152 -50.020  11.525  1.00  0.00     0.105 C 
BRANCH   7   8
HETATM    8  N   UNL     1     -39.290 -51.189  11.753  1.00  0.00    -0.220 NA
HETATM    9  H   UNL     1     -38.860 -51.582  10.912  1.00  0.00     0.139 HD
BRANCH   8  10
HETATM   10  S   UNL     1     -38.111 -51.000  12.945  1.00  0.00     0.205 S 
HETATM   11  O   UNL     1     -38.710 -51.457  14.179  1.00  0.00    -0.212 OA
HETATM   12  O   UNL     1     -36.882 -51.578  12.446  1.00  0.00    -0.212 OA
HETATM   13  C   UNL     1     -37.927 -49.225  13.018  1.00  0.00     0.179 C 
ENDBRANCH   8  10
ENDBRANCH   7   8
ENDBRANCH   6   7
ENDBRANCH   5   6
ENDBRANCH   3   5
ENDBRANCH   2   3
BRANCH   2  14
HETATM   14  C   UNL     1     -42.926 -54.387  14.194  1.00  0.00     0.136 C 
HETATM   15  C   UNL     1     -42.944 -55.004  15.598  1.00  0.00     0.036 C 
BRANCH  14  16
HETATM   16  N   UNL     1     -44.143 -53.592  14.001  1.00  0.00    -0.297 N 
HETATM   17  C   UNL     1     -44.831 -52.856  14.927  1.00  0.00     0.118 A 
HETATM   18  C   UNL     1     -45.905 -52.296  14.271  1.00  0.00    -0.028 A 
HETATM   19  C   UNL     1     -46.929 -51.379  14.815  1.00  0.00     0.051 C 
HETATM   20  C   UNL     1     -45.798 -52.795  12.955  1.00  0.00     0.115 A 
HETATM   21  N   UNL     1     -44.737 -53.588  12.786  1.00  0.00    -0.309 N 
ATOM     22  HN  UNL     1     -44.443 -54.075  11.939  1.00  0.00     0.186 HD
ENDBRANCH  14  16
ENDBRANCH   2  14
TORSDOF 8
ENDMDL
MODEL 8
REMARK VINA RESULT:      -5.1      2.953      3.654
REMARK  8 active torsions:
REMARK  status: ('A' for Active; 'I' for Inactive)
REMARK    1  A    between atoms: C_2  and  N_3 
REMARK    2  A    between atoms: C_2  and  C_12 
REMARK    3  A    between atoms: N_3  and  C_4 
REMARK    4  A    between atoms: C_4  and  C_5 
REMARK    5  A    between atoms: C_5  and  C_6 
REMARK    6  A    between atoms: C_6  and  N_7 
REMARK    7  A    between atoms: N_7  and  S_8 
REMARK    8  A    between atoms: C_12  and  N_14 
ROOT
HETATM    1  C   UNL     1     -39.015 -52.467  15.698  1.00  0.00     0.045 C 
HETATM    2  C   UNL     1     -39.889 -52.040  14.508  1.00  0.00     0.240 C 
ENDROOT
BRANCH   2   3
HETATM    3  N   UNL     1     -39.320 -50.825  13.867  1.00  0.00     0.089 N 
HETATM    4  H   UNL     1     -39.454 -50.018  14.475  1.00  0.00     0.316 HD
BRANCH   3   5
HETATM    5  C   UNL     1     -37.909 -50.962  13.524  1.00  0.00     0.271 C 
BRANCH   5   6
HETATM    6  C   UNL     1     -37.628 -50.732  12.038  1.00  0.00     0.045 C 
BRANCH   6   7
HETATM    7  C   UNL     1     -38.349 -49.447  11.645  1.00  0.00     0.105 C 
BRANCH   7   8
HETATM    8  N   UNL     1     -39.609 -49.724  10.942  1.00  0.00    -0.220 NA
HETATM    9  H   UNL     1     -39.767 -50.706  10.704  1.00  0.00     0.139 HD
BRANCH   8  10
HETATM   10  S   UNL     1     -40.998 -49.097  11.667  1.00  0.00     0.205 S 
HETATM   11  O   UNL     1     -41.846 -50.230  11.959  1.00  0.00    -0.212 OA
HETATM   12  O   UNL     1     -40.578 -48.183  12.709  1.00  0.00    -0.212 OA
HETATM   13  C   UNL     1     -41.729 -48.158  10.336  1.00  0.00     0.179 C 
ENDBRANCH   8  10
ENDBRANCH   7   8
ENDBRANCH   6   7
ENDBRANCH   5   6
ENDBRANCH   3   5
ENDBRANCH   2   3
BRANCH   2  14
HETATM   14  C   UNL     1     -40.185 -53.221  13.521  1.00  0.00     0.136 C 
HETATM   15  C   UNL     1     -39.448 -54.513  13.896  1.00  0.00     0.036 C 
BRANCH  14  16
HETATM   16  N   UNL     1     -41.614 -53.510  13.365  1.00  0.00    -0.297 N 
HETATM   17  C   UNL     1     -42.413 -54.287  14.158  1.00  0.00     0.118 A 
HETATM   18  C   UNL     1     -43.674 -54.256  13.604  1.00  0.00    -0.028 A 
HETATM   19  C   UNL     1     -44.907 -54.898  14.106  1.00  0.00     0.051 C 
HETATM   20  C   UNL     1     -43.518 -53.461  12.448  1.00  0.00     0.115 A 
HETATM   21  N   UNL     1     -42.270 -53.011  12.293  1.00  0.00    -0.309 N 
ATOM     22  HN  UNL     1     -41.899 -52.429  11.542  1.00  0.00     0.186 HD
ENDBRANCH  14  16
ENDBRANCH   2  14
TORSDOF 8
ENDMDL
MODEL 9
REMARK VINA RESULT:      -5.1      1.891      2.538
REMARK  8 active torsions:
REMARK  status: ('A' for Active; 'I' for Inactive)
REMARK    1  A    between atoms: C_2  and  N_3 
REMARK    2  A    between atoms: C_2  and  C_12 
REMARK    3  A    between atoms: N_3  and  C_4 
REMARK    4  A    between atoms: C_4  and  C_5 
REMARK    5  A    between atoms: C_5  and  C_6 
REMARK    6  A    between atoms: C_6  and  N_7 
REMARK    7  A    between atoms: N_7  and  S_8 
REMARK    8  A    between atoms: C_12  and  N_14 
ROOT
HETATM    1  C   UNL     1     -39.669 -54.263  13.884  1.00  0.00     0.045 C 
HETATM    2  C   UNL     1     -40.963 -53.581  13.409  1.00  0.00     0.240 C 
ENDROOT
BRANCH   2   3
HETATM    3  N   UNL     1     -40.885 -53.299  11.952  1.00  0.00     0.089 N 
HETATM    4  H   UNL     1     -41.496 -53.938  11.443  1.00  0.00     0.316 HD
BRANCH   3   5
HETATM    5  C   UNL     1     -41.213 -51.919  11.613  1.00  0.00     0.271 C 
BRANCH   5   6
HETATM    6  C   UNL     1     -40.498 -50.898  12.498  1.00  0.00     0.045 C 
BRANCH   6   7
HETATM    7  C   UNL     1     -40.017 -49.777  11.583  1.00  0.00     0.105 C 
BRANCH   7   8
HETATM    8  N   UNL     1     -40.964 -49.526  10.488  1.00  0.00    -0.220 NA
HETATM    9  H   UNL     1     -41.657 -50.263  10.335  1.00  0.00     0.139 HD
BRANCH   8  10
HETATM   10  S   UNL     1     -41.743 -48.030  10.531  1.00  0.00     0.205 S 
HETATM   11  O   UNL     1     -40.729 -47.057  10.869  1.00  0.00    -0.212 OA
HETATM   12  O   UNL     1     -42.530 -47.906   9.322  1.00  0.00    -0.212 OA
HETATM   13  C   UNL     1     -42.847 -48.218  11.922  1.00  0.00     0.179 C 
ENDBRANCH   8  10
ENDBRANCH   7   8
ENDBRANCH   6   7
ENDBRANCH   5   6
ENDBRANCH   3   5
ENDBRANCH   2   3
BRANCH   2  14
HETATM   14  C   UNL     1     -42.252 -54.352  13.857  1.00  0.00     0.136 C 
HETATM   15  C   UNL     1     -42.251 -54.703  15.350  1.00  0.00     0.036 C 
BRANCH  14  16
HETATM   16  N   UNL     1     -43.497 -53.651  13.527  1.00  0.00    -0.297 N 
HETATM   17  C   UNL     1     -44.184 -52.743  14.285  1.00  0.00     0.118 A 
HETATM   18  C   UNL     1     -45.291 -52.371  13.553  1.00  0.00    -0.028 A 
HETATM   19  C   UNL     1     -46.329 -51.380  13.909  1.00  0.00     0.051 C 
HETATM   20  C   UNL     1     -45.199 -53.149  12.379  1.00  0.00     0.115 A 
HETATM   21  N   UNL     1     -44.118 -53.933  12.360  1.00  0.00    -0.309 N 
ATOM     22  HN  UNL     1     -43.830 -54.591  11.635  1.00  0.00     0.186 HD
ENDBRANCH  14  16
ENDBRANCH   2  14
TORSDOF 8
ENDMDL
