MODEL 1
REMARK VINA RESULT:      -6.2      0.000      0.000
REMARK  4 active torsions:
REMARK  status: ('A' for Active; 'I' for Inactive)
REMARK    1  A    between atoms: C_2  and  C_3 
REMARK    2  A    between atoms: C_3  and  N_4 
REMARK    3  A    between atoms: C_3  and  C_17 
REMARK       I    between atoms: N_4  and  C_5 
REMARK       I    between atoms: C_5  and  N_7 
REMARK    4  A    between atoms: N_7  and  C_8 
ROOT
HETATM    1  N   UNL     1     -41.878 -49.286  10.901  1.00  0.00    -0.336 N 
HETATM    2  C   UNL     1     -41.917 -50.101  12.007  1.00  0.00     0.321 C 
HETATM    3  O   UNL     1     -42.137 -49.692  13.139  1.00  0.00    -0.247 OA
HETATM    4  N   UNL     1     -41.634 -51.410  11.687  1.00  0.00    -0.304 N 
HETATM    5  H   UNL     1     -42.041 -49.718  10.000  1.00  0.00     0.164 HD
HETATM    6  H   UNL     1     -40.833 -51.478  11.064  1.00  0.00     0.171 HD
ENDROOT
BRANCH   1   7
HETATM    7  C   UNL     1     -42.137 -47.842  10.990  1.00  0.00     0.114 C 
BRANCH   7   8
HETATM    8  C   UNL     1     -43.001 -47.342   9.809  1.00  0.00     0.023 C 
HETATM    9  C   UNL     1     -44.501 -47.491  10.008  1.00  0.00     0.007 C 
ENDBRANCH   7   8
BRANCH   7  10
HETATM   10  C   UNL     1     -40.784 -47.093  11.070  1.00  0.00     0.144 C 
HETATM   11  C   UNL     1     -40.351 -46.674  12.471  1.00  0.00     0.036 C 
HETATM   12  C   UNL     1     -39.722 -45.308  12.294  1.00  0.00     0.029 C 
HETATM   13  C   UNL     1     -39.791 -45.033  10.807  1.00  0.00     0.168 C 
HETATM   14  O   UNL     1     -40.820 -45.881  10.291  1.00  0.00    -0.384 OA
ENDBRANCH   7  10
ENDBRANCH   1   7
BRANCH   4  15
HETATM   15  C   UNL     1     -41.673 -52.442  12.618  1.00  0.00     0.111 A 
HETATM   16  C   UNL     1     -42.762 -53.161  12.966  1.00  0.00    -0.028 A 
HETATM   17  C   UNL     1     -44.141 -53.023  12.384  1.00  0.00     0.050 C 
HETATM   18  C   UNL     1     -42.639 -54.223  13.953  1.00  0.00     0.026 A 
HETATM   19  C   UNL     1     -41.459 -54.519  14.508  1.00  0.00     0.094 A 
HETATM   20  N   UNL     1     -40.318 -53.827  14.165  1.00  0.00    -0.327 N 
HETATM   21  C   UNL     1     -39.063 -54.136  14.827  1.00  0.00     0.159 C 
HETATM   22  C   UNL     1     -40.336 -52.779  13.247  1.00  0.00     0.274 A 
HETATM   23  O   UNL     1     -39.344 -52.116  12.936  1.00  0.00    -0.265 OA
ENDBRANCH   4  15
TORSDOF 4
ENDMDL
MODEL 2
REMARK VINA RESULT:      -6.1      1.802      2.735
REMARK  4 active torsions:
REMARK  status: ('A' for Active; 'I' for Inactive)
REMARK    1  A    between atoms: C_2  and  C_3 
REMARK    2  A    between atoms: C_3  and  N_4 
REMARK    3  A    between atoms: C_3  and  C_17 
REMARK       I    between atoms: N_4  and  C_5 
REMARK       I    between atoms: C_5  and  N_7 
REMARK    4  A    between atoms: N_7  and  C_8 
ROOT
HETATM    1  N   UNL     1     -41.882 -48.453  10.251  1.00  0.00    -0.336 N 
HETATM    2  C   UNL     1     -41.451 -49.099  11.386  1.00  0.00     0.321 C 
HETATM    3  O   UNL     1     -41.776 -48.765  12.517  1.00  0.00    -0.247 OA
HETATM    4  N   UNL     1     -40.584 -50.127  11.090  1.00  0.00    -0.304 N 
HETATM    5  H   UNL     1     -41.866 -48.975   9.385  1.00  0.00     0.164 HD
HETATM    6  H   UNL     1     -39.891 -49.844  10.402  1.00  0.00     0.171 HD
ENDROOT
BRANCH   1   7
HETATM    7  C   UNL     1     -42.808 -47.313  10.309  1.00  0.00     0.114 C 
BRANCH   7   8
HETATM    8  C   UNL     1     -43.919 -47.424   9.239  1.00  0.00     0.023 C 
HETATM    9  C   UNL     1     -43.426 -47.763   7.841  1.00  0.00     0.007 C 
ENDBRANCH   7   8
BRANCH   7  10
HETATM   10  C   UNL     1     -42.000 -46.001  10.164  1.00  0.00     0.144 C 
HETATM   11  C   UNL     1     -40.545 -46.076  10.615  1.00  0.00     0.036 C 
HETATM   12  C   UNL     1     -40.276 -44.749  11.294  1.00  0.00     0.029 C 
HETATM   13  C   UNL     1     -41.569 -43.973  11.164  1.00  0.00     0.168 C 
HETATM   14  O   UNL     1     -42.597 -44.940  10.937  1.00  0.00    -0.384 OA
ENDBRANCH   7  10
ENDBRANCH   1   7
BRANCH   4  15
HETATM   15  C   UNL     1     -40.058 -50.975  12.058  1.00  0.00     0.111 A 
HETATM   16  C   UNL     1     -38.895 -50.802  12.723  1.00  0.00    -0.028 A 
HETATM   17  C   UNL     1     -37.958 -49.635  12.585  1.00  0.00     0.050 C 
HETATM   18  C   UNL     1     -38.486 -51.777  13.722  1.00  0.00     0.026 A 
HETATM   19  C   UNL     1     -39.252 -52.833  14.015  1.00  0.00     0.094 A 
HETATM   20  N   UNL     1     -40.457 -53.036  13.378  1.00  0.00    -0.327 N 
HETATM   21  C   UNL     1     -41.238 -54.222  13.678  1.00  0.00     0.159 C 
HETATM   22  C   UNL     1     -40.926 -52.172  12.390  1.00  0.00     0.274 A 
HETATM   23  O   UNL     1     -41.983 -52.335  11.777  1.00  0.00    -0.265 OA
ENDBRANCH   4  15
TORSDOF 4
ENDMDL
MODEL 3
REMARK VINA RESULT:      -6.0      2.344      7.223
REMARK  4 active torsions:
REMARK  status: ('A' for Active; 'I' for Inactive)
REMARK    1  A    between atoms: C_2  and  C_3 
REMARK    2  A    between atoms: C_3  and  N_4 
REMARK    3  A    between atoms: C_3  and  C_17 
REMARK       I    between atoms: N_4  and  C_5 
REMARK       I    between atoms: C_5  and  N_7 
REMARK    4  A    between atoms: N_7  and  C_8 
ROOT
HETATM    1  N   UNL     1     -42.929 -51.792  12.466  1.00  0.00    -0.336 N 
HETATM    2  C   UNL     1     -42.430 -50.523  12.643  1.00  0.00     0.321 C 
HETATM    3  O   UNL     1     -42.410 -49.951  13.724  1.00  0.00    -0.247 OA
HETATM    4  N   UNL     1     -42.005 -49.971  11.455  1.00  0.00    -0.304 N 
HETATM    5  H   UNL     1     -42.601 -52.312  11.662  1.00  0.00     0.164 HD
HETATM    6  H   UNL     1     -42.678 -50.127  10.709  1.00  0.00     0.171 HD
ENDROOT
BRANCH   1   7
HETATM    7  C   UNL     1     -43.453 -52.585  13.587  1.00  0.00     0.114 C 
BRANCH   7   8
HETATM    8  C   UNL     1     -42.912 -54.033  13.565  1.00  0.00     0.023 C 
HETATM    9  C   UNL     1     -41.442 -54.159  13.199  1.00  0.00     0.007 C 
ENDBRANCH   7   8
BRANCH   7  10
HETATM   10  C   UNL     1     -45.001 -52.549  13.547  1.00  0.00     0.144 C 
HETATM   11  C   UNL     1     -45.639 -51.273  14.087  1.00  0.00     0.036 C 
HETATM   12  C   UNL     1     -46.871 -51.738  14.834  1.00  0.00     0.029 C 
HETATM   13  C   UNL     1     -46.897 -53.241  14.654  1.00  0.00     0.168 C 
HETATM   14  O   UNL     1     -45.561 -53.627  14.323  1.00  0.00    -0.384 OA
ENDBRANCH   7  10
ENDBRANCH   1   7
BRANCH   4  15
HETATM   15  C   UNL     1     -41.401 -48.722  11.376  1.00  0.00     0.111 A 
HETATM   16  C   UNL     1     -40.098 -48.450  11.610  1.00  0.00    -0.028 A 
HETATM   17  C   UNL     1     -39.031 -49.449  11.958  1.00  0.00     0.050 C 
HETATM   18  C   UNL     1     -39.612 -47.085  11.473  1.00  0.00     0.026 A 
HETATM   19  C   UNL     1     -40.426 -46.094  11.094  1.00  0.00     0.094 A 
HETATM   20  N   UNL     1     -41.756 -46.331  10.822  1.00  0.00    -0.327 N 
HETATM   21  C   UNL     1     -42.626 -45.224  10.468  1.00  0.00     0.159 C 
HETATM   22  C   UNL     1     -42.323 -47.598  10.947  1.00  0.00     0.274 A 
HETATM   23  O   UNL     1     -43.513 -47.845  10.742  1.00  0.00    -0.265 OA
ENDBRANCH   4  15
TORSDOF 4
ENDMDL
MODEL 4
REMARK VINA RESULT:      -6.0      2.196      3.203
REMARK  4 active torsions:
REMARK  status: ('A' for Active; 'I' for Inactive)
REMARK    1  A    between atoms: C_2  and  C_3 
REMARK    2  A    between atoms: C_3  and  N_4 
REMARK    3  A    between atoms: C_3  and  C_17 
REMARK       I    between atoms: N_4  and  C_5 
REMARK       I    between atoms: C_5  and  N_7 
REMARK    4  A    between atoms: N_7  and  C_8 
ROOT
HETATM    1  N   UNL     1     -41.617 -50.292  11.406  1.00  0.00    -0.336 N 
HETATM    2  C   UNL     1     -41.960 -51.044  12.504  1.00  0.00     0.321 C 
HETATM    3  O   UNL     1     -42.150 -50.567  13.615  1.00  0.00    -0.247 OA
HETATM    4  N   UNL     1     -42.016 -52.387  12.207  1.00  0.00    -0.304 N 
HETATM    5  H   UNL     1     -41.819 -50.683  10.494  1.00  0.00     0.164 HD
HETATM    6  H   UNL     1     -41.216 -52.680  11.651  1.00  0.00     0.171 HD
ENDROOT
BRANCH   1   7
HETATM    7  C   UNL     1     -41.483 -48.830  11.474  1.00  0.00     0.114 C 
BRANCH   7   8
HETATM    8  C   UNL     1     -41.977 -48.150  10.176  1.00  0.00     0.023 C 
HETATM    9  C   UNL     1     -43.356 -47.517  10.273  1.00  0.00     0.007 C 
ENDBRANCH   7   8
BRANCH   7  10
HETATM   10  C   UNL     1     -40.009 -48.474  11.785  1.00  0.00     0.144 C 
HETATM   11  C   UNL     1     -38.991 -49.563  11.460  1.00  0.00     0.036 C 
HETATM   12  C   UNL     1     -37.981 -49.503  12.587  1.00  0.00     0.029 C 
HETATM   13  C   UNL     1     -38.447 -48.366  13.472  1.00  0.00     0.168 C 
HETATM   14  O   UNL     1     -39.834 -48.177  13.184  1.00  0.00    -0.384 OA
ENDBRANCH   7  10
ENDBRANCH   1   7
BRANCH   4  15
HETATM   15  C   UNL     1     -42.404 -53.350  13.132  1.00  0.00     0.111 A 
HETATM   16  C   UNL     1     -41.622 -53.900  14.087  1.00  0.00    -0.028 A 
HETATM   17  C   UNL     1     -40.190 -53.548  14.373  1.00  0.00     0.050 C 
HETATM   18  C   UNL     1     -42.182 -54.893  14.991  1.00  0.00     0.026 A 
HETATM   19  C   UNL     1     -43.466 -55.257  14.912  1.00  0.00     0.094 A 
HETATM   20  N   UNL     1     -44.305 -54.705  13.969  1.00  0.00    -0.327 N 
HETATM   21  C   UNL     1     -45.679 -55.163  13.873  1.00  0.00     0.159 C 
HETATM   22  C   UNL     1     -43.859 -53.764  13.043  1.00  0.00     0.274 A 
HETATM   23  O   UNL     1     -44.570 -53.269  12.165  1.00  0.00    -0.265 OA
ENDBRANCH   4  15
TORSDOF 4
ENDMDL
MODEL 5
REMARK VINA RESULT:      -6.0      2.073      3.550
REMARK  4 active torsions:
REMARK  status: ('A' for Active; 'I' for Inactive)
REMARK    1  A    between atoms: C_2  and  C_3 
REMARK    2  A    between atoms: C_3  and  N_4 
REMARK    3  A    between atoms: C_3  and  C_17 
REMARK       I    between atoms: N_4  and  C_5 
REMARK       I    between atoms: C_5  and  N_7 
REMARK    4  A    between atoms: N_7  and  C_8 
ROOT
HETATM    1  N   UNL     1     -40.824 -50.894  11.058  1.00  0.00    -0.336 N 
HETATM    2  C   UNL     1     -41.272 -51.473  12.221  1.00  0.00     0.321 C 
HETATM    3  O   UNL     1     -41.397 -50.864  13.274  1.00  0.00    -0.247 OA
HETATM    4  N   UNL     1     -41.515 -52.819  12.060  1.00  0.00    -0.304 N 
HETATM    5  H   UNL     1     -41.075 -51.344  10.188  1.00  0.00     0.164 HD
HETATM    6  H   UNL     1     -40.763 -53.276  11.551  1.00  0.00     0.171 HD
ENDROOT
BRANCH   1   7
HETATM    7  C   UNL     1     -40.487 -49.465  10.981  1.00  0.00     0.114 C 
BRANCH   7   8
HETATM    8  C   UNL     1     -39.351 -49.092  11.961  1.00  0.00     0.023 C 
HETATM    9  C   UNL     1     -37.987 -49.660  11.603  1.00  0.00     0.007 C 
ENDBRANCH   7   8
BRANCH   7  10
HETATM   10  C   UNL     1     -41.766 -48.632  11.240  1.00  0.00     0.144 C 
HETATM   11  C   UNL     1     -42.329 -47.903  10.024  1.00  0.00     0.036 C 
HETATM   12  C   UNL     1     -42.806 -46.568  10.554  1.00  0.00     0.029 C 
HETATM   13  C   UNL     1     -42.529 -46.614  12.042  1.00  0.00     0.168 C 
HETATM   14  O   UNL     1     -41.526 -47.614  12.232  1.00  0.00    -0.384 OA
ENDBRANCH   7  10
ENDBRANCH   1   7
BRANCH   4  15
HETATM   15  C   UNL     1     -42.038 -53.619  13.070  1.00  0.00     0.111 A 
HETATM   16  C   UNL     1     -41.341 -54.188  14.078  1.00  0.00    -0.028 A 
HETATM   17  C   UNL     1     -39.869 -54.032  14.338  1.00  0.00     0.050 C 
HETATM   18  C   UNL     1     -42.037 -54.993  15.070  1.00  0.00     0.026 A 
HETATM   19  C   UNL     1     -43.363 -55.163  15.018  1.00  0.00     0.094 A 
HETATM   20  N   UNL     1     -44.116 -54.582  14.021  1.00  0.00    -0.327 N 
HETATM   21  C   UNL     1     -45.545 -54.833  13.960  1.00  0.00     0.159 C 
HETATM   22  C   UNL     1     -43.540 -53.813  13.012  1.00  0.00     0.274 A 
HETATM   23  O   UNL     1     -44.174 -53.301  12.087  1.00  0.00    -0.265 OA
ENDBRANCH   4  15
TORSDOF 4
ENDMDL
MODEL 6
REMARK VINA RESULT:      -5.7      1.871      6.950
REMARK  4 active torsions:
REMARK  status: ('A' for Active; 'I' for Inactive)
REMARK    1  A    between atoms: C_2  and  C_3 
REMARK    2  A    between atoms: C_3  and  N_4 
REMARK    3  A    between atoms: C_3  and  C_17 
REMARK       I    between atoms: N_4  and  C_5 
REMARK       I    between atoms: C_5  and  N_7 
REMARK    4  A    between atoms: N_7  and  C_8 
ROOT
HETATM    1  N   UNL     1     -42.685 -51.077  12.633  1.00  0.00    -0.336 N 
HETATM    2  C   UNL     1     -42.737 -49.712  12.484  1.00  0.00     0.321 C 
HETATM    3  O   UNL     1     -43.049 -48.946  13.385  1.00  0.00    -0.247 OA
HETATM    4  N   UNL     1     -42.441 -49.328  11.195  1.00  0.00    -0.304 N 
HETATM    5  H   UNL     1     -42.102 -51.593  11.987  1.00  0.00     0.164 HD
HETATM    6  H   UNL     1     -42.923 -49.908  10.512  1.00  0.00     0.171 HD
ENDROOT
BRANCH   1   7
HETATM    7  C   UNL     1     -42.972 -51.730  13.918  1.00  0.00     0.114 C 
BRANCH   7   8
HETATM    8  C   UNL     1     -42.005 -52.905  14.192  1.00  0.00     0.023 C 
HETATM    9  C   UNL     1     -41.428 -53.559  12.946  1.00  0.00     0.007 C 
ENDBRANCH   7   8
BRANCH   7  10
HETATM   10  C   UNL     1     -44.451 -52.189  13.930  1.00  0.00     0.144 C 
HETATM   11  C   UNL     1     -45.021 -52.592  12.573  1.00  0.00     0.036 C 
HETATM   12  C   UNL     1     -46.441 -52.069  12.574  1.00  0.00     0.029 C 
HETATM   13  C   UNL     1     -46.624 -51.432  13.935  1.00  0.00     0.168 C 
HETATM   14  O   UNL     1     -45.312 -51.144  14.422  1.00  0.00    -0.384 OA
ENDBRANCH   7  10
ENDBRANCH   1   7
BRANCH   4  15
HETATM   15  C   UNL     1     -42.362 -47.996  10.802  1.00  0.00     0.111 A 
HETATM   16  C   UNL     1     -43.365 -47.259  10.276  1.00  0.00    -0.028 A 
HETATM   17  C   UNL     1     -44.780 -47.715  10.054  1.00  0.00     0.050 C 
HETATM   18  C   UNL     1     -43.128 -45.868   9.924  1.00  0.00     0.026 A 
HETATM   19  C   UNL     1     -41.939 -45.293  10.134  1.00  0.00     0.094 A 
HETATM   20  N   UNL     1     -40.895 -46.000  10.690  1.00  0.00    -0.327 N 
HETATM   21  C   UNL     1     -39.600 -45.364  10.852  1.00  0.00     0.159 C 
HETATM   22  C   UNL     1     -41.015 -47.344  11.039  1.00  0.00     0.274 A 
HETATM   23  O   UNL     1     -40.097 -48.019  11.510  1.00  0.00    -0.265 OA
ENDBRANCH   4  15
TORSDOF 4
ENDMDL
MODEL 7
REMARK VINA RESULT:      -5.5      2.691      3.472
REMARK  4 active torsions:
REMARK  status: ('A' for Active; 'I' for Inactive)
REMARK    1  A    between atoms: C_2  and  C_3 
REMARK    2  A    between atoms: C_3  and  N_4 
REMARK    3  A    between atoms: C_3  and  C_17 
REMARK       I    between atoms: N_4  and  C_5 
REMARK       I    between atoms: C_5  and  N_7 
REMARK    4  A    between atoms: N_7  and  C_8 
ROOT
HETATM    1  N   UNL     1     -42.342 -49.888  11.776  1.00  0.00    -0.336 N 
HETATM    2  C   UNL     1     -43.185 -50.191  12.818  1.00  0.00     0.321 C 
HETATM    3  O   UNL     1     -43.488 -49.393  13.695  1.00  0.00    -0.247 OA
HETATM    4  N   UNL     1     -43.600 -51.504  12.774  1.00  0.00    -0.304 N 
HETATM    5  H   UNL     1     -42.418 -50.451  10.938  1.00  0.00     0.164 HD
HETATM    6  H   UNL     1     -42.827 -52.134  12.578  1.00  0.00     0.171 HD
ENDROOT
BRANCH   1   7
HETATM    7  C   UNL     1     -41.758 -48.549  11.612  1.00  0.00     0.114 C 
BRANCH   7   8
HETATM    8  C   UNL     1     -42.100 -47.941  10.232  1.00  0.00     0.023 C 
HETATM    9  C   UNL     1     -43.540 -47.479  10.077  1.00  0.00     0.007 C 
ENDBRANCH   7   8
BRANCH   7  10
HETATM   10  C   UNL     1     -40.229 -48.636  11.839  1.00  0.00     0.144 C 
HETATM   11  C   UNL     1     -39.583 -49.958  11.436  1.00  0.00     0.036 C 
HETATM   12  C   UNL     1     -38.540 -50.225  12.500  1.00  0.00     0.029 C 
HETATM   13  C   UNL     1     -38.614 -49.033  13.430  1.00  0.00     0.168 C 
HETATM   14  O   UNL     1     -39.903 -48.448  13.230  1.00  0.00    -0.384 OA
ENDBRANCH   7  10
ENDBRANCH   1   7
BRANCH   4  15
HETATM   15  C   UNL     1     -44.509 -52.040  13.680  1.00  0.00     0.111 A 
HETATM   16  C   UNL     1     -45.854 -52.049  13.550  1.00  0.00    -0.028 A 
HETATM   17  C   UNL     1     -46.636 -51.523  12.380  1.00  0.00     0.050 C 
HETATM   18  C   UNL     1     -46.672 -52.663  14.584  1.00  0.00     0.026 A 
HETATM   19  C   UNL     1     -46.118 -53.244  15.653  1.00  0.00     0.094 A 
HETATM   20  N   UNL     1     -44.750 -53.279  15.815  1.00  0.00    -0.327 N 
HETATM   21  C   UNL     1     -44.182 -53.866  17.015  1.00  0.00     0.159 C 
HETATM   22  C   UNL     1     -43.881 -52.698  14.892  1.00  0.00     0.274 A 
HETATM   23  O   UNL     1     -42.655 -52.682  15.015  1.00  0.00    -0.265 OA
ENDBRANCH   4  15
TORSDOF 4
ENDMDL
MODEL 8
REMARK VINA RESULT:      -5.5      2.527      6.088
REMARK  4 active torsions:
REMARK  status: ('A' for Active; 'I' for Inactive)
REMARK    1  A    between atoms: C_2  and  C_3 
REMARK    2  A    between atoms: C_3  and  N_4 
REMARK    3  A    between atoms: C_3  and  C_17 
REMARK       I    between atoms: N_4  and  C_5 
REMARK       I    between atoms: C_5  and  N_7 
REMARK    4  A    between atoms: N_7  and  C_8 
ROOT
HETATM    1  N   UNL     1     -43.444 -52.857  11.951  1.00  0.00    -0.336 N 
HETATM    2  C   UNL     1     -42.682 -51.815  12.423  1.00  0.00     0.321 C 
HETATM    3  O   UNL     1     -42.969 -51.167  13.419  1.00  0.00    -0.247 OA
HETATM    4  N   UNL     1     -41.594 -51.571  11.614  1.00  0.00    -0.304 N 
HETATM    5  H   UNL     1     -42.983 -53.542  11.366  1.00  0.00     0.164 HD
HETATM    6  H   UNL     1     -41.852 -51.575  10.630  1.00  0.00     0.171 HD
ENDROOT
BRANCH   1   7
HETATM    7  C   UNL     1     -44.665 -53.302  12.639  1.00  0.00     0.114 C 
BRANCH   7   8
HETATM    8  C   UNL     1     -45.512 -52.105  13.131  1.00  0.00     0.023 C 
HETATM    9  C   UNL     1     -46.708 -51.768  12.254  1.00  0.00     0.007 C 
ENDBRANCH   7   8
BRANCH   7  10
HETATM   10  C   UNL     1     -44.271 -54.244  13.803  1.00  0.00     0.144 C 
HETATM   11  C   UNL     1     -44.568 -53.714  15.202  1.00  0.00     0.036 C 
HETATM   12  C   UNL     1     -43.391 -54.153  16.046  1.00  0.00     0.029 C 
HETATM   13  C   UNL     1     -42.505 -54.940  15.104  1.00  0.00     0.168 C 
HETATM   14  O   UNL     1     -42.858 -54.526  13.782  1.00  0.00    -0.384 OA
ENDBRANCH   7  10
ENDBRANCH   1   7
BRANCH   4  15
HETATM   15  C   UNL     1     -40.634 -50.610  11.908  1.00  0.00     0.111 A 
HETATM   16  C   UNL     1     -40.683 -49.303  11.572  1.00  0.00    -0.028 A 
HETATM   17  C   UNL     1     -41.808 -48.614  10.852  1.00  0.00     0.050 C 
HETATM   18  C   UNL     1     -39.599 -48.417  11.966  1.00  0.00     0.026 A 
HETATM   19  C   UNL     1     -38.561 -48.866  12.679  1.00  0.00     0.094 A 
HETATM   20  N   UNL     1     -38.481 -50.187  13.064  1.00  0.00    -0.327 N 
HETATM   21  C   UNL     1     -37.313 -50.655  13.789  1.00  0.00     0.159 C 
HETATM   22  C   UNL     1     -39.456 -51.119  12.717  1.00  0.00     0.274 A 
HETATM   23  O   UNL     1     -39.407 -52.314  13.016  1.00  0.00    -0.265 OA
ENDBRANCH   4  15
TORSDOF 4
ENDMDL
MODEL 9
REMARK VINA RESULT:      -5.2      2.167      6.913
REMARK  4 active torsions:
REMARK  status: ('A' for Active; 'I' for Inactive)
REMARK    1  A    between atoms: C_2  and  C_3 
REMARK    2  A    between atoms: C_3  and  N_4 
REMARK    3  A    between atoms: C_3  and  C_17 
REMARK       I    between atoms: N_4  and  C_5 
REMARK       I    between atoms: C_5  and  N_7 
REMARK    4  A    between atoms: N_7  and  C_8 
ROOT
HETATM    1  N   UNL     1     -43.422 -52.149  12.475  1.00  0.00    -0.336 N 
HETATM    2  C   UNL     1     -42.732 -50.987  12.731  1.00  0.00     0.321 C 
HETATM    3  O   UNL     1     -42.807 -50.378  13.789  1.00  0.00    -0.247 OA
HETATM    4  N   UNL     1     -41.993 -50.581  11.642  1.00  0.00    -0.304 N 
HETATM    5  H   UNL     1     -43.054 -52.758  11.756  1.00  0.00     0.164 HD
HETATM    6  H   UNL     1     -42.531 -50.645  10.781  1.00  0.00     0.171 HD
ENDROOT
BRANCH   1   7
HETATM    7  C   UNL     1     -44.290 -52.776  13.481  1.00  0.00     0.114 C 
BRANCH   7   8
HETATM    8  C   UNL     1     -45.404 -51.814  13.955  1.00  0.00     0.023 C 
HETATM    9  C   UNL     1     -46.517 -51.581  12.945  1.00  0.00     0.007 C 
ENDBRANCH   7   8
BRANCH   7  10
HETATM   10  C   UNL     1     -43.417 -53.268  14.661  1.00  0.00     0.144 C 
HETATM   11  C   UNL     1     -42.593 -54.523  14.386  1.00  0.00     0.036 C 
HETATM   12  C   UNL     1     -42.651 -55.319  15.673  1.00  0.00     0.029 C 
HETATM   13  C   UNL     1     -43.465 -54.469  16.625  1.00  0.00     0.168 C 
HETATM   14  O   UNL     1     -44.230 -53.576  15.811  1.00  0.00    -0.384 OA
ENDBRANCH   7  10
ENDBRANCH   1   7
BRANCH   4  15
HETATM   15  C   UNL     1     -41.157 -49.471  11.667  1.00  0.00     0.111 A 
HETATM   16  C   UNL     1     -39.890 -49.437  12.136  1.00  0.00    -0.028 A 
HETATM   17  C   UNL     1     -39.114 -50.603  12.682  1.00  0.00     0.050 C 
HETATM   18  C   UNL     1     -39.136 -48.195  12.082  1.00  0.00     0.026 A 
HETATM   19  C   UNL     1     -39.663 -47.086  11.552  1.00  0.00     0.094 A 
HETATM   20  N   UNL     1     -40.942 -47.081  11.041  1.00  0.00    -0.327 N 
HETATM   21  C   UNL     1     -41.506 -45.847  10.525  1.00  0.00     0.159 C 
HETATM   22  C   UNL     1     -41.754 -48.214  11.067  1.00  0.00     0.274 A 
HETATM   23  O   UNL     1     -42.913 -48.243  10.647  1.00  0.00    -0.265 OA
ENDBRANCH   4  15
TORSDOF 4
ENDMDL
