MODEL 1
REMARK VINA RESULT:      -6.6      0.000      0.000
REMARK  4 active torsions:
REMARK  status: ('A' for Active; 'I' for Inactive)
REMARK    1  A    between atoms: N_11  and  C_12 
REMARK    2  A    between atoms: C_12  and  C_13 
REMARK    3  A    between atoms: C_13  and  O_14 
REMARK    4  A    between atoms: C_13  and  C_15 
ROOT
HETATM    1  C   UNL     1     -37.729 -50.727  12.132  1.00  0.00     0.089 C 
HETATM    2  C   UNL     1     -38.980 -49.941  11.968  1.00  0.00     0.080 A 
HETATM    3  N   UNL     1     -39.058 -48.767  11.378  1.00  0.00    -0.344 N 
ATOM      4  HN  UNL     1     -38.293 -48.237  10.960  1.00  0.00     0.167 HD
HETATM    5  C   UNL     1     -40.378 -48.403  11.439  1.00  0.00     0.060 A 
HETATM    6  C   UNL     1     -41.003 -47.246  10.952  1.00  0.00     0.032 A 
HETATM    7  C   UNL     1     -42.382 -47.095  11.135  1.00  0.00     0.002 A 
HETATM    8  C   UNL     1     -43.124 -48.080  11.792  1.00  0.00     0.002 A 
HETATM    9  C   UNL     1     -42.516 -49.242  12.279  1.00  0.00     0.032 A 
HETATM   10  C   UNL     1     -41.135 -49.377  12.084  1.00  0.00     0.062 A 
HETATM   11  N   UNL     1     -40.217 -50.354  12.407  1.00  0.00    -0.332 N 
ENDROOT
BRANCH  11  12
HETATM   12  C   UNL     1     -40.530 -51.638  13.019  1.00  0.00     0.167 C 
BRANCH  12  13
HETATM   13  C   UNL     1     -41.373 -52.555  12.116  1.00  0.00     0.169 C 
BRANCH  13  14
HETATM   14  O   UNL     1     -40.534 -53.482  11.424  1.00  0.00    -0.389 OA
HETATM   15  H   UNL     1     -39.615 -53.307  11.683  1.00  0.00     0.210 HD
ENDBRANCH  13  14
BRANCH  13  16
HETATM   16  C   UNL     1     -42.441 -53.359  12.842  1.00  0.00    -0.028 A 
HETATM   17  C   UNL     1     -42.069 -54.102  13.977  1.00  0.00     0.010 A 
HETATM   18  C   UNL     1     -43.009 -54.849  14.691  1.00  0.00     0.001 A 
HETATM   19  C   UNL     1     -44.343 -54.854  14.289  1.00  0.00     0.000 A 
HETATM   20  C   UNL     1     -44.734 -54.109  13.181  1.00  0.00     0.001 A 
HETATM   21  C   UNL     1     -43.793 -53.362  12.465  1.00  0.00     0.010 A 
ENDBRANCH  13  16
ENDBRANCH  12  13
ENDBRANCH  11  12
TORSDOF 4
ENDMDL
MODEL 2
REMARK VINA RESULT:      -6.2      2.714      5.268
REMARK  4 active torsions:
REMARK  status: ('A' for Active; 'I' for Inactive)
REMARK    1  A    between atoms: N_11  and  C_12 
REMARK    2  A    between atoms: C_12  and  C_13 
REMARK    3  A    between atoms: C_13  and  O_14 
REMARK    4  A    between atoms: C_13  and  C_15 
ROOT
HETATM    1  C   UNL     1     -39.298 -51.281  12.956  1.00  0.00     0.089 C 
HETATM    2  C   UNL     1     -40.114 -52.329  13.622  1.00  0.00     0.080 A 
HETATM    3  N   UNL     1     -39.675 -53.137  14.565  1.00  0.00    -0.344 N 
ATOM      4  HN  UNL     1     -38.737 -53.163  14.964  1.00  0.00     0.167 HD
HETATM    5  C   UNL     1     -40.738 -53.935  14.901  1.00  0.00     0.060 A 
HETATM    6  C   UNL     1     -40.812 -54.959  15.856  1.00  0.00     0.032 A 
HETATM    7  C   UNL     1     -42.022 -55.642  16.022  1.00  0.00     0.002 A 
HETATM    8  C   UNL     1     -43.138 -55.310  15.249  1.00  0.00     0.002 A 
HETATM    9  C   UNL     1     -43.081 -54.288  14.295  1.00  0.00     0.032 A 
HETATM   10  C   UNL     1     -41.862 -53.613  14.146  1.00  0.00     0.062 A 
HETATM   11  N   UNL     1     -41.438 -52.578  13.339  1.00  0.00    -0.332 N 
ENDROOT
BRANCH  11  12
HETATM   12  C   UNL     1     -42.278 -51.822  12.421  1.00  0.00     0.167 C 
BRANCH  12  13
HETATM   13  C   UNL     1     -42.936 -50.591  13.069  1.00  0.00     0.169 C 
BRANCH  13  14
HETATM   14  O   UNL     1     -43.176 -49.579  12.089  1.00  0.00    -0.389 OA
HETATM   15  H   UNL     1     -44.023 -49.153  12.298  1.00  0.00     0.210 HD
ENDBRANCH  13  14
BRANCH  13  16
HETATM   16  C   UNL     1     -44.256 -50.869  13.772  1.00  0.00    -0.028 A 
HETATM   17  C   UNL     1     -45.346 -51.317  13.006  1.00  0.00     0.010 A 
HETATM   18  C   UNL     1     -46.580 -51.600  13.599  1.00  0.00     0.001 A 
HETATM   19  C   UNL     1     -46.739 -51.451  14.974  1.00  0.00     0.000 A 
HETATM   20  C   UNL     1     -45.667 -51.028  15.753  1.00  0.00     0.001 A 
HETATM   21  C   UNL     1     -44.432 -50.744  15.159  1.00  0.00     0.010 A 
ENDBRANCH  13  16
ENDBRANCH  12  13
ENDBRANCH  11  12
TORSDOF 4
ENDMDL
MODEL 3
REMARK VINA RESULT:      -6.1      2.575      4.027
REMARK  4 active torsions:
REMARK  status: ('A' for Active; 'I' for Inactive)
REMARK    1  A    between atoms: N_11  and  C_12 
REMARK    2  A    between atoms: C_12  and  C_13 
REMARK    3  A    between atoms: C_13  and  O_14 
REMARK    4  A    between atoms: C_13  and  C_15 
ROOT
HETATM    1  C   UNL     1     -41.300 -53.863  14.505  1.00  0.00     0.089 C 
HETATM    2  C   UNL     1     -40.480 -52.804  13.860  1.00  0.00     0.080 A 
HETATM    3  N   UNL     1     -39.179 -52.667  14.008  1.00  0.00    -0.344 N 
ATOM      4  HN  UNL     1     -38.560 -53.249  14.572  1.00  0.00     0.167 HD
HETATM    5  C   UNL     1     -38.827 -51.582  13.247  1.00  0.00     0.060 A 
HETATM    6  C   UNL     1     -37.562 -51.012  13.046  1.00  0.00     0.032 A 
HETATM    7  C   UNL     1     -37.450 -49.892  12.214  1.00  0.00     0.002 A 
HETATM    8  C   UNL     1     -38.579 -49.352  11.593  1.00  0.00     0.002 A 
HETATM    9  C   UNL     1     -39.847 -49.912  11.780  1.00  0.00     0.032 A 
HETATM   10  C   UNL     1     -39.939 -51.034  12.614  1.00  0.00     0.062 A 
HETATM   11  N   UNL     1     -40.984 -51.839  13.018  1.00  0.00    -0.332 N 
ENDROOT
BRANCH  11  12
HETATM   12  C   UNL     1     -42.360 -51.736  12.553  1.00  0.00     0.167 C 
BRANCH  12  13
HETATM   13  C   UNL     1     -43.117 -50.535  13.147  1.00  0.00     0.169 C 
BRANCH  13  14
HETATM   14  O   UNL     1     -43.389 -49.565  12.134  1.00  0.00    -0.389 OA
HETATM   15  H   UNL     1     -44.057 -49.936  11.535  1.00  0.00     0.210 HD
ENDBRANCH  13  14
BRANCH  13  16
HETATM   16  C   UNL     1     -44.438 -50.882  13.816  1.00  0.00    -0.028 A 
HETATM   17  C   UNL     1     -44.545 -50.739  15.211  1.00  0.00     0.010 A 
HETATM   18  C   UNL     1     -45.737 -51.031  15.878  1.00  0.00     0.001 A 
HETATM   19  C   UNL     1     -46.849 -51.459  15.158  1.00  0.00     0.000 A 
HETATM   20  C   UNL     1     -46.770 -51.589  13.775  1.00  0.00     0.001 A 
HETATM   21  C   UNL     1     -45.576 -51.298  13.107  1.00  0.00     0.010 A 
ENDBRANCH  13  16
ENDBRANCH  12  13
ENDBRANCH  11  12
TORSDOF 4
ENDMDL
MODEL 4
REMARK VINA RESULT:      -6.1      2.306      6.033
REMARK  4 active torsions:
REMARK  status: ('A' for Active; 'I' for Inactive)
REMARK    1  A    between atoms: N_11  and  C_12 
REMARK    2  A    between atoms: C_12  and  C_13 
REMARK    3  A    between atoms: C_13  and  O_14 
REMARK    4  A    between atoms: C_13  and  C_15 
ROOT
HETATM    1  C   UNL     1     -42.923 -49.481  13.917  1.00  0.00     0.089 C 
HETATM    2  C   UNL     1     -43.623 -50.790  13.985  1.00  0.00     0.080 A 
HETATM    3  N   UNL     1     -44.630 -51.063  14.788  1.00  0.00    -0.344 N 
ATOM      4  HN  UNL     1     -45.064 -50.435  15.464  1.00  0.00     0.167 HD
HETATM    5  C   UNL     1     -44.975 -52.363  14.529  1.00  0.00     0.060 A 
HETATM    6  C   UNL     1     -45.990 -53.144  15.102  1.00  0.00     0.032 A 
HETATM    7  C   UNL     1     -46.153 -54.465  14.669  1.00  0.00     0.002 A 
HETATM    8  C   UNL     1     -45.320 -54.997  13.681  1.00  0.00     0.002 A 
HETATM    9  C   UNL     1     -44.307 -54.230  13.096  1.00  0.00     0.032 A 
HETATM   10  C   UNL     1     -44.161 -52.909  13.540  1.00  0.00     0.062 A 
HETATM   11  N   UNL     1     -43.307 -51.879  13.205  1.00  0.00    -0.332 N 
ENDROOT
BRANCH  11  12
HETATM   12  C   UNL     1     -42.314 -51.917  12.141  1.00  0.00     0.167 C 
BRANCH  12  13
HETATM   13  C   UNL     1     -40.950 -52.463  12.599  1.00  0.00     0.169 C 
BRANCH  13  14
HETATM   14  O   UNL     1     -40.515 -53.511  11.732  1.00  0.00    -0.389 OA
HETATM   15  H   UNL     1     -40.507 -54.338  12.241  1.00  0.00     0.210 HD
ENDBRANCH  13  14
BRANCH  13  16
HETATM   16  C   UNL     1     -39.836 -51.428  12.660  1.00  0.00    -0.028 A 
HETATM   17  C   UNL     1     -39.930 -50.289  11.840  1.00  0.00     0.010 A 
HETATM   18  C   UNL     1     -38.944 -49.300  11.862  1.00  0.00     0.001 A 
HETATM   19  C   UNL     1     -37.852 -49.426  12.716  1.00  0.00     0.000 A 
HETATM   20  C   UNL     1     -37.750 -50.536  13.550  1.00  0.00     0.001 A 
HETATM   21  C   UNL     1     -38.737 -51.527  13.528  1.00  0.00     0.010 A 
ENDBRANCH  13  16
ENDBRANCH  12  13
ENDBRANCH  11  12
TORSDOF 4
ENDMDL
MODEL 5
REMARK VINA RESULT:      -6.0      3.069      4.495
REMARK  4 active torsions:
REMARK  status: ('A' for Active; 'I' for Inactive)
REMARK    1  A    between atoms: N_11  and  C_12 
REMARK    2  A    between atoms: C_12  and  C_13 
REMARK    3  A    between atoms: C_13  and  O_14 
REMARK    4  A    between atoms: C_13  and  C_15 
ROOT
HETATM    1  C   UNL     1     -40.947 -50.789  15.547  1.00  0.00     0.089 C 
HETATM    2  C   UNL     1     -42.366 -51.004  15.160  1.00  0.00     0.080 A 
HETATM    3  N   UNL     1     -43.399 -50.797  15.949  1.00  0.00    -0.344 N 
ATOM      4  HN  UNL     1     -43.379 -50.469  16.914  1.00  0.00     0.167 HD
HETATM    5  C   UNL     1     -44.508 -51.110  15.206  1.00  0.00     0.060 A 
HETATM    6  C   UNL     1     -45.862 -51.057  15.566  1.00  0.00     0.032 A 
HETATM    7  C   UNL     1     -46.827 -51.430  14.624  1.00  0.00     0.002 A 
HETATM    8  C   UNL     1     -46.448 -51.849  13.346  1.00  0.00     0.002 A 
HETATM    9  C   UNL     1     -45.102 -51.903  12.970  1.00  0.00     0.032 A 
HETATM   10  C   UNL     1     -44.150 -51.522  13.925  1.00  0.00     0.062 A 
HETATM   11  N   UNL     1     -42.774 -51.440  13.920  1.00  0.00    -0.332 N 
ENDROOT
BRANCH  11  12
HETATM   12  C   UNL     1     -41.917 -51.680  12.767  1.00  0.00     0.167 C 
BRANCH  12  13
HETATM   13  C   UNL     1     -41.630 -53.172  12.521  1.00  0.00     0.169 C 
BRANCH  13  14
HETATM   14  O   UNL     1     -40.688 -53.330  11.458  1.00  0.00    -0.389 OA
HETATM   15  H   UNL     1     -41.086 -52.971  10.648  1.00  0.00     0.210 HD
ENDBRANCH  13  14
BRANCH  13  16
HETATM   16  C   UNL     1     -41.089 -53.925  13.727  1.00  0.00    -0.028 A 
HETATM   17  C   UNL     1     -39.697 -53.978  13.919  1.00  0.00     0.010 A 
HETATM   18  C   UNL     1     -39.144 -54.645  15.015  1.00  0.00     0.001 A 
HETATM   19  C   UNL     1     -39.977 -55.261  15.946  1.00  0.00     0.000 A 
HETATM   20  C   UNL     1     -41.358 -55.204  15.784  1.00  0.00     0.001 A 
HETATM   21  C   UNL     1     -41.912 -54.537  14.686  1.00  0.00     0.010 A 
ENDBRANCH  13  16
ENDBRANCH  12  13
ENDBRANCH  11  12
TORSDOF 4
ENDMDL
MODEL 6
REMARK VINA RESULT:      -5.6      1.421      2.426
REMARK  4 active torsions:
REMARK  status: ('A' for Active; 'I' for Inactive)
REMARK    1  A    between atoms: N_11  and  C_12 
REMARK    2  A    between atoms: C_12  and  C_13 
REMARK    3  A    between atoms: C_13  and  O_14 
REMARK    4  A    between atoms: C_13  and  C_15 
ROOT
HETATM    1  C   UNL     1     -43.355 -50.729  15.010  1.00  0.00     0.089 C 
HETATM    2  C   UNL     1     -42.738 -49.756  14.071  1.00  0.00     0.080 A 
HETATM    3  N   UNL     1     -43.091 -48.493  13.958  1.00  0.00    -0.344 N 
ATOM      4  HN  UNL     1     -43.821 -48.010  14.482  1.00  0.00     0.167 HD
HETATM    5  C   UNL     1     -42.277 -47.960  12.993  1.00  0.00     0.060 A 
HETATM    6  C   UNL     1     -42.231 -46.650  12.495  1.00  0.00     0.032 A 
HETATM    7  C   UNL     1     -41.300 -46.339  11.497  1.00  0.00     0.002 A 
HETATM    8  C   UNL     1     -40.432 -47.317  11.005  1.00  0.00     0.002 A 
HETATM    9  C   UNL     1     -40.462 -48.627  11.495  1.00  0.00     0.032 A 
HETATM   10  C   UNL     1     -41.398 -48.918  12.496  1.00  0.00     0.062 A 
HETATM   11  N   UNL     1     -41.710 -50.058  13.207  1.00  0.00    -0.332 N 
ENDROOT
BRANCH  11  12
HETATM   12  C   UNL     1     -41.003 -51.328  13.120  1.00  0.00     0.167 C 
BRANCH  12  13
HETATM   13  C   UNL     1     -41.680 -52.340  12.178  1.00  0.00     0.169 C 
BRANCH  13  14
HETATM   14  O   UNL     1     -40.698 -53.139  11.516  1.00  0.00    -0.389 OA
HETATM   15  H   UNL     1     -40.306 -52.607  10.805  1.00  0.00     0.210 HD
ENDBRANCH  13  14
BRANCH  13  16
HETATM   16  C   UNL     1     -42.659 -53.286  12.855  1.00  0.00    -0.028 A 
HETATM   17  C   UNL     1     -42.212 -54.050  13.948  1.00  0.00     0.010 A 
HETATM   18  C   UNL     1     -43.071 -54.926  14.617  1.00  0.00     0.001 A 
HETATM   19  C   UNL     1     -44.397 -55.044  14.210  1.00  0.00     0.000 A 
HETATM   20  C   UNL     1     -44.865 -54.283  13.143  1.00  0.00     0.001 A 
HETATM   21  C   UNL     1     -44.005 -53.406  12.473  1.00  0.00     0.010 A 
ENDBRANCH  13  16
ENDBRANCH  12  13
ENDBRANCH  11  12
TORSDOF 4
ENDMDL
MODEL 7
REMARK VINA RESULT:      -5.5      2.607      3.264
REMARK  4 active torsions:
REMARK  status: ('A' for Active; 'I' for Inactive)
REMARK    1  A    between atoms: N_11  and  C_12 
REMARK    2  A    between atoms: C_12  and  C_13 
REMARK    3  A    between atoms: C_13  and  O_14 
REMARK    4  A    between atoms: C_13  and  C_15 
ROOT
HETATM    1  C   UNL     1     -41.939 -51.597  16.289  1.00  0.00     0.089 C 
HETATM    2  C   UNL     1     -40.906 -50.939  15.448  1.00  0.00     0.080 A 
HETATM    3  N   UNL     1     -40.523 -49.686  15.573  1.00  0.00    -0.344 N 
ATOM      4  HN  UNL     1     -40.870 -49.001  16.244  1.00  0.00     0.167 HD
HETATM    5  C   UNL     1     -39.560 -49.490  14.617  1.00  0.00     0.060 A 
HETATM    6  C   UNL     1     -38.820 -48.335  14.325  1.00  0.00     0.032 A 
HETATM    7  C   UNL     1     -37.880 -48.379  13.289  1.00  0.00     0.002 A 
HETATM    8  C   UNL     1     -37.682 -49.553  12.557  1.00  0.00     0.002 A 
HETATM    9  C   UNL     1     -38.409 -50.714  12.839  1.00  0.00     0.032 A 
HETATM   10  C   UNL     1     -39.343 -50.652  13.882  1.00  0.00     0.062 A 
HETATM   11  N   UNL     1     -40.213 -51.567  14.438  1.00  0.00    -0.332 N 
ENDROOT
BRANCH  11  12
HETATM   12  C   UNL     1     -40.305 -52.974  14.077  1.00  0.00     0.167 C 
BRANCH  12  13
HETATM   13  C   UNL     1     -41.209 -53.235  12.860  1.00  0.00     0.169 C 
BRANCH  13  14
HETATM   14  O   UNL     1     -40.605 -54.188  11.983  1.00  0.00    -0.389 OA
HETATM   15  H   UNL     1     -39.911 -53.734  11.479  1.00  0.00     0.210 HD
ENDBRANCH  13  14
BRANCH  13  16
HETATM   16  C   UNL     1     -42.603 -53.743  13.198  1.00  0.00    -0.028 A 
HETATM   17  C   UNL     1     -42.753 -54.629  14.280  1.00  0.00     0.010 A 
HETATM   18  C   UNL     1     -44.009 -55.119  14.644  1.00  0.00     0.001 A 
HETATM   19  C   UNL     1     -45.142 -54.720  13.939  1.00  0.00     0.000 A 
HETATM   20  C   UNL     1     -45.017 -53.828  12.877  1.00  0.00     0.001 A 
HETATM   21  C   UNL     1     -43.759 -53.338  12.512  1.00  0.00     0.010 A 
ENDBRANCH  13  16
ENDBRANCH  12  13
ENDBRANCH  11  12
TORSDOF 4
ENDMDL
MODEL 8
REMARK VINA RESULT:      -5.5      3.937      5.679
REMARK  4 active torsions:
REMARK  status: ('A' for Active; 'I' for Inactive)
REMARK    1  A    between atoms: N_11  and  C_12 
REMARK    2  A    between atoms: C_12  and  C_13 
REMARK    3  A    between atoms: C_13  and  O_14 
REMARK    4  A    between atoms: C_13  and  C_15 
ROOT
HETATM    1  C   UNL     1     -42.325 -50.061  14.958  1.00  0.00     0.089 C 
HETATM    2  C   UNL     1     -43.660 -50.292  15.570  1.00  0.00     0.080 A 
HETATM    3  N   UNL     1     -43.976 -50.003  16.815  1.00  0.00    -0.344 N 
ATOM      4  HN  UNL     1     -43.369 -49.592  17.523  1.00  0.00     0.167 HD
HETATM    5  C   UNL     1     -45.289 -50.367  16.963  1.00  0.00     0.060 A 
HETATM    6  C   UNL     1     -46.117 -50.265  18.091  1.00  0.00     0.032 A 
HETATM    7  C   UNL     1     -47.441 -50.708  17.999  1.00  0.00     0.002 A 
HETATM    8  C   UNL     1     -47.931 -51.243  16.805  1.00  0.00     0.002 A 
HETATM    9  C   UNL     1     -47.120 -51.347  15.670  1.00  0.00     0.032 A 
HETATM   10  C   UNL     1     -45.798 -50.895  15.780  1.00  0.00     0.062 A 
HETATM   11  N   UNL     1     -44.736 -50.830  14.902  1.00  0.00    -0.332 N 
ENDROOT
BRANCH  11  12
HETATM   12  C   UNL     1     -44.784 -51.182  13.490  1.00  0.00     0.167 C 
BRANCH  12  13
HETATM   13  C   UNL     1     -44.625 -52.691  13.231  1.00  0.00     0.169 C 
BRANCH  13  14
HETATM   14  O   UNL     1     -45.103 -53.027  11.927  1.00  0.00    -0.389 OA
HETATM   15  H   UNL     1     -44.352 -52.991  11.313  1.00  0.00     0.210 HD
ENDBRANCH  13  14
BRANCH  13  16
HETATM   16  C   UNL     1     -43.199 -53.210  13.343  1.00  0.00    -0.028 A 
HETATM   17  C   UNL     1     -42.256 -52.800  12.384  1.00  0.00     0.010 A 
HETATM   18  C   UNL     1     -40.929 -53.235  12.443  1.00  0.00     0.001 A 
HETATM   19  C   UNL     1     -40.520 -54.078  13.473  1.00  0.00     0.000 A 
HETATM   20  C   UNL     1     -41.434 -54.480  14.443  1.00  0.00     0.001 A 
HETATM   21  C   UNL     1     -42.763 -54.045  14.383  1.00  0.00     0.010 A 
ENDBRANCH  13  16
ENDBRANCH  12  13
ENDBRANCH  11  12
TORSDOF 4
ENDMDL
MODEL 9
REMARK VINA RESULT:      -5.4     14.472     16.256
REMARK  4 active torsions:
REMARK  status: ('A' for Active; 'I' for Inactive)
REMARK    1  A    between atoms: N_11  and  C_12 
REMARK    2  A    between atoms: C_12  and  C_13 
REMARK    3  A    between atoms: C_13  and  O_14 
REMARK    4  A    between atoms: C_13  and  C_15 
ROOT
HETATM    1  C   UNL     1     -47.821 -50.982  -0.930  1.00  0.00     0.089 C 
HETATM    2  C   UNL     1     -49.210 -51.512  -0.907  1.00  0.00     0.080 A 
HETATM    3  N   UNL     1     -49.538 -52.769  -1.121  1.00  0.00    -0.344 N 
ATOM      4  HN  UNL     1     -48.906 -53.542  -1.330  1.00  0.00     0.167 HD
HETATM    5  C   UNL     1     -50.902 -52.825  -1.005  1.00  0.00     0.060 A 
HETATM    6  C   UNL     1     -51.759 -53.929  -1.132  1.00  0.00     0.032 A 
HETATM    7  C   UNL     1     -53.136 -53.738  -0.967  1.00  0.00     0.002 A 
HETATM    8  C   UNL     1     -53.648 -52.470  -0.681  1.00  0.00     0.002 A 
HETATM    9  C   UNL     1     -52.807 -51.360  -0.547  1.00  0.00     0.032 A 
HETATM   10  C   UNL     1     -51.432 -51.572  -0.712  1.00  0.00     0.062 A 
HETATM   11  N   UNL     1     -50.326 -50.749  -0.649  1.00  0.00    -0.332 N 
ENDROOT
BRANCH  11  12
HETATM   12  C   UNL     1     -50.340 -49.342  -0.277  1.00  0.00     0.167 C 
BRANCH  12  13
HETATM   13  C   UNL     1     -50.640 -49.107   1.214  1.00  0.00     0.169 C 
BRANCH  13  14
HETATM   14  O   UNL     1     -49.669 -49.767   2.028  1.00  0.00    -0.389 OA
HETATM   15  H   UNL     1     -49.334 -50.533   1.535  1.00  0.00     0.210 HD
ENDBRANCH  13  14
BRANCH  13  16
HETATM   16  C   UNL     1     -50.674 -47.646   1.636  1.00  0.00    -0.028 A 
HETATM   17  C   UNL     1     -49.459 -46.943   1.727  1.00  0.00     0.010 A 
HETATM   18  C   UNL     1     -49.430 -45.596   2.098  1.00  0.00     0.001 A 
HETATM   19  C   UNL     1     -50.619 -44.925   2.371  1.00  0.00     0.000 A 
HETATM   20  C   UNL     1     -51.833 -45.598   2.267  1.00  0.00     0.001 A 
HETATM   21  C   UNL     1     -51.862 -46.946   1.897  1.00  0.00     0.010 A 
ENDBRANCH  13  16
ENDBRANCH  12  13
ENDBRANCH  11  12
TORSDOF 4
ENDMDL
