MODEL 1
REMARK VINA RESULT:      -5.8      0.000      0.000
REMARK  4 active torsions:
REMARK  status: ('A' for Active; 'I' for Inactive)
REMARK    1  A    between atoms: C_2  and  C_3 
REMARK    2  A    between atoms: C_6  and  N_7 
REMARK       I    between atoms: N_7  and  C_8 
REMARK       I    between atoms: C_8  and  N_10 
REMARK    3  A    between atoms: N_10  and  C_11 
REMARK    4  A    between atoms: C_11  and  C_13 
ROOT
HETATM    1  N   UNL     1     -41.104 -47.332  10.304  1.00  0.00    -0.289 N 
HETATM    2  C   UNL     1     -40.798 -48.438  11.052  1.00  0.00     0.322 C 
HETATM    3  O   UNL     1     -41.562 -49.339  11.377  1.00  0.00    -0.247 OA
HETATM    4  N   UNL     1     -39.458 -48.474  11.390  1.00  0.00    -0.336 N 
HETATM    5  H   UNL     1     -40.368 -46.784   9.897  1.00  0.00     0.172 HD
HETATM    6  H   UNL     1     -38.930 -47.615  11.428  1.00  0.00     0.164 HD
ENDROOT
BRANCH   1   7
HETATM    7  C   UNL     1     -42.375 -47.131   9.830  1.00  0.00     0.152 A 
HETATM    8  S   UNL     1     -42.923 -45.518   9.908  1.00  0.00    -0.064 SA
HETATM    9  C   UNL     1     -44.385 -46.003   9.145  1.00  0.00     0.078 A 
HETATM   10  C   UNL     1     -44.371 -47.369   8.924  1.00  0.00     0.017 A 
HETATM   11  N   UNL     1     -43.209 -48.001   9.324  1.00  0.00    -0.340 N 
ATOM     12  HN  UNL     1     -43.029 -49.002   9.237  1.00  0.00     0.168 HD
BRANCH  10  13
HETATM   13  C   UNL     1     -45.454 -48.202   8.322  1.00  0.00     0.053 C 
HETATM   14  C   UNL     1     -46.806 -47.964   8.975  1.00  0.00     0.011 C 
ENDBRANCH  10  13
ENDBRANCH   1   7
BRANCH   4  15
HETATM   15  C   UNL     1     -38.897 -49.620  12.109  1.00  0.00     0.111 C 
HETATM   16  C   UNL     1     -37.626 -50.072  11.391  1.00  0.00     0.035 C 
BRANCH  15  17
HETATM   17  C   UNL     1     -38.619 -49.296  13.589  1.00  0.00     0.143 C 
HETATM   18  C   UNL     1     -38.232 -47.850  13.880  1.00  0.00     0.036 C 
HETATM   19  C   UNL     1     -37.224 -47.947  15.009  1.00  0.00     0.029 C 
HETATM   20  C   UNL     1     -37.091 -49.428  15.289  1.00  0.00     0.168 C 
HETATM   21  O   UNL     1     -37.530 -50.089  14.098  1.00  0.00    -0.384 OA
ENDBRANCH  15  17
ENDBRANCH   4  15
TORSDOF 4
ENDMDL
MODEL 2
REMARK VINA RESULT:      -5.7      4.254      6.487
REMARK  4 active torsions:
REMARK  status: ('A' for Active; 'I' for Inactive)
REMARK    1  A    between atoms: C_2  and  C_3 
REMARK    2  A    between atoms: C_6  and  N_7 
REMARK       I    between atoms: N_7  and  C_8 
REMARK       I    between atoms: C_8  and  N_10 
REMARK    3  A    between atoms: N_10  and  C_11 
REMARK    4  A    between atoms: C_11  and  C_13 
ROOT
HETATM    1  N   UNL     1     -41.317 -51.230  11.362  1.00  0.00    -0.289 N 
HETATM    2  C   UNL     1     -41.720 -49.948  11.630  1.00  0.00     0.322 C 
HETATM    3  O   UNL     1     -42.537 -49.596  12.473  1.00  0.00    -0.247 OA
HETATM    4  N   UNL     1     -41.047 -49.025  10.852  1.00  0.00    -0.336 N 
HETATM    5  H   UNL     1     -40.482 -51.390  10.829  1.00  0.00     0.172 HD
HETATM    6  H   UNL     1     -40.657 -49.310   9.965  1.00  0.00     0.164 HD
ENDROOT
BRANCH   1   7
HETATM    7  C   UNL     1     -41.833 -52.292  12.059  1.00  0.00     0.152 A 
HETATM    8  S   UNL     1     -40.689 -53.189  12.950  1.00  0.00    -0.064 SA
HETATM    9  C   UNL     1     -41.963 -54.177  13.545  1.00  0.00     0.078 A 
HETATM   10  C   UNL     1     -43.167 -53.781  12.989  1.00  0.00     0.017 A 
HETATM   11  N   UNL     1     -43.074 -52.697  12.137  1.00  0.00    -0.340 N 
ATOM     12  HN  UNL     1     -43.859 -52.275  11.641  1.00  0.00     0.168 HD
BRANCH  10  13
HETATM   13  C   UNL     1     -44.512 -54.393  13.205  1.00  0.00     0.053 C 
HETATM   14  C   UNL     1     -45.631 -53.364  13.196  1.00  0.00     0.011 C 
ENDBRANCH  10  13
ENDBRANCH   1   7
BRANCH   4  15
HETATM   15  C   UNL     1     -41.257 -47.588  11.043  1.00  0.00     0.111 C 
HETATM   16  C   UNL     1     -39.907 -46.934  11.337  1.00  0.00     0.035 C 
BRANCH  15  17
HETATM   17  C   UNL     1     -41.943 -46.936   9.828  1.00  0.00     0.143 C 
HETATM   18  C   UNL     1     -42.809 -45.721  10.141  1.00  0.00     0.036 C 
HETATM   19  C   UNL     1     -43.964 -45.815   9.163  1.00  0.00     0.029 C 
HETATM   20  C   UNL     1     -43.696 -47.071   8.362  1.00  0.00     0.168 C 
HETATM   21  O   UNL     1     -42.822 -47.866   9.168  1.00  0.00    -0.384 OA
ENDBRANCH  15  17
ENDBRANCH   4  15
TORSDOF 4
ENDMDL
MODEL 3
REMARK VINA RESULT:      -5.7      2.661      7.432
REMARK  4 active torsions:
REMARK  status: ('A' for Active; 'I' for Inactive)
REMARK    1  A    between atoms: C_2  and  C_3 
REMARK    2  A    between atoms: C_6  and  N_7 
REMARK       I    between atoms: N_7  and  C_8 
REMARK       I    between atoms: C_8  and  N_10 
REMARK    3  A    between atoms: N_10  and  C_11 
REMARK    4  A    between atoms: C_11  and  C_13 
ROOT
HETATM    1  N   UNL     1     -40.366 -49.651  10.679  1.00  0.00    -0.289 N 
HETATM    2  C   UNL     1     -41.342 -48.775  11.074  1.00  0.00     0.322 C 
HETATM    3  O   UNL     1     -41.647 -48.485  12.225  1.00  0.00    -0.247 OA
HETATM    4  N   UNL     1     -41.959 -48.173   9.994  1.00  0.00    -0.336 N 
HETATM    5  H   UNL     1     -40.037 -49.639   9.731  1.00  0.00     0.172 HD
HETATM    6  H   UNL     1     -41.960 -48.638   9.097  1.00  0.00     0.164 HD
ENDROOT
BRANCH   1   7
HETATM    7  C   UNL     1     -39.604 -50.321  11.602  1.00  0.00     0.152 A 
HETATM    8  S   UNL     1     -37.938 -49.960  11.553  1.00  0.00    -0.064 SA
HETATM    9  C   UNL     1     -37.698 -51.000  12.901  1.00  0.00     0.078 A 
HETATM   10  C   UNL     1     -38.899 -51.583  13.266  1.00  0.00     0.017 A 
HETATM   11  N   UNL     1     -39.983 -51.182  12.510  1.00  0.00    -0.340 N 
ATOM     12  HN  UNL     1     -40.940 -51.511  12.639  1.00  0.00     0.168 HD
BRANCH  10  13
HETATM   13  C   UNL     1     -39.132 -52.576  14.357  1.00  0.00     0.053 C 
HETATM   14  C   UNL     1     -39.838 -53.829  13.867  1.00  0.00     0.011 C 
ENDBRANCH  10  13
ENDBRANCH   1   7
BRANCH   4  15
HETATM   15  C   UNL     1     -42.970 -47.131  10.191  1.00  0.00     0.111 C 
HETATM   16  C   UNL     1     -42.312 -45.768   9.978  1.00  0.00     0.035 C 
BRANCH  15  17
HETATM   17  C   UNL     1     -44.185 -47.318   9.264  1.00  0.00     0.143 C 
HETATM   18  C   UNL     1     -44.926 -46.040   8.892  1.00  0.00     0.036 C 
HETATM   19  C   UNL     1     -46.384 -46.454   8.815  1.00  0.00     0.029 C 
HETATM   20  C   UNL     1     -46.388 -47.929   9.152  1.00  0.00     0.168 C 
HETATM   21  O   UNL     1     -45.177 -48.166   9.874  1.00  0.00    -0.384 OA
ENDBRANCH  15  17
ENDBRANCH   4  15
TORSDOF 4
ENDMDL
MODEL 4
REMARK VINA RESULT:      -5.7      3.355      4.598
REMARK  4 active torsions:
REMARK  status: ('A' for Active; 'I' for Inactive)
REMARK    1  A    between atoms: C_2  and  C_3 
REMARK    2  A    between atoms: C_6  and  N_7 
REMARK       I    between atoms: N_7  and  C_8 
REMARK       I    between atoms: C_8  and  N_10 
REMARK    3  A    between atoms: N_10  and  C_11 
REMARK    4  A    between atoms: C_11  and  C_13 
ROOT
HETATM    1  N   UNL     1     -41.807 -49.008  10.617  1.00  0.00    -0.289 N 
HETATM    2  C   UNL     1     -41.666 -49.692  11.796  1.00  0.00     0.322 C 
HETATM    3  O   UNL     1     -41.385 -49.218  12.890  1.00  0.00    -0.247 OA
HETATM    4  N   UNL     1     -41.932 -51.040  11.643  1.00  0.00    -0.336 N 
HETATM    5  H   UNL     1     -42.266 -49.445   9.838  1.00  0.00     0.172 HD
HETATM    6  H   UNL     1     -41.823 -51.470  10.736  1.00  0.00     0.164 HD
ENDROOT
BRANCH   1   7
HETATM    7  C   UNL     1     -41.630 -47.650  10.563  1.00  0.00     0.152 A 
HETATM    8  S   UNL     1     -43.071 -46.740  10.507  1.00  0.00    -0.064 SA
HETATM    9  C   UNL     1     -42.135 -45.299  10.538  1.00  0.00     0.078 A 
HETATM   10  C   UNL     1     -40.787 -45.613  10.545  1.00  0.00     0.017 A 
HETATM   11  N   UNL     1     -40.515 -46.967  10.559  1.00  0.00    -0.340 N 
ATOM     12  HN  UNL     1     -39.579 -47.375  10.564  1.00  0.00     0.168 HD
BRANCH  10  13
HETATM   13  C   UNL     1     -39.634 -44.664  10.532  1.00  0.00     0.053 C 
HETATM   14  C   UNL     1     -38.867 -44.694   9.220  1.00  0.00     0.011 C 
ENDBRANCH  10  13
ENDBRANCH   1   7
BRANCH   4  15
HETATM   15  C   UNL     1     -41.931 -51.940  12.799  1.00  0.00     0.111 C 
HETATM   16  C   UNL     1     -43.101 -52.913  12.659  1.00  0.00     0.035 C 
BRANCH  15  17
HETATM   17  C   UNL     1     -40.594 -52.689  12.949  1.00  0.00     0.143 C 
HETATM   18  C   UNL     1     -40.709 -54.192  13.178  1.00  0.00     0.036 C 
HETATM   19  C   UNL     1     -39.564 -54.523  14.116  1.00  0.00     0.029 C 
HETATM   20  C   UNL     1     -38.875 -53.200  14.372  1.00  0.00     0.168 C 
HETATM   21  O   UNL     1     -39.845 -52.192  14.075  1.00  0.00    -0.384 OA
ENDBRANCH  15  17
ENDBRANCH   4  15
TORSDOF 4
ENDMDL
MODEL 5
REMARK VINA RESULT:      -5.3      4.451      5.236
REMARK  4 active torsions:
REMARK  status: ('A' for Active; 'I' for Inactive)
REMARK    1  A    between atoms: C_2  and  C_3 
REMARK    2  A    between atoms: C_6  and  N_7 
REMARK       I    between atoms: N_7  and  C_8 
REMARK       I    between atoms: C_8  and  N_10 
REMARK    3  A    between atoms: N_10  and  C_11 
REMARK    4  A    between atoms: C_11  and  C_13 
ROOT
HETATM    1  N   UNL     1     -41.908 -51.900  11.755  1.00  0.00    -0.289 N 
HETATM    2  C   UNL     1     -41.094 -50.988  12.374  1.00  0.00     0.322 C 
HETATM    3  O   UNL     1     -41.220 -50.541  13.508  1.00  0.00    -0.247 OA
HETATM    4  N   UNL     1     -40.023 -50.630  11.576  1.00  0.00    -0.336 N 
HETATM    5  H   UNL     1     -41.590 -52.375  10.930  1.00  0.00     0.172 HD
HETATM    6  H   UNL     1     -40.099 -50.716  10.573  1.00  0.00     0.164 HD
ENDROOT
BRANCH   1   7
HETATM    7  C   UNL     1     -43.004 -52.416  12.397  1.00  0.00     0.152 A 
HETATM    8  S   UNL     1     -42.720 -53.868  13.246  1.00  0.00    -0.064 SA
HETATM    9  C   UNL     1     -44.351 -53.842  13.787  1.00  0.00     0.078 A 
HETATM   10  C   UNL     1     -45.010 -52.752  13.247  1.00  0.00     0.017 A 
HETATM   11  N   UNL     1     -44.222 -51.944  12.451  1.00  0.00    -0.340 N 
ATOM     12  HN  UNL     1     -44.543 -51.101  11.973  1.00  0.00     0.168 HD
BRANCH  10  13
HETATM   13  C   UNL     1     -46.445 -52.377  13.427  1.00  0.00     0.053 C 
HETATM   14  C   UNL     1     -46.666 -51.472  14.628  1.00  0.00     0.011 C 
ENDBRANCH  10  13
ENDBRANCH   1   7
BRANCH   4  15
HETATM   15  C   UNL     1     -38.977 -49.737  12.079  1.00  0.00     0.111 C 
HETATM   16  C   UNL     1     -37.639 -50.166  11.478  1.00  0.00     0.035 C 
BRANCH  15  17
HETATM   17  C   UNL     1     -39.281 -48.259  11.774  1.00  0.00     0.143 C 
HETATM   18  C   UNL     1     -39.522 -47.376  12.993  1.00  0.00     0.036 C 
HETATM   19  C   UNL     1     -40.582 -46.388  12.543  1.00  0.00     0.029 C 
HETATM   20  C   UNL     1     -40.884 -46.766  11.109  1.00  0.00     0.168 C 
HETATM   21  O   UNL     1     -40.469 -48.128  10.971  1.00  0.00    -0.384 OA
ENDBRANCH  15  17
ENDBRANCH   4  15
TORSDOF 4
ENDMDL
MODEL 6
REMARK VINA RESULT:      -5.2      5.322      7.546
REMARK  4 active torsions:
REMARK  status: ('A' for Active; 'I' for Inactive)
REMARK    1  A    between atoms: C_2  and  C_3 
REMARK    2  A    between atoms: C_6  and  N_7 
REMARK       I    between atoms: N_7  and  C_8 
REMARK       I    between atoms: C_8  and  N_10 
REMARK    3  A    between atoms: N_10  and  C_11 
REMARK    4  A    between atoms: C_11  and  C_13 
ROOT
HETATM    1  N   UNL     1     -42.274 -52.304  11.740  1.00  0.00    -0.289 N 
HETATM    2  C   UNL     1     -42.895 -52.928  12.790  1.00  0.00     0.322 C 
HETATM    3  O   UNL     1     -42.700 -52.729  13.982  1.00  0.00    -0.247 OA
HETATM    4  N   UNL     1     -43.857 -53.823  12.358  1.00  0.00    -0.336 N 
HETATM    5  H   UNL     1     -42.669 -52.363  10.818  1.00  0.00     0.172 HD
HETATM    6  H   UNL     1     -43.784 -54.228  11.436  1.00  0.00     0.164 HD
ENDROOT
BRANCH   1   7
HETATM    7  C   UNL     1     -41.318 -51.346  11.955  1.00  0.00     0.152 A 
HETATM    8  S   UNL     1     -41.923 -49.773  12.212  1.00  0.00    -0.064 SA
HETATM    9  C   UNL     1     -40.315 -49.221  12.463  1.00  0.00     0.078 A 
HETATM   10  C   UNL     1     -39.425 -50.266  12.290  1.00  0.00     0.017 A 
HETATM   11  N   UNL     1     -40.017 -51.479  11.998  1.00  0.00    -0.340 N 
ATOM     12  HN  UNL     1     -39.514 -52.353  11.839  1.00  0.00     0.168 HD
BRANCH  10  13
HETATM   13  C   UNL     1     -37.935 -50.214  12.377  1.00  0.00     0.053 C 
HETATM   14  C   UNL     1     -37.275 -50.067  11.016  1.00  0.00     0.011 C 
ENDBRANCH  10  13
ENDBRANCH   1   7
BRANCH   4  15
HETATM   15  C   UNL     1     -44.707 -54.531  13.318  1.00  0.00     0.111 C 
HETATM   16  C   UNL     1     -43.844 -54.977  14.498  1.00  0.00     0.035 C 
BRANCH  15  17
HETATM   17  C   UNL     1     -45.895 -53.669  13.786  1.00  0.00     0.143 C 
HETATM   18  C   UNL     1     -46.155 -52.412  12.964  1.00  0.00     0.036 C 
HETATM   19  C   UNL     1     -46.628 -51.387  13.976  1.00  0.00     0.029 C 
HETATM   20  C   UNL     1     -46.603 -52.110  15.305  1.00  0.00     0.168 C 
HETATM   21  O   UNL     1     -45.698 -53.204  15.135  1.00  0.00    -0.384 OA
ENDBRANCH  15  17
ENDBRANCH   4  15
TORSDOF 4
ENDMDL
MODEL 7
REMARK VINA RESULT:      -5.1      2.229      2.733
REMARK  4 active torsions:
REMARK  status: ('A' for Active; 'I' for Inactive)
REMARK    1  A    between atoms: C_2  and  C_3 
REMARK    2  A    between atoms: C_6  and  N_7 
REMARK       I    between atoms: N_7  and  C_8 
REMARK       I    between atoms: C_8  and  N_10 
REMARK    3  A    between atoms: N_10  and  C_11 
REMARK    4  A    between atoms: C_11  and  C_13 
ROOT
HETATM    1  N   UNL     1     -41.761 -47.913  11.870  1.00  0.00    -0.289 N 
HETATM    2  C   UNL     1     -40.985 -49.031  11.708  1.00  0.00     0.322 C 
HETATM    3  O   UNL     1     -40.894 -49.723  10.701  1.00  0.00    -0.247 OA
HETATM    4  N   UNL     1     -40.229 -49.298  12.835  1.00  0.00    -0.336 N 
HETATM    5  H   UNL     1     -41.586 -47.289  12.637  1.00  0.00     0.172 HD
HETATM    6  H   UNL     1     -40.541 -48.964  13.735  1.00  0.00     0.164 HD
ENDROOT
BRANCH   1   7
HETATM    7  C   UNL     1     -42.553 -47.451  10.850  1.00  0.00     0.152 A 
HETATM    8  S   UNL     1     -42.208 -45.862  10.338  1.00  0.00    -0.064 SA
HETATM    9  C   UNL     1     -43.417 -46.017   9.125  1.00  0.00     0.078 A 
HETATM   10  C   UNL     1     -44.028 -47.254   9.224  1.00  0.00     0.017 A 
HETATM   11  N   UNL     1     -43.521 -48.065  10.221  1.00  0.00    -0.340 N 
ATOM     12  HN  UNL     1     -43.853 -49.006  10.435  1.00  0.00     0.168 HD
BRANCH  10  13
HETATM   13  C   UNL     1     -45.152 -47.781   8.394  1.00  0.00     0.053 C 
HETATM   14  C   UNL     1     -46.412 -48.034   9.206  1.00  0.00     0.011 C 
ENDBRANCH  10  13
ENDBRANCH   1   7
BRANCH   4  15
HETATM   15  C   UNL     1     -39.259 -50.395  12.844  1.00  0.00     0.111 C 
HETATM   16  C   UNL     1     -37.973 -49.902  13.507  1.00  0.00     0.035 C 
BRANCH  15  17
HETATM   17  C   UNL     1     -39.807 -51.649  13.549  1.00  0.00     0.143 C 
HETATM   18  C   UNL     1     -38.849 -52.323  14.524  1.00  0.00     0.036 C 
HETATM   19  C   UNL     1     -39.142 -53.805  14.383  1.00  0.00     0.029 C 
HETATM   20  C   UNL     1     -40.236 -53.888  13.339  1.00  0.00     0.168 C 
HETATM   21  O   UNL     1     -40.155 -52.670  12.594  1.00  0.00    -0.384 OA
ENDBRANCH  15  17
ENDBRANCH   4  15
TORSDOF 4
ENDMDL
MODEL 8
REMARK VINA RESULT:      -5.1      3.791      5.467
REMARK  4 active torsions:
REMARK  status: ('A' for Active; 'I' for Inactive)
REMARK    1  A    between atoms: C_2  and  C_3 
REMARK    2  A    between atoms: C_6  and  N_7 
REMARK       I    between atoms: N_7  and  C_8 
REMARK       I    between atoms: C_8  and  N_10 
REMARK    3  A    between atoms: N_10  and  C_11 
REMARK    4  A    between atoms: C_11  and  C_13 
ROOT
HETATM    1  N   UNL     1     -40.849 -49.734  10.611  1.00  0.00    -0.289 N 
HETATM    2  C   UNL     1     -40.881 -50.510  11.740  1.00  0.00     0.322 C 
HETATM    3  O   UNL     1     -41.008 -50.121  12.895  1.00  0.00    -0.247 OA
HETATM    4  N   UNL     1     -40.799 -51.857  11.440  1.00  0.00    -0.336 N 
HETATM    5  H   UNL     1     -40.980 -50.157   9.710  1.00  0.00     0.172 HD
HETATM    6  H   UNL     1     -40.364 -52.150  10.577  1.00  0.00     0.164 HD
ENDROOT
BRANCH   1   7
HETATM    7  C   UNL     1     -40.962 -48.370  10.690  1.00  0.00     0.152 A 
HETATM    8  S   UNL     1     -42.468 -47.745  10.192  1.00  0.00    -0.064 SA
HETATM    9  C   UNL     1     -41.926 -46.169  10.613  1.00  0.00     0.078 A 
HETATM   10  C   UNL     1     -40.619 -46.224  11.063  1.00  0.00     0.017 A 
HETATM   11  N   UNL     1     -40.080 -47.495  11.100  1.00  0.00    -0.340 N 
ATOM     12  HN  UNL     1     -39.132 -47.720  11.403  1.00  0.00     0.168 HD
BRANCH  10  13
HETATM   13  C   UNL     1     -39.757 -45.082  11.491  1.00  0.00     0.053 C 
HETATM   14  C   UNL     1     -39.421 -45.127  12.973  1.00  0.00     0.011 C 
ENDBRANCH  10  13
ENDBRANCH   1   7
BRANCH   4  15
HETATM   15  C   UNL     1     -40.910 -52.868  12.493  1.00  0.00     0.111 C 
HETATM   16  C   UNL     1     -39.837 -52.594  13.546  1.00  0.00     0.035 C 
BRANCH  15  17
HETATM   17  C   UNL     1     -42.315 -52.901  13.121  1.00  0.00     0.143 C 
HETATM   18  C   UNL     1     -42.608 -54.106  14.007  1.00  0.00     0.036 C 
HETATM   19  C   UNL     1     -44.075 -54.409  13.765  1.00  0.00     0.029 C 
HETATM   20  C   UNL     1     -44.526 -53.372  12.759  1.00  0.00     0.168 C 
HETATM   21  O   UNL     1     -43.337 -52.921  12.105  1.00  0.00    -0.384 OA
ENDBRANCH  15  17
ENDBRANCH   4  15
TORSDOF 4
ENDMDL
MODEL 9
REMARK VINA RESULT:      -4.9      4.159      4.837
REMARK  4 active torsions:
REMARK  status: ('A' for Active; 'I' for Inactive)
REMARK    1  A    between atoms: C_2  and  C_3 
REMARK    2  A    between atoms: C_6  and  N_7 
REMARK       I    between atoms: N_7  and  C_8 
REMARK       I    between atoms: C_8  and  N_10 
REMARK    3  A    between atoms: N_10  and  C_11 
REMARK    4  A    between atoms: C_11  and  C_13 
ROOT
HETATM    1  N   UNL     1     -41.679 -49.784  12.876  1.00  0.00    -0.289 N 
HETATM    2  C   UNL     1     -41.164 -51.013  12.559  1.00  0.00     0.322 C 
HETATM    3  O   UNL     1     -40.792 -51.391  11.454  1.00  0.00    -0.247 OA
HETATM    4  N   UNL     1     -41.048 -51.824  13.672  1.00  0.00    -0.336 N 
HETATM    5  H   UNL     1     -41.729 -49.496  13.837  1.00  0.00     0.172 HD
HETATM    6  H   UNL     1     -41.642 -51.661  14.472  1.00  0.00     0.164 HD
ENDROOT
BRANCH   1   7
HETATM    7  C   UNL     1     -41.833 -48.815  11.918  1.00  0.00     0.152 A 
HETATM    8  S   UNL     1     -40.804 -47.466  12.091  1.00  0.00    -0.064 SA
HETATM    9  C   UNL     1     -41.458 -46.813  10.641  1.00  0.00     0.078 A 
HETATM   10  C   UNL     1     -42.446 -47.649  10.151  1.00  0.00     0.017 A 
HETATM   11  N   UNL     1     -42.649 -48.793  10.897  1.00  0.00    -0.340 N 
ATOM     12  HN  UNL     1     -43.337 -49.517  10.683  1.00  0.00     0.168 HD
BRANCH  10  13
HETATM   13  C   UNL     1     -43.294 -47.439   8.939  1.00  0.00     0.053 C 
HETATM   14  C   UNL     1     -44.780 -47.464   9.254  1.00  0.00     0.011 C 
ENDBRANCH  10  13
ENDBRANCH   1   7
BRANCH   4  15
HETATM   15  C   UNL     1     -40.431 -53.149  13.574  1.00  0.00     0.111 C 
HETATM   16  C   UNL     1     -39.258 -53.215  14.552  1.00  0.00     0.035 C 
BRANCH  15  17
HETATM   17  C   UNL     1     -41.443 -54.280  13.836  1.00  0.00     0.143 C 
HETATM   18  C   UNL     1     -42.863 -54.014  13.349  1.00  0.00     0.036 C 
HETATM   19  C   UNL     1     -43.751 -54.676  14.384  1.00  0.00     0.029 C 
HETATM   20  C   UNL     1     -42.795 -55.270  15.396  1.00  0.00     0.168 C 
HETATM   21  O   UNL     1     -41.571 -54.545  15.247  1.00  0.00    -0.384 OA
ENDBRANCH  15  17
ENDBRANCH   4  15
TORSDOF 4
ENDMDL
