MODEL 1
REMARK VINA RESULT:      -6.5      0.000      0.000
REMARK  6 active torsions:
REMARK  status: ('A' for Active; 'I' for Inactive)
REMARK    1  A    between atoms: C_2  and  C_4 
REMARK    2  A    between atoms: C_4  and  N_5 
REMARK    3  A    between atoms: C_4  and  C_9 
REMARK       I    between atoms: N_5  and  C_6 
REMARK       I    between atoms: C_9  and  N_11 
REMARK    4  A    between atoms: N_11  and  C_12 
REMARK    5  A    between atoms: C_12  and  C_13 
REMARK    6  A    between atoms: C_16  and  N_20 
ROOT
HETATM    1  C   UNL     1     -40.529 -50.446  11.608  1.00  0.00     0.162 C 
ENDROOT
BRANCH   1   2
HETATM    2  N   UNL     1     -41.258 -49.310  11.092  1.00  0.00    -0.355 N 
HETATM    3  C   UNL     1     -41.205 -48.090  11.744  1.00  0.00     0.241 C 
HETATM    4  O   UNL     1     -40.462 -47.891  12.702  1.00  0.00    -0.271 OA
HETATM    5  H   UNL     1     -41.996 -49.470  10.423  1.00  0.00     0.162 HD
BRANCH   3   6
HETATM    6  C   UNL     1     -42.029 -46.950  11.096  1.00  0.00     0.179 C 
BRANCH   6   7
HETATM    7  C   UNL     1     -41.337 -45.579  11.296  1.00  0.00     0.009 C 
HETATM    8  C   UNL     1     -40.198 -45.365  10.292  1.00  0.00     0.012 C 
HETATM    9  C   UNL     1     -42.340 -44.427  11.161  1.00  0.00     0.012 C 
ENDBRANCH   6   7
BRANCH   6  10
HETATM   10  N   UNL     1     -42.222 -47.250   9.670  1.00  0.00    -0.348 N 
HETATM   11  C   UNL     1     -43.477 -47.512   9.171  1.00  0.00     0.214 C 
HETATM   12  O   UNL     1     -44.498 -47.508   9.849  1.00  0.00    -0.274 OA
HETATM   13  C   UNL     1     -43.512 -47.765   7.686  1.00  0.00     0.117 C 
HETATM   14  H   UNL     1     -41.424 -47.267   9.051  1.00  0.00     0.163 HD
ENDBRANCH   6  10
ENDBRANCH   3   6
ENDBRANCH   1   2
BRANCH   1  15
HETATM   15  C   UNL     1     -41.434 -51.499  12.178  1.00  0.00    -0.025 A 
HETATM   16  C   UNL     1     -42.634 -51.178  12.804  1.00  0.00     0.014 A 
HETATM   17  C   UNL     1     -43.403 -52.191  13.378  1.00  0.00     0.049 A 
HETATM   18  C   UNL     1     -42.977 -53.521  13.332  1.00  0.00     0.103 A 
HETATM   19  N   UNL     1     -41.825 -53.847  12.713  1.00  0.00    -0.352 N 
HETATM   20  C   UNL     1     -41.093 -52.847  12.149  1.00  0.00     0.098 A 
ATOM     21  HN  UNL     1     -41.511 -54.815  12.667  1.00  0.00     0.166 HD
BRANCH  18  22
HETATM   22  N   UNL     1     -43.712 -54.488  14.006  1.00  0.00    -0.363 N 
HETATM   23  C   UNL     1     -45.098 -54.747  13.588  1.00  0.00     0.150 C 
HETATM   24  C   UNL     1     -46.122 -54.156  14.565  1.00  0.00     0.187 C 
HETATM   25  O   UNL     1     -45.853 -54.560  15.918  1.00  0.00    -0.388 OA
HETATM   26  C   UNL     1     -44.556 -54.089  16.311  1.00  0.00     0.187 C 
HETATM   27  C   UNL     1     -43.444 -54.693  15.437  1.00  0.00     0.150 C 
ENDBRANCH  18  22
ENDBRANCH   1  15
TORSDOF 6
ENDMDL
MODEL 2
REMARK VINA RESULT:      -6.3      1.689      2.650
REMARK  6 active torsions:
REMARK  status: ('A' for Active; 'I' for Inactive)
REMARK    1  A    between atoms: C_2  and  C_4 
REMARK    2  A    between atoms: C_4  and  N_5 
REMARK    3  A    between atoms: C_4  and  C_9 
REMARK       I    between atoms: N_5  and  C_6 
REMARK       I    between atoms: C_9  and  N_11 
REMARK    4  A    between atoms: N_11  and  C_12 
REMARK    5  A    between atoms: C_12  and  C_13 
REMARK    6  A    between atoms: C_16  and  N_20 
ROOT
HETATM    1  C   UNL     1     -39.589 -50.140  11.782  1.00  0.00     0.162 C 
ENDROOT
BRANCH   1   2
HETATM    2  N   UNL     1     -40.279 -49.113  11.034  1.00  0.00    -0.355 N 
HETATM    3  C   UNL     1     -40.281 -47.804  11.483  1.00  0.00     0.241 C 
HETATM    4  O   UNL     1     -39.616 -47.442  12.451  1.00  0.00    -0.271 OA
HETATM    5  H   UNL     1     -40.962 -49.390  10.346  1.00  0.00     0.162 HD
BRANCH   3   6
HETATM    6  C   UNL     1     -41.056 -46.796  10.598  1.00  0.00     0.179 C 
BRANCH   6   7
HETATM    7  C   UNL     1     -42.504 -47.280  10.340  1.00  0.00     0.009 C 
HETATM    8  C   UNL     1     -43.325 -47.334  11.633  1.00  0.00     0.012 C 
HETATM    9  C   UNL     1     -43.221 -46.370   9.335  1.00  0.00     0.012 C 
ENDBRANCH   6   7
BRANCH   6  10
HETATM   10  N   UNL     1     -41.039 -45.478  11.247  1.00  0.00    -0.348 N 
HETATM   11  C   UNL     1     -40.331 -44.433  10.699  1.00  0.00     0.214 C 
HETATM   12  O   UNL     1     -39.688 -44.514   9.659  1.00  0.00    -0.274 OA
HETATM   13  C   UNL     1     -40.443 -43.141  11.464  1.00  0.00     0.117 C 
HETATM   14  H   UNL     1     -41.551 -45.338  12.108  1.00  0.00     0.163 HD
ENDBRANCH   6  10
ENDBRANCH   3   6
ENDBRANCH   1   2
BRANCH   1  15
HETATM   15  C   UNL     1     -40.522 -51.184  12.321  1.00  0.00    -0.025 A 
HETATM   16  C   UNL     1     -40.056 -52.325  12.966  1.00  0.00     0.014 A 
HETATM   17  C   UNL     1     -40.965 -53.297  13.386  1.00  0.00     0.049 A 
HETATM   18  C   UNL     1     -42.335 -53.135  13.162  1.00  0.00     0.103 A 
HETATM   19  N   UNL     1     -42.800 -52.026  12.554  1.00  0.00    -0.352 N 
HETATM   20  C   UNL     1     -41.900 -51.084  12.160  1.00  0.00     0.098 A 
ATOM     21  HN  UNL     1     -43.798 -51.896  12.394  1.00  0.00     0.166 HD
BRANCH  18  22
HETATM   22  N   UNL     1     -43.199 -54.170  13.496  1.00  0.00    -0.363 N 
HETATM   23  C   UNL     1     -44.571 -54.150  12.967  1.00  0.00     0.150 C 
HETATM   24  C   UNL     1     -45.602 -53.757  14.032  1.00  0.00     0.187 C 
HETATM   25  O   UNL     1     -45.464 -54.557  15.219  1.00  0.00    -0.388 OA
HETATM   26  C   UNL     1     -44.160 -54.359  15.782  1.00  0.00     0.187 C 
HETATM   27  C   UNL     1     -43.050 -54.802  14.814  1.00  0.00     0.150 C 
ENDBRANCH  18  22
ENDBRANCH   1  15
TORSDOF 6
ENDMDL
MODEL 3
REMARK VINA RESULT:      -6.2      2.233      3.558
REMARK  6 active torsions:
REMARK  status: ('A' for Active; 'I' for Inactive)
REMARK    1  A    between atoms: C_2  and  C_4 
REMARK    2  A    between atoms: C_4  and  N_5 
REMARK    3  A    between atoms: C_4  and  C_9 
REMARK       I    between atoms: N_5  and  C_6 
REMARK       I    between atoms: C_9  and  N_11 
REMARK    4  A    between atoms: N_11  and  C_12 
REMARK    5  A    between atoms: C_12  and  C_13 
REMARK    6  A    between atoms: C_16  and  N_20 
ROOT
HETATM    1  C   UNL     1     -39.157 -48.072  11.799  1.00  0.00     0.162 C 
ENDROOT
BRANCH   1   2
HETATM    2  N   UNL     1     -40.082 -47.343  10.959  1.00  0.00    -0.355 N 
HETATM    3  C   UNL     1     -40.974 -46.444  11.517  1.00  0.00     0.241 C 
HETATM    4  O   UNL     1     -40.944 -46.145  12.709  1.00  0.00    -0.271 OA
HETATM    5  H   UNL     1     -40.251 -47.676  10.022  1.00  0.00     0.162 HD
BRANCH   3   6
HETATM    6  C   UNL     1     -41.914 -45.728  10.516  1.00  0.00     0.179 C 
BRANCH   6   7
HETATM    7  C   UNL     1     -42.849 -46.739   9.809  1.00  0.00     0.009 C 
HETATM    8  C   UNL     1     -43.634 -47.589  10.816  1.00  0.00     0.012 C 
HETATM    9  C   UNL     1     -43.842 -46.023   8.885  1.00  0.00     0.012 C 
ENDBRANCH   6   7
BRANCH   6  10
HETATM   10  N   UNL     1     -42.680 -44.698  11.231  1.00  0.00    -0.348 N 
HETATM   11  C   UNL     1     -42.267 -43.385  11.227  1.00  0.00     0.214 C 
HETATM   12  O   UNL     1     -41.270 -42.984  10.641  1.00  0.00    -0.274 OA
HETATM   13  C   UNL     1     -43.179 -42.449  11.976  1.00  0.00     0.117 C 
HETATM   14  H   UNL     1     -43.517 -44.958  11.734  1.00  0.00     0.163 HD
ENDBRANCH   6  10
ENDBRANCH   3   6
ENDBRANCH   1   2
BRANCH   1  15
HETATM   15  C   UNL     1     -39.655 -49.444  12.146  1.00  0.00    -0.025 A 
HETATM   16  C   UNL     1     -39.201 -50.128  13.269  1.00  0.00     0.014 A 
HETATM   17  C   UNL     1     -39.645 -51.431  13.506  1.00  0.00     0.049 A 
HETATM   18  C   UNL     1     -40.537 -52.050  12.627  1.00  0.00     0.103 A 
HETATM   19  N   UNL     1     -40.998 -51.390  11.546  1.00  0.00    -0.352 N 
HETATM   20  C   UNL     1     -40.562 -50.118  11.336  1.00  0.00     0.098 A 
ATOM     21  HN  UNL     1     -41.655 -51.831  10.903  1.00  0.00     0.166 HD
BRANCH  18  22
HETATM   22  N   UNL     1     -40.873 -53.381  12.835  1.00  0.00    -0.363 N 
HETATM   23  C   UNL     1     -42.294 -53.760  12.859  1.00  0.00     0.150 C 
HETATM   24  C   UNL     1     -42.800 -54.041  14.279  1.00  0.00     0.187 C 
HETATM   25  O   UNL     1     -41.951 -54.978  14.965  1.00  0.00    -0.388 OA
HETATM   26  C   UNL     1     -40.627 -54.436  15.073  1.00  0.00     0.187 C 
HETATM   27  C   UNL     1     -39.998 -54.194  13.692  1.00  0.00     0.150 C 
ENDBRANCH  18  22
ENDBRANCH   1  15
TORSDOF 6
ENDMDL
MODEL 4
REMARK VINA RESULT:      -6.1      4.137      5.754
REMARK  6 active torsions:
REMARK  status: ('A' for Active; 'I' for Inactive)
REMARK    1  A    between atoms: C_2  and  C_4 
REMARK    2  A    between atoms: C_4  and  N_5 
REMARK    3  A    between atoms: C_4  and  C_9 
REMARK       I    between atoms: N_5  and  C_6 
REMARK       I    between atoms: C_9  and  N_11 
REMARK    4  A    between atoms: N_11  and  C_12 
REMARK    5  A    between atoms: C_12  and  C_13 
REMARK    6  A    between atoms: C_16  and  N_20 
ROOT
HETATM    1  C   UNL     1     -39.029 -53.529  13.790  1.00  0.00     0.162 C 
ENDROOT
BRANCH   1   2
HETATM    2  N   UNL     1     -38.575 -52.315  14.431  1.00  0.00    -0.355 N 
HETATM    3  C   UNL     1     -37.852 -51.375  13.716  1.00  0.00     0.241 C 
HETATM    4  O   UNL     1     -37.668 -51.474  12.504  1.00  0.00    -0.271 OA
HETATM    5  H   UNL     1     -38.559 -52.275  15.438  1.00  0.00     0.162 HD
BRANCH   3   6
HETATM    6  C   UNL     1     -37.421 -50.119  14.511  1.00  0.00     0.179 C 
BRANCH   6   7
HETATM    7  C   UNL     1     -38.455 -48.977  14.351  1.00  0.00     0.009 C 
HETATM    8  C   UNL     1     -39.522 -49.017  15.452  1.00  0.00     0.012 C 
HETATM    9  C   UNL     1     -37.772 -47.604  14.373  1.00  0.00     0.012 C 
ENDBRANCH   6   7
BRANCH   6  10
HETATM   10  N   UNL     1     -37.239 -50.484  15.922  1.00  0.00    -0.348 N 
HETATM   11  C   UNL     1     -36.067 -50.190  16.580  1.00  0.00     0.214 C 
HETATM   12  O   UNL     1     -35.119 -49.613  16.061  1.00  0.00    -0.274 OA
HETATM   13  C   UNL     1     -36.051 -50.598  18.030  1.00  0.00     0.117 C 
HETATM   14  H   UNL     1     -37.983 -50.960  16.415  1.00  0.00     0.163 HD
ENDBRANCH   6  10
ENDBRANCH   3   6
ENDBRANCH   1   2
BRANCH   1  15
HETATM   15  C   UNL     1     -40.522 -53.586  13.658  1.00  0.00    -0.025 A 
HETATM   16  C   UNL     1     -41.318 -54.258  14.580  1.00  0.00     0.014 A 
HETATM   17  C   UNL     1     -42.696 -54.338  14.371  1.00  0.00     0.049 A 
HETATM   18  C   UNL     1     -43.279 -53.753  13.244  1.00  0.00     0.103 A 
HETATM   19  N   UNL     1     -42.521 -53.084  12.353  1.00  0.00    -0.352 N 
HETATM   20  C   UNL     1     -41.181 -53.007  12.579  1.00  0.00     0.098 A 
ATOM     21  HN  UNL     1     -42.940 -52.647  11.533  1.00  0.00     0.166 HD
BRANCH  18  22
HETATM   22  N   UNL     1     -44.635 -53.944  13.012  1.00  0.00    -0.363 N 
HETATM   23  C   UNL     1     -45.462 -52.788  12.636  1.00  0.00     0.150 C 
HETATM   24  C   UNL     1     -46.348 -52.304  13.791  1.00  0.00     0.187 C 
HETATM   25  O   UNL     1     -47.108 -53.384  14.360  1.00  0.00    -0.388 OA
HETATM   26  C   UNL     1     -46.214 -54.376  14.884  1.00  0.00     0.187 C 
HETATM   27  C   UNL     1     -45.333 -54.985  13.781  1.00  0.00     0.150 C 
ENDBRANCH  18  22
ENDBRANCH   1  15
TORSDOF 6
ENDMDL
MODEL 5
REMARK VINA RESULT:      -6.0      2.399      8.026
REMARK  6 active torsions:
REMARK  status: ('A' for Active; 'I' for Inactive)
REMARK    1  A    between atoms: C_2  and  C_4 
REMARK    2  A    between atoms: C_4  and  N_5 
REMARK    3  A    between atoms: C_4  and  C_9 
REMARK       I    between atoms: N_5  and  C_6 
REMARK       I    between atoms: C_9  and  N_11 
REMARK    4  A    between atoms: N_11  and  C_12 
REMARK    5  A    between atoms: C_12  and  C_13 
REMARK    6  A    between atoms: C_16  and  N_20 
ROOT
HETATM    1  C   UNL     1     -39.641 -50.832  13.329  1.00  0.00     0.162 C 
ENDROOT
BRANCH   1   2
HETATM    2  N   UNL     1     -40.853 -51.542  13.669  1.00  0.00    -0.355 N 
HETATM    3  C   UNL     1     -41.220 -52.677  12.966  1.00  0.00     0.241 C 
HETATM    4  O   UNL     1     -40.491 -53.186  12.117  1.00  0.00    -0.271 OA
HETATM    5  H   UNL     1     -41.549 -51.074  14.230  1.00  0.00     0.162 HD
BRANCH   3   6
HETATM    6  C   UNL     1     -42.539 -53.348  13.422  1.00  0.00     0.179 C 
BRANCH   6   7
HETATM    7  C   UNL     1     -42.370 -54.028  14.802  1.00  0.00     0.009 C 
HETATM    8  C   UNL     1     -43.370 -55.173  14.999  1.00  0.00     0.012 C 
HETATM    9  C   UNL     1     -40.948 -54.576  14.979  1.00  0.00     0.012 C 
ENDBRANCH   6   7
BRANCH   6  10
HETATM   10  N   UNL     1     -43.605 -52.337  13.449  1.00  0.00    -0.348 N 
HETATM   11  C   UNL     1     -44.830 -52.590  12.874  1.00  0.00     0.214 C 
HETATM   12  O   UNL     1     -45.120 -53.644  12.321  1.00  0.00    -0.274 OA
HETATM   13  C   UNL     1     -45.825 -51.469  13.018  1.00  0.00     0.117 C 
HETATM   14  H   UNL     1     -43.437 -51.444  13.893  1.00  0.00     0.163 HD
ENDBRANCH   6  10
ENDBRANCH   3   6
ENDBRANCH   1   2
BRANCH   1  15
HETATM   15  C   UNL     1     -39.910 -49.560  12.581  1.00  0.00    -0.025 A 
HETATM   16  C   UNL     1     -39.587 -48.314  13.109  1.00  0.00     0.014 A 
HETATM   17  C   UNL     1     -39.923 -47.159  12.401  1.00  0.00     0.049 A 
HETATM   18  C   UNL     1     -40.582 -47.245  11.171  1.00  0.00     0.103 A 
HETATM   19  N   UNL     1     -40.884 -48.446  10.642  1.00  0.00    -0.352 N 
HETATM   20  C   UNL     1     -40.539 -49.562  11.341  1.00  0.00     0.098 A 
ATOM     21  HN  UNL     1     -41.357 -48.518   9.742  1.00  0.00     0.166 HD
BRANCH  18  22
HETATM   22  N   UNL     1     -40.997 -46.076  10.547  1.00  0.00    -0.363 N 
HETATM   23  C   UNL     1     -40.004 -45.028  10.268  1.00  0.00     0.150 C 
HETATM   24  C   UNL     1     -40.124 -43.838  11.229  1.00  0.00     0.187 C 
HETATM   25  O   UNL     1     -41.473 -43.342  11.285  1.00  0.00    -0.388 OA
HETATM   26  C   UNL     1     -42.346 -44.375  11.761  1.00  0.00     0.187 C 
HETATM   27  C   UNL     1     -42.357 -45.588  10.816  1.00  0.00     0.150 C 
ENDBRANCH  18  22
ENDBRANCH   1  15
TORSDOF 6
ENDMDL
MODEL 6
REMARK VINA RESULT:      -6.0      1.975      2.379
REMARK  6 active torsions:
REMARK  status: ('A' for Active; 'I' for Inactive)
REMARK    1  A    between atoms: C_2  and  C_4 
REMARK    2  A    between atoms: C_4  and  N_5 
REMARK    3  A    between atoms: C_4  and  C_9 
REMARK       I    between atoms: N_5  and  C_6 
REMARK       I    between atoms: C_9  and  N_11 
REMARK    4  A    between atoms: N_11  and  C_12 
REMARK    5  A    between atoms: C_12  and  C_13 
REMARK    6  A    between atoms: C_16  and  N_20 
ROOT
HETATM    1  C   UNL     1     -42.401 -47.813  14.212  1.00  0.00     0.162 C 
ENDROOT
BRANCH   1   2
HETATM    2  N   UNL     1     -42.127 -47.054  13.012  1.00  0.00    -0.355 N 
HETATM    3  C   UNL     1     -42.670 -45.792  12.843  1.00  0.00     0.241 C 
HETATM    4  O   UNL     1     -43.301 -45.226  13.733  1.00  0.00    -0.271 OA
HETATM    5  H   UNL     1     -41.764 -47.538  12.205  1.00  0.00     0.162 HD
BRANCH   3   6
HETATM    6  C   UNL     1     -42.306 -45.081  11.517  1.00  0.00     0.179 C 
BRANCH   6   7
HETATM    7  C   UNL     1     -40.832 -44.605  11.527  1.00  0.00     0.009 C 
HETATM    8  C   UNL     1     -39.977 -45.380  10.517  1.00  0.00     0.012 C 
HETATM    9  C   UNL     1     -40.732 -43.107  11.215  1.00  0.00     0.012 C 
ENDBRANCH   6   7
BRANCH   6  10
HETATM   10  N   UNL     1     -42.567 -45.995  10.396  1.00  0.00    -0.348 N 
HETATM   11  C   UNL     1     -43.361 -45.606   9.342  1.00  0.00     0.214 C 
HETATM   12  O   UNL     1     -43.888 -44.503   9.253  1.00  0.00    -0.274 OA
HETATM   13  C   UNL     1     -43.502 -46.642   8.258  1.00  0.00     0.117 C 
HETATM   14  H   UNL     1     -42.161 -46.921  10.401  1.00  0.00     0.163 HD
ENDBRANCH   6  10
ENDBRANCH   3   6
ENDBRANCH   1   2
BRANCH   1  15
HETATM   15  C   UNL     1     -42.740 -49.245  13.922  1.00  0.00    -0.025 A 
HETATM   16  C   UNL     1     -43.361 -50.059  14.863  1.00  0.00     0.014 A 
HETATM   17  C   UNL     1     -43.590 -51.404  14.566  1.00  0.00     0.049 A 
HETATM   18  C   UNL     1     -43.200 -51.936  13.334  1.00  0.00     0.103 A 
HETATM   19  N   UNL     1     -42.614 -51.153  12.407  1.00  0.00    -0.352 N 
HETATM   20  C   UNL     1     -42.408 -49.842  12.711  1.00  0.00     0.098 A 
ATOM     21  HN  UNL     1     -42.334 -51.531  11.503  1.00  0.00     0.166 HD
BRANCH  18  22
HETATM   22  N   UNL     1     -43.346 -53.300  13.113  1.00  0.00    -0.363 N 
HETATM   23  C   UNL     1     -44.679 -53.829  12.791  1.00  0.00     0.150 C 
HETATM   24  C   UNL     1     -45.316 -54.569  13.974  1.00  0.00     0.187 C 
HETATM   25  O   UNL     1     -44.426 -55.562  14.514  1.00  0.00    -0.388 OA
HETATM   26  C   UNL     1     -43.230 -54.928  14.989  1.00  0.00     0.187 C 
HETATM   27  C   UNL     1     -42.472 -54.222  13.853  1.00  0.00     0.150 C 
ENDBRANCH  18  22
ENDBRANCH   1  15
TORSDOF 6
ENDMDL
MODEL 7
REMARK VINA RESULT:      -6.0      1.837      2.357
REMARK  6 active torsions:
REMARK  status: ('A' for Active; 'I' for Inactive)
REMARK    1  A    between atoms: C_2  and  C_4 
REMARK    2  A    between atoms: C_4  and  N_5 
REMARK    3  A    between atoms: C_4  and  C_9 
REMARK       I    between atoms: N_5  and  C_6 
REMARK       I    between atoms: C_9  and  N_11 
REMARK    4  A    between atoms: N_11  and  C_12 
REMARK    5  A    between atoms: C_12  and  C_13 
REMARK    6  A    between atoms: C_16  and  N_20 
ROOT
HETATM    1  C   UNL     1     -41.763 -51.427  12.001  1.00  0.00     0.162 C 
ENDROOT
BRANCH   1   2
HETATM    2  N   UNL     1     -41.947 -50.027  11.689  1.00  0.00    -0.355 N 
HETATM    3  C   UNL     1     -40.852 -49.210  11.468  1.00  0.00     0.241 C 
HETATM    4  O   UNL     1     -39.706 -49.651  11.414  1.00  0.00    -0.271 OA
HETATM    5  H   UNL     1     -42.839 -49.599  11.886  1.00  0.00     0.162 HD
BRANCH   3   6
HETATM    6  C   UNL     1     -41.177 -47.731  11.144  1.00  0.00     0.179 C 
BRANCH   6   7
HETATM    7  C   UNL     1     -39.919 -46.840  11.291  1.00  0.00     0.009 C 
HETATM    8  C   UNL     1     -40.025 -45.563  10.449  1.00  0.00     0.012 C 
HETATM    9  C   UNL     1     -39.686 -46.449  12.756  1.00  0.00     0.012 C 
ENDBRANCH   6   7
BRANCH   6  10
HETATM   10  N   UNL     1     -41.736 -47.650   9.787  1.00  0.00    -0.348 N 
HETATM   11  C   UNL     1     -43.097 -47.619   9.588  1.00  0.00     0.214 C 
HETATM   12  O   UNL     1     -43.921 -47.646  10.494  1.00  0.00    -0.274 OA
HETATM   13  C   UNL     1     -43.508 -47.499   8.144  1.00  0.00     0.117 C 
HETATM   14  H   UNL     1     -41.113 -47.620   8.991  1.00  0.00     0.163 HD
ENDBRANCH   6  10
ENDBRANCH   3   6
ENDBRANCH   1   2
BRANCH   1  15
HETATM   15  C   UNL     1     -42.789 -51.940  12.968  1.00  0.00    -0.025 A 
HETATM   16  C   UNL     1     -43.151 -53.282  13.014  1.00  0.00     0.014 A 
HETATM   17  C   UNL     1     -44.162 -53.693  13.885  1.00  0.00     0.049 A 
HETATM   18  C   UNL     1     -44.812 -52.768  14.707  1.00  0.00     0.103 A 
HETATM   19  N   UNL     1     -44.458 -51.468  14.684  1.00  0.00    -0.352 N 
HETATM   20  C   UNL     1     -43.463 -51.088  13.836  1.00  0.00     0.098 A 
ATOM     21  HN  UNL     1     -44.921 -50.789  15.287  1.00  0.00     0.166 HD
BRANCH  18  22
HETATM   22  N   UNL     1     -45.884 -53.193  15.481  1.00  0.00    -0.363 N 
HETATM   23  C   UNL     1     -47.135 -52.420  15.448  1.00  0.00     0.150 C 
HETATM   24  C   UNL     1     -47.336 -51.580  16.716  1.00  0.00     0.187 C 
HETATM   25  O   UNL     1     -47.192 -52.378  17.904  1.00  0.00    -0.388 OA
HETATM   26  C   UNL     1     -45.870 -52.931  17.954  1.00  0.00     0.187 C 
HETATM   27  C   UNL     1     -45.598 -53.860  16.759  1.00  0.00     0.150 C 
ENDBRANCH  18  22
ENDBRANCH   1  15
TORSDOF 6
ENDMDL
MODEL 8
REMARK VINA RESULT:      -5.9      5.306      8.908
REMARK  6 active torsions:
REMARK  status: ('A' for Active; 'I' for Inactive)
REMARK    1  A    between atoms: C_2  and  C_4 
REMARK    2  A    between atoms: C_4  and  N_5 
REMARK    3  A    between atoms: C_4  and  C_9 
REMARK       I    between atoms: N_5  and  C_6 
REMARK       I    between atoms: C_9  and  N_11 
REMARK    4  A    between atoms: N_11  and  C_12 
REMARK    5  A    between atoms: C_12  and  C_13 
REMARK    6  A    between atoms: C_16  and  N_20 
ROOT
HETATM    1  C   UNL     1     -46.434 -52.358  18.583  1.00  0.00     0.162 C 
ENDROOT
BRANCH   1   2
HETATM    2  N   UNL     1     -46.032 -52.701  17.237  1.00  0.00    -0.355 N 
HETATM    3  C   UNL     1     -46.786 -52.284  16.154  1.00  0.00     0.241 C 
HETATM    4  O   UNL     1     -47.745 -51.524  16.277  1.00  0.00    -0.271 OA
HETATM    5  H   UNL     1     -45.365 -53.446  17.105  1.00  0.00     0.162 HD
BRANCH   3   6
HETATM    6  C   UNL     1     -46.255 -52.715  14.765  1.00  0.00     0.179 C 
BRANCH   6   7
HETATM    7  C   UNL     1     -46.184 -51.508  13.797  1.00  0.00     0.009 C 
HETATM    8  C   UNL     1     -44.768 -50.923  13.721  1.00  0.00     0.012 C 
HETATM    9  C   UNL     1     -46.634 -51.902  12.386  1.00  0.00     0.012 C 
ENDBRANCH   6   7
BRANCH   6  10
HETATM   10  N   UNL     1     -44.940 -53.348  14.931  1.00  0.00    -0.348 N 
HETATM   11  C   UNL     1     -44.736 -54.655  14.553  1.00  0.00     0.214 C 
HETATM   12  O   UNL     1     -45.602 -55.367  14.058  1.00  0.00    -0.274 OA
HETATM   13  C   UNL     1     -43.326 -55.145  14.754  1.00  0.00     0.117 C 
HETATM   14  H   UNL     1     -44.177 -52.818  15.330  1.00  0.00     0.163 HD
ENDBRANCH   6  10
ENDBRANCH   3   6
ENDBRANCH   1   2
BRANCH   1  15
HETATM   15  C   UNL     1     -47.065 -53.511  19.306  1.00  0.00    -0.025 A 
HETATM   16  C   UNL     1     -46.573 -54.807  19.194  1.00  0.00     0.014 A 
HETATM   17  C   UNL     1     -47.241 -55.854  19.833  1.00  0.00     0.049 A 
HETATM   18  C   UNL     1     -48.398 -55.610  20.578  1.00  0.00     0.103 A 
HETATM   19  N   UNL     1     -48.873 -54.356  20.708  1.00  0.00    -0.352 N 
HETATM   20  C   UNL     1     -48.204 -53.346  20.088  1.00  0.00     0.098 A 
ATOM     21  HN  UNL     1     -49.712 -54.168  21.257  1.00  0.00     0.166 HD
BRANCH  18  22
HETATM   22  N   UNL     1     -49.096 -56.686  21.110  1.00  0.00    -0.363 N 
HETATM   23  C   UNL     1     -48.946 -58.009  20.485  1.00  0.00     0.150 C 
HETATM   24  C   UNL     1     -50.172 -58.405  19.653  1.00  0.00     0.187 C 
HETATM   25  O   UNL     1     -51.387 -58.270  20.410  1.00  0.00    -0.388 OA
HETATM   26  C   UNL     1     -51.555 -56.902  20.809  1.00  0.00     0.187 C 
HETATM   27  C   UNL     1     -50.409 -56.432  21.719  1.00  0.00     0.150 C 
ENDBRANCH  18  22
ENDBRANCH   1  15
TORSDOF 6
ENDMDL
MODEL 9
REMARK VINA RESULT:      -5.7      2.243      8.170
REMARK  6 active torsions:
REMARK  status: ('A' for Active; 'I' for Inactive)
REMARK    1  A    between atoms: C_2  and  C_4 
REMARK    2  A    between atoms: C_4  and  N_5 
REMARK    3  A    between atoms: C_4  and  C_9 
REMARK       I    between atoms: N_5  and  C_6 
REMARK       I    between atoms: C_9  and  N_11 
REMARK    4  A    between atoms: N_11  and  C_12 
REMARK    5  A    between atoms: C_12  and  C_13 
REMARK    6  A    between atoms: C_16  and  N_20 
ROOT
HETATM    1  C   UNL     1     -40.264 -50.625  13.354  1.00  0.00     0.162 C 
ENDROOT
BRANCH   1   2
HETATM    2  N   UNL     1     -41.525 -50.935  13.990  1.00  0.00    -0.355 N 
HETATM    3  C   UNL     1     -42.080 -52.197  13.864  1.00  0.00     0.241 C 
HETATM    4  O   UNL     1     -41.484 -53.123  13.317  1.00  0.00    -0.271 OA
HETATM    5  H   UNL     1     -42.114 -50.176  14.297  1.00  0.00     0.162 HD
BRANCH   3   6
HETATM    6  C   UNL     1     -43.432 -52.407  14.588  1.00  0.00     0.179 C 
BRANCH   6   7
HETATM    7  C   UNL     1     -44.249 -51.093  14.633  1.00  0.00     0.009 C 
HETATM    8  C   UNL     1     -45.356 -51.074  13.572  1.00  0.00     0.012 C 
HETATM    9  C   UNL     1     -44.883 -50.882  16.014  1.00  0.00     0.012 C 
ENDBRANCH   6   7
BRANCH   6  10
HETATM   10  N   UNL     1     -44.176 -53.478  13.911  1.00  0.00    -0.348 N 
HETATM   11  C   UNL     1     -44.787 -54.476  14.634  1.00  0.00     0.214 C 
HETATM   12  O   UNL     1     -44.767 -54.544  15.857  1.00  0.00    -0.274 OA
HETATM   13  C   UNL     1     -45.538 -55.477  13.796  1.00  0.00     0.117 C 
HETATM   14  H   UNL     1     -44.237 -53.483  12.901  1.00  0.00     0.163 HD
ENDBRANCH   6  10
ENDBRANCH   3   6
ENDBRANCH   1   2
BRANCH   1  15
HETATM   15  C   UNL     1     -40.331 -49.378  12.523  1.00  0.00    -0.025 A 
HETATM   16  C   UNL     1     -39.720 -48.194  12.921  1.00  0.00     0.014 A 
HETATM   17  C   UNL     1     -39.873 -47.045  12.143  1.00  0.00     0.049 A 
HETATM   18  C   UNL     1     -40.635 -47.075  10.972  1.00  0.00     0.103 A 
HETATM   19  N   UNL     1     -41.217 -48.221  10.567  1.00  0.00    -0.352 N 
HETATM   20  C   UNL     1     -41.049 -49.334  11.332  1.00  0.00     0.098 A 
ATOM     21  HN  UNL     1     -41.768 -48.253   9.709  1.00  0.00     0.166 HD
BRANCH  18  22
HETATM   22  N   UNL     1     -40.855 -45.891  10.281  1.00  0.00    -0.363 N 
HETATM   23  C   UNL     1     -39.813 -44.852  10.301  1.00  0.00     0.150 C 
HETATM   24  C   UNL     1     -40.178 -43.677  11.216  1.00  0.00     0.187 C 
HETATM   25  O   UNL     1     -41.487 -43.162  10.916  1.00  0.00    -0.388 OA
HETATM   26  C   UNL     1     -42.466 -44.191  11.118  1.00  0.00     0.187 C 
HETATM   27  C   UNL     1     -42.232 -45.388  10.182  1.00  0.00     0.150 C 
ENDBRANCH  18  22
ENDBRANCH   1  15
TORSDOF 6
ENDMDL
