MODEL 1
REMARK VINA RESULT:      -6.8      0.000      0.000
REMARK  3 active torsions:
REMARK  status: ('A' for Active; 'I' for Inactive)
REMARK    1  A    between atoms: C_8  and  N_9 
REMARK       I    between atoms: N_9  and  C_10 
REMARK       I    between atoms: C_10  and  N_12 
REMARK    2  A    between atoms: N_12  and  C_13 
REMARK    3  A    between atoms: C_17  and  C_19 
ROOT
HETATM    1  N   UNL     1     -41.911 -49.325  11.063  1.00  0.00    -0.308 N 
HETATM    2  C   UNL     1     -42.054 -49.942  12.289  1.00  0.00     0.321 C 
HETATM    3  O   UNL     1     -41.894 -49.413  13.384  1.00  0.00    -0.247 OA
HETATM    4  N   UNL     1     -42.423 -51.268  12.204  1.00  0.00    -0.338 N 
HETATM    5  H   UNL     1     -41.941 -49.910  10.248  1.00  0.00     0.170 HD
HETATM    6  H   UNL     1     -42.318 -51.758  11.327  1.00  0.00     0.164 HD
ENDROOT
BRANCH   1   7
HETATM    7  C   UNL     1     -41.602 -47.944  10.871  1.00  0.00     0.044 A 
HETATM    8  C   UNL     1     -42.587 -47.040  10.439  1.00  0.00    -0.020 A 
HETATM    9  C   UNL     1     -44.014 -47.407  10.167  1.00  0.00     0.052 C 
HETATM   10  C   UNL     1     -42.206 -45.705  10.266  1.00  0.00     0.096 A 
HETATM   11  N   UNL     1     -40.962 -45.222  10.476  1.00  0.00    -0.375 N 
HETATM   12  C   UNL     1     -40.047 -46.107  10.895  1.00  0.00     0.090 A 
ATOM     13  HN  UNL     1     -40.732 -44.240  10.324  1.00  0.00     0.164 HD
HETATM   14  C   UNL     1     -40.318 -47.444  11.113  1.00  0.00     0.047 A 
ENDBRANCH   1   7
BRANCH   4  15
HETATM   15  C   UNL     1     -42.632 -52.029  13.438  1.00  0.00     0.086 C 
HETATM   16  C   UNL     1     -42.571 -53.542  13.215  1.00  0.00     0.025 C 
HETATM   17  C   UNL     1     -43.796 -54.089  12.492  1.00  0.00     0.003 C 
HETATM   18  C   UNL     1     -45.099 -53.664  13.165  1.00  0.00     0.014 C 
HETATM   19  C   UNL     1     -45.182 -52.142  13.347  1.00  0.00     0.095 C 
HETATM   20  C   UNL     1     -43.954 -51.630  14.117  1.00  0.00     0.038 C 
BRANCH  19  21
HETATM   21  C   UNL     1     -46.489 -51.711  14.017  1.00  0.00     0.391 C 
HETATM   22  F   UNL     1     -47.175 -52.764  14.517  1.00  0.00    -0.171 F 
HETATM   23  F   UNL     1     -46.293 -50.842  15.031  1.00  0.00    -0.171 F 
HETATM   24  F   UNL     1     -47.298 -51.105  13.117  1.00  0.00    -0.171 F 
ENDBRANCH  19  21
ENDBRANCH   4  15
TORSDOF 3
ENDMDL
MODEL 2
REMARK VINA RESULT:      -6.2      4.008      7.439
REMARK  3 active torsions:
REMARK  status: ('A' for Active; 'I' for Inactive)
REMARK    1  A    between atoms: C_8  and  N_9 
REMARK       I    between atoms: N_9  and  C_10 
REMARK       I    between atoms: C_10  and  N_12 
REMARK    2  A    between atoms: N_12  and  C_13 
REMARK    3  A    between atoms: C_17  and  C_19 
ROOT
HETATM    1  N   UNL     1     -44.116 -51.818  12.721  1.00  0.00    -0.308 N 
HETATM    2  C   UNL     1     -43.365 -50.921  13.455  1.00  0.00     0.321 C 
HETATM    3  O   UNL     1     -43.304 -50.867  14.679  1.00  0.00    -0.247 OA
HETATM    4  N   UNL     1     -42.632 -50.047  12.682  1.00  0.00    -0.338 N 
HETATM    5  H   UNL     1     -44.177 -51.663  11.731  1.00  0.00     0.170 HD
HETATM    6  H   UNL     1     -42.864 -49.932  11.705  1.00  0.00     0.164 HD
ENDROOT
BRANCH   1   7
HETATM    7  C   UNL     1     -44.911 -52.868  13.274  1.00  0.00     0.044 A 
HETATM    8  C   UNL     1     -46.127 -52.585  13.918  1.00  0.00    -0.020 A 
HETATM    9  C   UNL     1     -46.709 -51.212  14.069  1.00  0.00     0.052 C 
HETATM   10  C   UNL     1     -46.846 -53.666  14.442  1.00  0.00     0.096 A 
HETATM   11  N   UNL     1     -46.455 -54.957  14.381  1.00  0.00    -0.375 N 
HETATM   12  C   UNL     1     -45.295 -55.195  13.752  1.00  0.00     0.090 A 
ATOM     13  HN  UNL     1     -47.010 -55.708  14.789  1.00  0.00     0.164 HD
HETATM   14  C   UNL     1     -44.514 -54.206  13.187  1.00  0.00     0.047 A 
ENDBRANCH   1   7
BRANCH   4  15
HETATM   15  C   UNL     1     -41.772 -49.062  13.342  1.00  0.00     0.086 C 
HETATM   16  C   UNL     1     -41.891 -47.666  12.723  1.00  0.00     0.025 C 
HETATM   17  C   UNL     1     -41.221 -47.559  11.359  1.00  0.00     0.003 C 
HETATM   18  C   UNL     1     -39.775 -48.049  11.387  1.00  0.00     0.014 C 
HETATM   19  C   UNL     1     -39.660 -49.467  11.964  1.00  0.00     0.095 C 
HETATM   20  C   UNL     1     -40.306 -49.529  13.358  1.00  0.00     0.038 C 
BRANCH  19  21
HETATM   21  C   UNL     1     -38.212 -49.964  11.990  1.00  0.00     0.391 C 
HETATM   22  F   UNL     1     -38.110 -51.205  12.516  1.00  0.00    -0.171 F 
HETATM   23  F   UNL     1     -37.653 -50.001  10.762  1.00  0.00    -0.171 F 
HETATM   24  F   UNL     1     -37.451 -49.147  12.755  1.00  0.00    -0.171 F 
ENDBRANCH  19  21
ENDBRANCH   4  15
TORSDOF 3
ENDMDL
MODEL 3
REMARK VINA RESULT:      -6.1      3.896      7.413
REMARK  3 active torsions:
REMARK  status: ('A' for Active; 'I' for Inactive)
REMARK    1  A    between atoms: C_8  and  N_9 
REMARK       I    between atoms: N_9  and  C_10 
REMARK       I    between atoms: C_10  and  N_12 
REMARK    2  A    between atoms: N_12  and  C_13 
REMARK    3  A    between atoms: C_17  and  C_19 
ROOT
HETATM    1  N   UNL     1     -44.725 -51.066  12.994  1.00  0.00    -0.308 N 
HETATM    2  C   UNL     1     -43.610 -50.445  13.518  1.00  0.00     0.321 C 
HETATM    3  O   UNL     1     -42.903 -50.878  14.423  1.00  0.00    -0.247 OA
HETATM    4  N   UNL     1     -43.311 -49.240  12.918  1.00  0.00    -0.338 N 
HETATM    5  H   UNL     1     -45.285 -50.538  12.350  1.00  0.00     0.170 HD
HETATM    6  H   UNL     1     -44.012 -48.777  12.357  1.00  0.00     0.164 HD
ENDROOT
BRANCH   1   7
HETATM    7  C   UNL     1     -45.210 -52.350  13.389  1.00  0.00     0.044 A 
HETATM    8  C   UNL     1     -46.245 -52.467  14.333  1.00  0.00    -0.020 A 
HETATM    9  C   UNL     1     -46.936 -51.307  14.983  1.00  0.00     0.052 C 
HETATM   10  C   UNL     1     -46.661 -53.758  14.677  1.00  0.00     0.096 A 
HETATM   11  N   UNL     1     -46.140 -54.898  14.175  1.00  0.00    -0.375 N 
HETATM   12  C   UNL     1     -45.161 -54.753  13.270  1.00  0.00     0.090 A 
ATOM     13  HN  UNL     1     -46.472 -55.817  14.467  1.00  0.00     0.164 HD
HETATM   14  C   UNL     1     -44.684 -53.527  12.849  1.00  0.00     0.047 A 
ENDBRANCH   1   7
BRANCH   4  15
HETATM   15  C   UNL     1     -42.134 -48.493  13.367  1.00  0.00     0.086 C 
HETATM   16  C   UNL     1     -42.447 -47.536  14.520  1.00  0.00     0.025 C 
HETATM   17  C   UNL     1     -43.242 -46.313  14.081  1.00  0.00     0.003 C 
HETATM   18  C   UNL     1     -42.586 -45.593  12.903  1.00  0.00     0.014 C 
HETATM   19  C   UNL     1     -42.314 -46.543  11.729  1.00  0.00     0.095 C 
HETATM   20  C   UNL     1     -41.475 -47.742  12.197  1.00  0.00     0.038 C 
BRANCH  19  21
HETATM   21  C   UNL     1     -41.662 -45.824  10.545  1.00  0.00     0.391 C 
HETATM   22  F   UNL     1     -41.668 -44.481  10.700  1.00  0.00    -0.171 F 
HETATM   23  F   UNL     1     -40.380 -46.200  10.350  1.00  0.00    -0.171 F 
HETATM   24  F   UNL     1     -42.340 -46.093   9.404  1.00  0.00    -0.171 F 
ENDBRANCH  19  21
ENDBRANCH   4  15
TORSDOF 3
ENDMDL
MODEL 4
REMARK VINA RESULT:      -6.1      3.349      7.027
REMARK  3 active torsions:
REMARK  status: ('A' for Active; 'I' for Inactive)
REMARK    1  A    between atoms: C_8  and  N_9 
REMARK       I    between atoms: N_9  and  C_10 
REMARK       I    between atoms: C_10  and  N_12 
REMARK    2  A    between atoms: N_12  and  C_13 
REMARK    3  A    between atoms: C_17  and  C_19 
ROOT
HETATM    1  N   UNL     1     -43.927 -50.563  13.566  1.00  0.00    -0.308 N 
HETATM    2  C   UNL     1     -42.911 -50.180  12.714  1.00  0.00     0.321 C 
HETATM    3  O   UNL     1     -42.128 -50.933  12.144  1.00  0.00    -0.247 OA
HETATM    4  N   UNL     1     -42.832 -48.818  12.520  1.00  0.00    -0.338 N 
HETATM    5  H   UNL     1     -44.405 -49.836  14.067  1.00  0.00     0.170 HD
HETATM    6  H   UNL     1     -43.304 -48.196  13.161  1.00  0.00     0.164 HD
ENDROOT
BRANCH   1   7
HETATM    7  C   UNL     1     -44.266 -51.914  13.884  1.00  0.00     0.044 A 
HETATM    8  C   UNL     1     -45.462 -52.483  13.416  1.00  0.00    -0.020 A 
HETATM    9  C   UNL     1     -46.460 -51.773  12.551  1.00  0.00     0.052 C 
HETATM   10  C   UNL     1     -45.729 -53.809  13.775  1.00  0.00     0.096 A 
HETATM   11  N   UNL     1     -44.928 -54.579  14.543  1.00  0.00    -0.375 N 
HETATM   12  C   UNL     1     -43.790 -54.010  14.966  1.00  0.00     0.090 A 
ATOM     13  HN  UNL     1     -45.174 -55.538  14.786  1.00  0.00     0.164 HD
HETATM   14  C   UNL     1     -43.421 -52.715  14.659  1.00  0.00     0.047 A 
ENDBRANCH   1   7
BRANCH   4  15
HETATM   15  C   UNL     1     -41.811 -48.285  11.615  1.00  0.00     0.086 C 
HETATM   16  C   UNL     1     -41.191 -46.982  12.127  1.00  0.00     0.025 C 
HETATM   17  C   UNL     1     -42.131 -45.789  12.010  1.00  0.00     0.003 C 
HETATM   18  C   UNL     1     -42.696 -45.637  10.599  1.00  0.00     0.014 C 
HETATM   19  C   UNL     1     -43.359 -46.929  10.103  1.00  0.00     0.095 C 
HETATM   20  C   UNL     1     -42.371 -48.103  10.193  1.00  0.00     0.038 C 
BRANCH  19  21
HETATM   21  C   UNL     1     -43.931 -46.779   8.691  1.00  0.00     0.391 C 
HETATM   22  F   UNL     1     -44.136 -47.975   8.096  1.00  0.00    -0.171 F 
HETATM   23  F   UNL     1     -45.106 -46.115   8.674  1.00  0.00    -0.171 F 
HETATM   24  F   UNL     1     -43.067 -46.092   7.908  1.00  0.00    -0.171 F 
ENDBRANCH  19  21
ENDBRANCH   4  15
TORSDOF 3
ENDMDL
MODEL 5
REMARK VINA RESULT:      -6.1      2.992      6.641
REMARK  3 active torsions:
REMARK  status: ('A' for Active; 'I' for Inactive)
REMARK    1  A    between atoms: C_8  and  N_9 
REMARK       I    between atoms: N_9  and  C_10 
REMARK       I    between atoms: C_10  and  N_12 
REMARK    2  A    between atoms: N_12  and  C_13 
REMARK    3  A    between atoms: C_17  and  C_19 
ROOT
HETATM    1  N   UNL     1     -41.222 -50.486  13.036  1.00  0.00    -0.308 N 
HETATM    2  C   UNL     1     -40.907 -49.803  11.879  1.00  0.00     0.321 C 
HETATM    3  O   UNL     1     -40.173 -50.206  10.982  1.00  0.00    -0.247 OA
HETATM    4  N   UNL     1     -41.515 -48.569  11.778  1.00  0.00    -0.338 N 
HETATM    5  H   UNL     1     -41.726 -49.983  13.744  1.00  0.00     0.170 HD
HETATM    6  H   UNL     1     -41.912 -48.143  12.603  1.00  0.00     0.164 HD
ENDROOT
BRANCH   1   7
HETATM    7  C   UNL     1     -40.781 -51.806  13.356  1.00  0.00     0.044 A 
HETATM    8  C   UNL     1     -41.600 -52.919  13.101  1.00  0.00    -0.020 A 
HETATM    9  C   UNL     1     -42.959 -52.846  12.474  1.00  0.00     0.052 C 
HETATM   10  C   UNL     1     -41.102 -54.179  13.449  1.00  0.00     0.096 A 
HETATM   11  N   UNL     1     -39.898 -54.406  14.016  1.00  0.00    -0.375 N 
HETATM   12  C   UNL     1     -39.136 -53.325  14.238  1.00  0.00     0.090 A 
ATOM     13  HN  UNL     1     -39.585 -55.345  14.261  1.00  0.00     0.164 HD
HETATM   14  C   UNL     1     -39.522 -52.038  13.921  1.00  0.00     0.047 A 
ENDBRANCH   1   7
BRANCH   4  15
HETATM   15  C   UNL     1     -41.282 -47.756  10.583  1.00  0.00     0.086 C 
HETATM   16  C   UNL     1     -40.984 -46.292  10.915  1.00  0.00     0.025 C 
HETATM   17  C   UNL     1     -42.216 -45.524  11.380  1.00  0.00     0.003 C 
HETATM   18  C   UNL     1     -43.384 -45.663  10.406  1.00  0.00     0.014 C 
HETATM   19  C   UNL     1     -43.712 -47.132  10.108  1.00  0.00     0.095 C 
HETATM   20  C   UNL     1     -42.461 -47.866   9.600  1.00  0.00     0.038 C 
BRANCH  19  21
HETATM   21  C   UNL     1     -44.885 -47.275   9.136  1.00  0.00     0.391 C 
HETATM   22  F   UNL     1     -45.411 -46.078   8.793  1.00  0.00    -0.171 F 
HETATM   23  F   UNL     1     -44.540 -47.904   7.992  1.00  0.00    -0.171 F 
HETATM   24  F   UNL     1     -45.880 -47.994   9.707  1.00  0.00    -0.171 F 
ENDBRANCH  19  21
ENDBRANCH   4  15
TORSDOF 3
ENDMDL
MODEL 6
REMARK VINA RESULT:      -5.9      3.699      7.144
REMARK  3 active torsions:
REMARK  status: ('A' for Active; 'I' for Inactive)
REMARK    1  A    between atoms: C_8  and  N_9 
REMARK       I    between atoms: N_9  and  C_10 
REMARK       I    between atoms: C_10  and  N_12 
REMARK    2  A    between atoms: N_12  and  C_13 
REMARK    3  A    between atoms: C_17  and  C_19 
ROOT
HETATM    1  N   UNL     1     -43.137 -52.310  14.190  1.00  0.00    -0.308 N 
HETATM    2  C   UNL     1     -42.273 -52.209  13.118  1.00  0.00     0.321 C 
HETATM    3  O   UNL     1     -42.376 -52.806  12.052  1.00  0.00    -0.247 OA
HETATM    4  N   UNL     1     -41.230 -51.330  13.325  1.00  0.00    -0.338 N 
HETATM    5  H   UNL     1     -42.859 -51.867  15.047  1.00  0.00     0.170 HD
HETATM    6  H   UNL     1     -41.012 -51.032  14.265  1.00  0.00     0.164 HD
ENDROOT
BRANCH   1   7
HETATM    7  C   UNL     1     -44.329 -53.096  14.211  1.00  0.00     0.044 A 
HETATM    8  C   UNL     1     -45.561 -52.523  14.566  1.00  0.00    -0.020 A 
HETATM    9  C   UNL     1     -45.755 -51.080  14.925  1.00  0.00     0.052 C 
HETATM   10  C   UNL     1     -46.684 -53.358  14.572  1.00  0.00     0.096 A 
HETATM   11  N   UNL     1     -46.670 -54.674  14.268  1.00  0.00    -0.375 N 
HETATM   12  C   UNL     1     -45.481 -55.189  13.925  1.00  0.00     0.090 A 
ATOM     13  HN  UNL     1     -47.515 -55.243  14.299  1.00  0.00     0.164 HD
HETATM   14  C   UNL     1     -44.314 -54.453  13.872  1.00  0.00     0.047 A 
ENDBRANCH   1   7
BRANCH   4  15
HETATM   15  C   UNL     1     -40.258 -51.113  12.252  1.00  0.00     0.086 C 
HETATM   16  C   UNL     1     -38.831 -50.937  12.777  1.00  0.00     0.025 C 
HETATM   17  C   UNL     1     -38.607 -49.591  13.455  1.00  0.00     0.003 C 
HETATM   18  C   UNL     1     -39.040 -48.422  12.573  1.00  0.00     0.014 C 
HETATM   19  C   UNL     1     -40.487 -48.575  12.084  1.00  0.00     0.095 C 
HETATM   20  C   UNL     1     -40.666 -49.923  11.367  1.00  0.00     0.038 C 
BRANCH  19  21
HETATM   21  C   UNL     1     -40.926 -47.403  11.203  1.00  0.00     0.391 C 
HETATM   22  F   UNL     1     -41.526 -47.819  10.065  1.00  0.00    -0.171 F 
HETATM   23  F   UNL     1     -41.787 -46.574  11.831  1.00  0.00    -0.171 F 
HETATM   24  F   UNL     1     -39.851 -46.667  10.836  1.00  0.00    -0.171 F 
ENDBRANCH  19  21
ENDBRANCH   4  15
TORSDOF 3
ENDMDL
MODEL 7
REMARK VINA RESULT:      -5.9      4.010      7.403
REMARK  3 active torsions:
REMARK  status: ('A' for Active; 'I' for Inactive)
REMARK    1  A    between atoms: C_8  and  N_9 
REMARK       I    between atoms: N_9  and  C_10 
REMARK       I    between atoms: C_10  and  N_12 
REMARK    2  A    between atoms: N_12  and  C_13 
REMARK    3  A    between atoms: C_17  and  C_19 
ROOT
HETATM    1  N   UNL     1     -42.554 -52.198  14.132  1.00  0.00    -0.308 N 
HETATM    2  C   UNL     1     -41.674 -51.934  13.102  1.00  0.00     0.321 C 
HETATM    3  O   UNL     1     -41.836 -52.232  11.923  1.00  0.00    -0.247 OA
HETATM    4  N   UNL     1     -40.538 -51.261  13.500  1.00  0.00    -0.338 N 
HETATM    5  H   UNL     1     -42.234 -52.018  15.067  1.00  0.00     0.170 HD
HETATM    6  H   UNL     1     -40.295 -51.233  14.480  1.00  0.00     0.164 HD
ENDROOT
BRANCH   1   7
HETATM    7  C   UNL     1     -43.829 -52.822  13.982  1.00  0.00     0.044 A 
HETATM    8  C   UNL     1     -44.013 -54.173  14.321  1.00  0.00    -0.020 A 
HETATM    9  C   UNL     1     -42.942 -55.062  14.876  1.00  0.00     0.052 C 
HETATM   10  C   UNL     1     -45.290 -54.716  14.138  1.00  0.00     0.096 A 
HETATM   11  N   UNL     1     -46.355 -54.042  13.654  1.00  0.00    -0.375 N 
HETATM   12  C   UNL     1     -46.150 -52.753  13.347  1.00  0.00     0.090 A 
ATOM     13  HN  UNL     1     -47.264 -54.488  13.528  1.00  0.00     0.164 HD
HETATM   14  C   UNL     1     -44.936 -52.113  13.502  1.00  0.00     0.047 A 
ENDBRANCH   1   7
BRANCH   4  15
HETATM   15  C   UNL     1     -39.537 -50.898  12.495  1.00  0.00     0.086 C 
HETATM   16  C   UNL     1     -38.103 -51.031  13.016  1.00  0.00     0.025 C 
HETATM   17  C   UNL     1     -37.725 -49.936  14.005  1.00  0.00     0.003 C 
HETATM   18  C   UNL     1     -38.006 -48.539  13.454  1.00  0.00     0.014 C 
HETATM   19  C   UNL     1     -39.456 -48.391  12.974  1.00  0.00     0.095 C 
HETATM   20  C   UNL     1     -39.791 -49.483  11.946  1.00  0.00     0.038 C 
BRANCH  19  21
HETATM   21  C   UNL     1     -39.743 -46.991  12.426  1.00  0.00     0.391 C 
HETATM   22  F   UNL     1     -38.995 -46.044  13.035  1.00  0.00    -0.171 F 
HETATM   23  F   UNL     1     -39.511 -46.894  11.100  1.00  0.00    -0.171 F 
HETATM   24  F   UNL     1     -41.040 -46.665  12.634  1.00  0.00    -0.171 F 
ENDBRANCH  19  21
ENDBRANCH   4  15
TORSDOF 3
ENDMDL
MODEL 8
REMARK VINA RESULT:      -5.9     20.089     21.298
REMARK  3 active torsions:
REMARK  status: ('A' for Active; 'I' for Inactive)
REMARK    1  A    between atoms: C_8  and  N_9 
REMARK       I    between atoms: N_9  and  C_10 
REMARK       I    between atoms: C_10  and  N_12 
REMARK    2  A    between atoms: N_12  and  C_13 
REMARK    3  A    between atoms: C_17  and  C_19 
ROOT
HETATM    1  N   UNL     1     -32.748 -48.973  -3.973  1.00  0.00    -0.308 N 
HETATM    2  C   UNL     1     -32.549 -49.772  -5.080  1.00  0.00     0.321 C 
HETATM    3  O   UNL     1     -32.676 -49.424  -6.250  1.00  0.00    -0.247 OA
HETATM    4  N   UNL     1     -32.161 -51.059  -4.775  1.00  0.00    -0.338 N 
HETATM    5  H   UNL     1     -32.740 -49.423  -3.075  1.00  0.00     0.170 HD
HETATM    6  H   UNL     1     -32.291 -51.408  -3.836  1.00  0.00     0.164 HD
ENDROOT
BRANCH   1   7
HETATM    7  C   UNL     1     -33.089 -47.587  -4.011  1.00  0.00     0.044 A 
HETATM    8  C   UNL     1     -32.089 -46.600  -3.971  1.00  0.00    -0.020 A 
HETATM    9  C   UNL     1     -30.618 -46.884  -3.908  1.00  0.00     0.052 C 
HETATM   10  C   UNL     1     -32.500 -45.263  -4.005  1.00  0.00     0.096 A 
HETATM   11  N   UNL     1     -33.785 -44.851  -4.066  1.00  0.00    -0.375 N 
HETATM   12  C   UNL     1     -34.714 -45.815  -4.112  1.00  0.00     0.090 A 
ATOM     13  HN  UNL     1     -34.033 -43.862  -4.077  1.00  0.00     0.164 HD
HETATM   14  C   UNL     1     -34.419 -47.165  -4.099  1.00  0.00     0.047 A 
ENDBRANCH   1   7
BRANCH   4  15
HETATM   15  C   UNL     1     -31.892 -51.999  -5.866  1.00  0.00     0.086 C 
HETATM   16  C   UNL     1     -32.788 -53.239  -5.810  1.00  0.00     0.025 C 
HETATM   17  C   UNL     1     -32.409 -54.199  -4.689  1.00  0.00     0.003 C 
HETATM   18  C   UNL     1     -30.927 -54.566  -4.721  1.00  0.00     0.014 C 
HETATM   19  C   UNL     1     -30.026 -53.323  -4.730  1.00  0.00     0.095 C 
HETATM   20  C   UNL     1     -30.406 -52.399  -5.898  1.00  0.00     0.038 C 
BRANCH  19  21
HETATM   21  C   UNL     1     -28.540 -53.688  -4.757  1.00  0.00     0.391 C 
HETATM   22  F   UNL     1     -27.895 -53.112  -5.796  1.00  0.00    -0.171 F 
HETATM   23  F   UNL     1     -27.894 -53.321  -3.630  1.00  0.00    -0.171 F 
HETATM   24  F   UNL     1     -28.390 -55.026  -4.893  1.00  0.00    -0.171 F 
ENDBRANCH  19  21
ENDBRANCH   4  15
TORSDOF 3
ENDMDL
MODEL 9
REMARK VINA RESULT:      -5.7      3.713      4.627
REMARK  3 active torsions:
REMARK  status: ('A' for Active; 'I' for Inactive)
REMARK    1  A    between atoms: C_8  and  N_9 
REMARK       I    between atoms: N_9  and  C_10 
REMARK       I    between atoms: C_10  and  N_12 
REMARK    2  A    between atoms: N_12  and  C_13 
REMARK    3  A    between atoms: C_17  and  C_19 
ROOT
HETATM    1  N   UNL     1     -42.008 -50.020  12.821  1.00  0.00    -0.308 N 
HETATM    2  C   UNL     1     -41.944 -51.342  12.433  1.00  0.00     0.321 C 
HETATM    3  O   UNL     1     -41.455 -51.763  11.389  1.00  0.00    -0.247 OA
HETATM    4  N   UNL     1     -42.482 -52.219  13.351  1.00  0.00    -0.338 N 
HETATM    5  H   UNL     1     -42.554 -49.807  13.637  1.00  0.00     0.170 HD
HETATM    6  H   UNL     1     -43.088 -51.866  14.078  1.00  0.00     0.164 HD
ENDROOT
BRANCH   1   7
HETATM    7  C   UNL     1     -41.466 -48.922  12.086  1.00  0.00     0.044 A 
HETATM    8  C   UNL     1     -40.162 -48.463  12.338  1.00  0.00    -0.020 A 
HETATM    9  C   UNL     1     -39.230 -49.065  13.346  1.00  0.00     0.052 C 
HETATM   10  C   UNL     1     -39.703 -47.377  11.583  1.00  0.00     0.096 A 
HETATM   11  N   UNL     1     -40.422 -46.734  10.638  1.00  0.00    -0.375 N 
HETATM   12  C   UNL     1     -41.659 -47.200  10.416  1.00  0.00     0.090 A 
ATOM     13  HN  UNL     1     -40.045 -45.938  10.123  1.00  0.00     0.164 HD
HETATM   14  C   UNL     1     -42.205 -48.274  11.091  1.00  0.00     0.047 A 
ENDBRANCH   1   7
BRANCH   4  15
HETATM   15  C   UNL     1     -42.450 -53.655  13.068  1.00  0.00     0.086 C 
HETATM   16  C   UNL     1     -43.643 -54.401  13.671  1.00  0.00     0.025 C 
HETATM   17  C   UNL     1     -43.553 -54.545  15.186  1.00  0.00     0.003 C 
HETATM   18  C   UNL     1     -42.220 -55.146  15.628  1.00  0.00     0.014 C 
HETATM   19  C   UNL     1     -41.023 -54.371  15.061  1.00  0.00     0.095 C 
HETATM   20  C   UNL     1     -41.123 -54.282  13.530  1.00  0.00     0.038 C 
BRANCH  19  21
HETATM   21  C   UNL     1     -39.686 -54.967  15.506  1.00  0.00     0.391 C 
HETATM   22  F   UNL     1     -38.943 -54.082  16.208  1.00  0.00    -0.171 F 
HETATM   23  F   UNL     1     -39.836 -56.065  16.278  1.00  0.00    -0.171 F 
HETATM   24  F   UNL     1     -38.953 -55.329  14.427  1.00  0.00    -0.171 F 
ENDBRANCH  19  21
ENDBRANCH   4  15
TORSDOF 3
ENDMDL
