MODEL 1
REMARK VINA RESULT:      -6.9      0.000      0.000
REMARK  4 active torsions:
REMARK  status: ('A' for Active; 'I' for Inactive)
REMARK    1  A    between atoms: C_2  and  C_5 
REMARK    2  A    between atoms: C_5  and  N_6 
REMARK    3  A    between atoms: C_5  and  C_18 
REMARK       I    between atoms: N_6  and  C_7 
REMARK       I    between atoms: C_7  and  N_9 
REMARK    4  A    between atoms: N_9  and  C_10 
ROOT
HETATM    1  N   UNL     1     -41.270 -48.166  10.280  1.00  0.00    -0.329 N 
HETATM    2  C   UNL     1     -41.383 -49.178  11.198  1.00  0.00     0.322 C 
HETATM    3  O   UNL     1     -42.239 -49.170  12.072  1.00  0.00    -0.247 OA
HETATM    4  N   UNL     1     -40.492 -50.197  10.963  1.00  0.00    -0.294 N 
HETATM    5  H   UNL     1     -40.403 -48.063   9.766  1.00  0.00     0.165 HD
HETATM    6  H   UNL     1     -40.289 -50.375   9.992  1.00  0.00     0.172 HD
ENDROOT
BRANCH   1   7
HETATM    7  C   UNL     1     -42.290 -47.096  10.188  1.00  0.00     0.197 C 
BRANCH   7   8
HETATM    8  C   UNL     1     -43.309 -47.323   9.043  1.00  0.00     0.407 C 
HETATM    9  F   UNL     1     -44.488 -47.785   9.533  1.00  0.00    -0.169 F 
HETATM   10  F   UNL     1     -42.899 -48.210   8.115  1.00  0.00    -0.169 F 
HETATM   11  F   UNL     1     -43.577 -46.163   8.399  1.00  0.00    -0.169 F 
ENDBRANCH   7   8
BRANCH   7  12
HETATM   12  C   UNL     1     -41.658 -45.688  10.251  1.00  0.00     0.017 C 
HETATM   13  C   UNL     1     -40.160 -45.696  10.590  1.00  0.00     0.007 C 
HETATM   14  C   UNL     1     -39.899 -44.436  11.412  1.00  0.00     0.000 C 
HETATM   15  C   UNL     1     -41.203 -43.649  11.409  1.00  0.00     0.000 C 
HETATM   16  C   UNL     1     -42.284 -44.708  11.245  1.00  0.00     0.007 C 
ENDBRANCH   7  12
ENDBRANCH   1   7
BRANCH   4  17
HETATM   17  C   UNL     1     -40.521 -51.375  11.727  1.00  0.00     0.123 A 
HETATM   18  C   UNL     1     -39.769 -51.527  12.883  1.00  0.00     0.051 A 
HETATM   19  C   UNL     1     -39.933 -52.680  13.639  1.00  0.00     0.022 A 
HETATM   20  C   UNL     1     -40.840 -53.622  13.196  1.00  0.00     0.107 A 
HETATM   21  N   UNL     1     -41.518 -53.483  12.040  1.00  0.00    -0.310 N 
HETATM   22  N   UNL     1     -41.336 -52.356  11.287  1.00  0.00    -0.286 N 
ATOM     23  HN  UNL     1     -42.161 -54.211  11.729  1.00  0.00     0.186 HD
ATOM     24  HN  UNL     1     -41.816 -52.257  10.392  1.00  0.00     0.188 HD
ENDBRANCH   4  17
TORSDOF 4
ENDMDL
MODEL 2
REMARK VINA RESULT:      -6.4      3.990      6.908
REMARK  4 active torsions:
REMARK  status: ('A' for Active; 'I' for Inactive)
REMARK    1  A    between atoms: C_2  and  C_5 
REMARK    2  A    between atoms: C_5  and  N_6 
REMARK    3  A    between atoms: C_5  and  C_18 
REMARK       I    between atoms: N_6  and  C_7 
REMARK       I    between atoms: C_7  and  N_9 
REMARK    4  A    between atoms: N_9  and  C_10 
ROOT
HETATM    1  N   UNL     1     -42.709 -50.917  12.139  1.00  0.00    -0.329 N 
HETATM    2  C   UNL     1     -42.313 -49.603  12.159  1.00  0.00     0.322 C 
HETATM    3  O   UNL     1     -42.025 -49.027  13.200  1.00  0.00    -0.247 OA
HETATM    4  N   UNL     1     -42.213 -49.069  10.899  1.00  0.00    -0.294 N 
HETATM    5  H   UNL     1     -43.199 -51.269  11.326  1.00  0.00     0.165 HD
HETATM    6  H   UNL     1     -41.906 -49.710  10.183  1.00  0.00     0.172 HD
ENDROOT
BRANCH   1   7
HETATM    7  C   UNL     1     -42.637 -51.758  13.356  1.00  0.00     0.197 C 
BRANCH   7   8
HETATM    8  C   UNL     1     -41.750 -53.014  13.176  1.00  0.00     0.407 C 
HETATM    9  F   UNL     1     -40.908 -52.862  12.121  1.00  0.00    -0.169 F 
HETATM   10  F   UNL     1     -42.445 -54.148  12.959  1.00  0.00    -0.169 F 
HETATM   11  F   UNL     1     -40.978 -53.220  14.270  1.00  0.00    -0.169 F 
ENDBRANCH   7   8
BRANCH   7  12
HETATM   12  C   UNL     1     -44.033 -52.007  13.969  1.00  0.00     0.017 C 
HETATM   13  C   UNL     1     -45.148 -52.168  12.924  1.00  0.00     0.007 C 
HETATM   14  C   UNL     1     -46.408 -51.572  13.547  1.00  0.00     0.000 C 
HETATM   15  C   UNL     1     -46.045 -51.214  14.981  1.00  0.00     0.000 C 
HETATM   16  C   UNL     1     -44.549 -50.942  14.938  1.00  0.00     0.007 C 
ENDBRANCH   7  12
ENDBRANCH   1   7
BRANCH   4  17
HETATM   17  C   UNL     1     -41.720 -47.770  10.699  1.00  0.00     0.123 A 
HETATM   18  C   UNL     1     -42.555 -46.668  10.588  1.00  0.00     0.051 A 
HETATM   19  C   UNL     1     -41.986 -45.405  10.498  1.00  0.00     0.022 A 
HETATM   20  C   UNL     1     -40.609 -45.311  10.521  1.00  0.00     0.107 A 
HETATM   21  N   UNL     1     -39.813 -46.397  10.570  1.00  0.00    -0.310 N 
HETATM   22  N   UNL     1     -40.378 -47.641  10.635  1.00  0.00    -0.286 N 
ATOM     23  HN  UNL     1     -38.798 -46.293  10.559  1.00  0.00     0.186 HD
ATOM     24  HN  UNL     1     -39.785 -48.472  10.636  1.00  0.00     0.188 HD
ENDBRANCH   4  17
TORSDOF 4
ENDMDL
MODEL 3
REMARK VINA RESULT:      -6.4      3.354      7.305
REMARK  4 active torsions:
REMARK  status: ('A' for Active; 'I' for Inactive)
REMARK    1  A    between atoms: C_2  and  C_5 
REMARK    2  A    between atoms: C_5  and  N_6 
REMARK    3  A    between atoms: C_5  and  C_18 
REMARK       I    between atoms: N_6  and  C_7 
REMARK       I    between atoms: C_7  and  N_9 
REMARK    4  A    between atoms: N_9  and  C_10 
ROOT
HETATM    1  N   UNL     1     -42.653 -50.911  12.104  1.00  0.00    -0.329 N 
HETATM    2  C   UNL     1     -42.081 -49.664  12.126  1.00  0.00     0.322 C 
HETATM    3  O   UNL     1     -41.294 -49.326  13.000  1.00  0.00    -0.247 OA
HETATM    4  N   UNL     1     -42.436 -48.908  11.036  1.00  0.00    -0.294 N 
HETATM    5  H   UNL     1     -43.489 -51.058  11.551  1.00  0.00     0.165 HD
HETATM    6  H   UNL     1     -42.565 -49.424  10.178  1.00  0.00     0.172 HD
ENDROOT
BRANCH   1   7
HETATM    7  C   UNL     1     -42.212 -51.973  13.037  1.00  0.00     0.197 C 
BRANCH   7   8
HETATM    8  C   UNL     1     -41.030 -52.812  12.490  1.00  0.00     0.407 C 
HETATM    9  F   UNL     1     -40.951 -52.708  11.138  1.00  0.00    -0.169 F 
HETATM   10  F   UNL     1     -41.113 -54.126  12.776  1.00  0.00    -0.169 F 
HETATM   11  F   UNL     1     -39.852 -52.367  12.988  1.00  0.00    -0.169 F 
ENDBRANCH   7   8
BRANCH   7  12
HETATM   12  C   UNL     1     -43.403 -52.783  13.596  1.00  0.00     0.017 C 
HETATM   13  C   UNL     1     -43.033 -53.694  14.776  1.00  0.00     0.007 C 
HETATM   14  C   UNL     1     -43.921 -54.931  14.657  1.00  0.00     0.000 C 
HETATM   15  C   UNL     1     -44.884 -54.654  13.511  1.00  0.00     0.000 C 
HETATM   16  C   UNL     1     -44.130 -53.693  12.604  1.00  0.00     0.007 C 
ENDBRANCH   7  12
ENDBRANCH   1   7
BRANCH   4  17
HETATM   17  C   UNL     1     -41.872 -47.641  10.817  1.00  0.00     0.123 A 
HETATM   18  C   UNL     1     -42.626 -46.478  10.849  1.00  0.00     0.051 A 
HETATM   19  C   UNL     1     -41.976 -45.257  10.729  1.00  0.00     0.022 A 
HETATM   20  C   UNL     1     -40.604 -45.265  10.580  1.00  0.00     0.107 A 
HETATM   21  N   UNL     1     -39.894 -46.408  10.493  1.00  0.00    -0.310 N 
HETATM   22  N   UNL     1     -40.542 -47.609  10.588  1.00  0.00    -0.286 N 
ATOM     23  HN  UNL     1     -38.884 -46.378  10.356  1.00  0.00     0.186 HD
ATOM     24  HN  UNL     1     -40.020 -48.480  10.487  1.00  0.00     0.188 HD
ENDBRANCH   4  17
TORSDOF 4
ENDMDL
MODEL 4
REMARK VINA RESULT:      -6.3      4.727      6.548
REMARK  4 active torsions:
REMARK  status: ('A' for Active; 'I' for Inactive)
REMARK    1  A    between atoms: C_2  and  C_5 
REMARK    2  A    between atoms: C_5  and  N_6 
REMARK    3  A    between atoms: C_5  and  C_18 
REMARK       I    between atoms: N_6  and  C_7 
REMARK       I    between atoms: C_7  and  N_9 
REMARK    4  A    between atoms: N_9  and  C_10 
ROOT
HETATM    1  N   UNL     1     -44.215 -50.696  12.854  1.00  0.00    -0.329 N 
HETATM    2  C   UNL     1     -42.855 -50.531  12.940  1.00  0.00     0.322 C 
HETATM    3  O   UNL     1     -42.174 -51.160  13.738  1.00  0.00    -0.247 OA
HETATM    4  N   UNL     1     -42.375 -49.659  11.995  1.00  0.00    -0.294 N 
HETATM    5  H   UNL     1     -44.768 -49.980  12.400  1.00  0.00     0.165 HD
HETATM    6  H   UNL     1     -42.857 -49.676  11.109  1.00  0.00     0.172 HD
ENDROOT
BRANCH   1   7
HETATM    7  C   UNL     1     -44.905 -51.773  13.600  1.00  0.00     0.197 C 
BRANCH   7   8
HETATM    8  C   UNL     1     -45.389 -52.929  12.690  1.00  0.00     0.407 C 
HETATM    9  F   UNL     1     -45.765 -54.002  13.434  1.00  0.00    -0.169 F 
HETATM   10  F   UNL     1     -44.458 -53.366  11.819  1.00  0.00    -0.169 F 
HETATM   11  F   UNL     1     -46.470 -52.553  11.966  1.00  0.00    -0.169 F 
ENDBRANCH   7   8
BRANCH   7  12
HETATM   12  C   UNL     1     -45.954 -51.212  14.585  1.00  0.00     0.017 C 
HETATM   13  C   UNL     1     -45.346 -50.603  15.858  1.00  0.00     0.007 C 
HETATM   14  C   UNL     1     -46.337 -50.886  16.985  1.00  0.00     0.000 C 
HETATM   15  C   UNL     1     -47.559 -51.515  16.329  1.00  0.00     0.000 C 
HETATM   16  C   UNL     1     -47.011 -52.199  15.084  1.00  0.00     0.007 C 
ENDBRANCH   7  12
ENDBRANCH   1   7
BRANCH   4  17
HETATM   17  C   UNL     1     -40.996 -49.437  11.847  1.00  0.00     0.123 A 
HETATM   18  C   UNL     1     -40.338 -48.401  12.492  1.00  0.00     0.051 A 
HETATM   19  C   UNL     1     -38.957 -48.313  12.379  1.00  0.00     0.022 A 
HETATM   20  C   UNL     1     -38.307 -49.267  11.622  1.00  0.00     0.107 A 
HETATM   21  N   UNL     1     -38.969 -50.232  10.954  1.00  0.00    -0.310 N 
HETATM   22  N   UNL     1     -40.332 -50.301  11.050  1.00  0.00    -0.286 N 
ATOM     23  HN  UNL     1     -38.459 -50.906  10.382  1.00  0.00     0.186 HD
ATOM     24  HN  UNL     1     -40.846 -51.005  10.520  1.00  0.00     0.188 HD
ENDBRANCH   4  17
TORSDOF 4
ENDMDL
MODEL 5
REMARK VINA RESULT:      -6.3      2.770      4.020
REMARK  4 active torsions:
REMARK  status: ('A' for Active; 'I' for Inactive)
REMARK    1  A    between atoms: C_2  and  C_5 
REMARK    2  A    between atoms: C_5  and  N_6 
REMARK    3  A    between atoms: C_5  and  C_18 
REMARK       I    between atoms: N_6  and  C_7 
REMARK       I    between atoms: C_7  and  N_9 
REMARK    4  A    between atoms: N_9  and  C_10 
ROOT
HETATM    1  N   UNL     1     -41.583 -50.381  11.578  1.00  0.00    -0.329 N 
HETATM    2  C   UNL     1     -42.412 -51.080  12.418  1.00  0.00     0.322 C 
HETATM    3  O   UNL     1     -42.843 -50.597  13.456  1.00  0.00    -0.247 OA
HETATM    4  N   UNL     1     -42.742 -52.315  11.917  1.00  0.00    -0.294 N 
HETATM    5  H   UNL     1     -41.032 -50.890  10.897  1.00  0.00     0.165 HD
HETATM    6  H   UNL     1     -42.833 -52.362  10.913  1.00  0.00     0.172 HD
ENDROOT
BRANCH   1   7
HETATM    7  C   UNL     1     -41.309 -48.942  11.795  1.00  0.00     0.197 C 
BRANCH   7   8
HETATM    8  C   UNL     1     -41.989 -48.028  10.745  1.00  0.00     0.407 C 
HETATM    9  F   UNL     1     -41.811 -48.520   9.492  1.00  0.00    -0.169 F 
HETATM   10  F   UNL     1     -41.523 -46.763  10.737  1.00  0.00    -0.169 F 
HETATM   11  F   UNL     1     -43.325 -47.962  10.957  1.00  0.00    -0.169 F 
ENDBRANCH   7   8
BRANCH   7  12
HETATM   12  C   UNL     1     -39.809 -48.671  12.046  1.00  0.00     0.017 C 
HETATM   13  C   UNL     1     -38.878 -49.728  11.432  1.00  0.00     0.007 C 
HETATM   14  C   UNL     1     -37.686 -49.851  12.379  1.00  0.00     0.000 C 
HETATM   15  C   UNL     1     -37.869 -48.771  13.436  1.00  0.00     0.000 C 
HETATM   16  C   UNL     1     -39.375 -48.562  13.509  1.00  0.00     0.007 C 
ENDBRANCH   7  12
ENDBRANCH   1   7
BRANCH   4  17
HETATM   17  C   UNL     1     -43.666 -53.142  12.576  1.00  0.00     0.123 A 
HETATM   18  C   UNL     1     -43.272 -54.182  13.404  1.00  0.00     0.051 A 
HETATM   19  C   UNL     1     -44.245 -54.886  14.101  1.00  0.00     0.022 A 
HETATM   20  C   UNL     1     -45.562 -54.512  13.931  1.00  0.00     0.107 A 
HETATM   21  N   UNL     1     -45.931 -53.537  13.077  1.00  0.00    -0.310 N 
HETATM   22  N   UNL     1     -44.970 -52.862  12.374  1.00  0.00    -0.286 N 
ATOM     23  HN  UNL     1     -46.917 -53.304  12.956  1.00  0.00     0.186 HD
ATOM     24  HN  UNL     1     -45.241 -52.147  11.698  1.00  0.00     0.188 HD
ENDBRANCH   4  17
TORSDOF 4
ENDMDL
MODEL 6
REMARK VINA RESULT:      -6.0      3.272      6.887
REMARK  4 active torsions:
REMARK  status: ('A' for Active; 'I' for Inactive)
REMARK    1  A    between atoms: C_2  and  C_5 
REMARK    2  A    between atoms: C_5  and  N_6 
REMARK    3  A    between atoms: C_5  and  C_18 
REMARK       I    between atoms: N_6  and  C_7 
REMARK       I    between atoms: C_7  and  N_9 
REMARK    4  A    between atoms: N_9  and  C_10 
ROOT
HETATM    1  N   UNL     1     -40.124 -49.826  11.067  1.00  0.00    -0.329 N 
HETATM    2  C   UNL     1     -41.201 -48.976  11.049  1.00  0.00     0.322 C 
HETATM    3  O   UNL     1     -41.722 -48.565  12.077  1.00  0.00    -0.247 OA
HETATM    4  N   UNL     1     -41.549 -48.601   9.774  1.00  0.00    -0.294 N 
HETATM    5  H   UNL     1     -39.903 -50.355  10.232  1.00  0.00     0.165 HD
HETATM    6  H   UNL     1     -40.779 -48.505   9.129  1.00  0.00     0.172 HD
ENDROOT
BRANCH   1   7
HETATM    7  C   UNL     1     -39.425 -50.151  12.331  1.00  0.00     0.197 C 
BRANCH   7   8
HETATM    8  C   UNL     1     -37.884 -50.199  12.180  1.00  0.00     0.407 C 
HETATM    9  F   UNL     1     -37.479 -49.424  11.141  1.00  0.00    -0.169 F 
HETATM   10  F   UNL     1     -37.395 -51.435  11.959  1.00  0.00    -0.169 F 
HETATM   11  F   UNL     1     -37.276 -49.719  13.291  1.00  0.00    -0.169 F 
ENDBRANCH   7   8
BRANCH   7  12
HETATM   12  C   UNL     1     -40.065 -51.359  13.051  1.00  0.00     0.017 C 
HETATM   13  C   UNL     1     -39.110 -52.083  14.013  1.00  0.00     0.007 C 
HETATM   14  C   UNL     1     -39.489 -53.561  13.961  1.00  0.00     0.000 C 
HETATM   15  C   UNL     1     -40.738 -53.650  13.095  1.00  0.00     0.000 C 
HETATM   16  C   UNL     1     -40.632 -52.460  12.153  1.00  0.00     0.007 C 
ENDBRANCH   7  12
ENDBRANCH   1   7
BRANCH   4  17
HETATM   17  C   UNL     1     -42.557 -47.651   9.548  1.00  0.00     0.123 A 
HETATM   18  C   UNL     1     -42.458 -46.343   9.997  1.00  0.00     0.051 A 
HETATM   19  C   UNL     1     -43.449 -45.438   9.641  1.00  0.00     0.022 A 
HETATM   20  C   UNL     1     -44.488 -45.890   8.855  1.00  0.00     0.107 A 
HETATM   21  N   UNL     1     -44.599 -47.179   8.476  1.00  0.00    -0.310 N 
HETATM   22  N   UNL     1     -43.632 -48.073   8.849  1.00  0.00    -0.286 N 
ATOM     23  HN  UNL     1     -45.395 -47.485   7.916  1.00  0.00     0.186 HD
ATOM     24  HN  UNL     1     -43.724 -49.058   8.599  1.00  0.00     0.188 HD
ENDBRANCH   4  17
TORSDOF 4
ENDMDL
MODEL 7
REMARK VINA RESULT:      -5.8      4.891      7.695
REMARK  4 active torsions:
REMARK  status: ('A' for Active; 'I' for Inactive)
REMARK    1  A    between atoms: C_2  and  C_5 
REMARK    2  A    between atoms: C_5  and  N_6 
REMARK    3  A    between atoms: C_5  and  C_18 
REMARK       I    between atoms: N_6  and  C_7 
REMARK       I    between atoms: C_7  and  N_9 
REMARK    4  A    between atoms: N_9  and  C_10 
ROOT
HETATM    1  N   UNL     1     -42.060 -52.922  14.128  1.00  0.00    -0.329 N 
HETATM    2  C   UNL     1     -40.962 -52.653  13.351  1.00  0.00     0.322 C 
HETATM    3  O   UNL     1     -40.551 -53.443  12.511  1.00  0.00    -0.247 OA
HETATM    4  N   UNL     1     -40.457 -51.397  13.578  1.00  0.00    -0.294 N 
HETATM    5  H   UNL     1     -42.200 -52.393  14.980  1.00  0.00     0.165 HD
HETATM    6  H   UNL     1     -41.143 -50.691  13.799  1.00  0.00     0.172 HD
ENDROOT
BRANCH   1   7
HETATM    7  C   UNL     1     -42.911 -54.107  13.869  1.00  0.00     0.197 C 
BRANCH   7   8
HETATM    8  C   UNL     1     -44.215 -53.764  13.106  1.00  0.00     0.407 C 
HETATM    9  F   UNL     1     -43.940 -53.374  11.835  1.00  0.00    -0.169 F 
HETATM   10  F   UNL     1     -44.935 -52.774  13.671  1.00  0.00    -0.169 F 
HETATM   11  F   UNL     1     -45.022 -54.848  13.020  1.00  0.00    -0.169 F 
ENDBRANCH   7   8
BRANCH   7  12
HETATM   12  C   UNL     1     -43.085 -54.980  15.132  1.00  0.00     0.017 C 
HETATM   13  C   UNL     1     -43.847 -54.280  16.268  1.00  0.00     0.007 C 
HETATM   14  C   UNL     1     -43.242 -54.797  17.572  1.00  0.00     0.000 C 
HETATM   15  C   UNL     1     -42.253 -55.886  17.179  1.00  0.00     0.000 C 
HETATM   16  C   UNL     1     -41.800 -55.501  15.778  1.00  0.00     0.007 C 
ENDBRANCH   7  12
ENDBRANCH   1   7
BRANCH   4  17
HETATM   17  C   UNL     1     -39.399 -50.890  12.806  1.00  0.00     0.123 A 
HETATM   18  C   UNL     1     -38.090 -50.874  13.262  1.00  0.00     0.051 A 
HETATM   19  C   UNL     1     -37.087 -50.455  12.398  1.00  0.00     0.022 A 
HETATM   20  C   UNL     1     -37.449 -50.071  11.122  1.00  0.00     0.107 A 
HETATM   21  N   UNL     1     -38.733 -50.037  10.716  1.00  0.00    -0.310 N 
HETATM   22  N   UNL     1     -39.720 -50.429  11.579  1.00  0.00    -0.286 N 
ATOM     23  HN  UNL     1     -38.968 -49.723   9.774  1.00  0.00     0.186 HD
ATOM     24  HN  UNL     1     -40.698 -50.373  11.294  1.00  0.00     0.188 HD
ENDBRANCH   4  17
TORSDOF 4
ENDMDL
MODEL 8
REMARK VINA RESULT:      -5.8      3.995      7.765
REMARK  4 active torsions:
REMARK  status: ('A' for Active; 'I' for Inactive)
REMARK    1  A    between atoms: C_2  and  C_5 
REMARK    2  A    between atoms: C_5  and  N_6 
REMARK    3  A    between atoms: C_5  and  C_18 
REMARK       I    between atoms: N_6  and  C_7 
REMARK       I    between atoms: C_7  and  N_9 
REMARK    4  A    between atoms: N_9  and  C_10 
ROOT
HETATM    1  N   UNL     1     -41.812 -52.488  14.014  1.00  0.00    -0.329 N 
HETATM    2  C   UNL     1     -41.909 -51.754  12.858  1.00  0.00     0.322 C 
HETATM    3  O   UNL     1     -41.976 -52.284  11.757  1.00  0.00    -0.247 OA
HETATM    4  N   UNL     1     -41.996 -50.406  13.102  1.00  0.00    -0.294 N 
HETATM    5  H   UNL     1     -41.482 -52.034  14.857  1.00  0.00     0.165 HD
HETATM    6  H   UNL     1     -42.496 -50.152  13.941  1.00  0.00     0.172 HD
ENDROOT
BRANCH   1   7
HETATM    7  C   UNL     1     -41.963 -53.961  14.002  1.00  0.00     0.197 C 
BRANCH   7   8
HETATM    8  C   UNL     1     -43.426 -54.425  14.212  1.00  0.00     0.407 C 
HETATM    9  F   UNL     1     -43.463 -55.647  14.802  1.00  0.00    -0.169 F 
HETATM   10  F   UNL     1     -44.137 -54.521  13.071  1.00  0.00    -0.169 F 
HETATM   11  F   UNL     1     -44.090 -53.572  15.028  1.00  0.00    -0.169 F 
ENDBRANCH   7   8
BRANCH   7  12
HETATM   12  C   UNL     1     -40.907 -54.657  14.890  1.00  0.00     0.017 C 
HETATM   13  C   UNL     1     -40.823 -54.088  16.314  1.00  0.00     0.007 C 
HETATM   14  C   UNL     1     -39.359 -54.193  16.733  1.00  0.00     0.000 C 
HETATM   15  C   UNL     1     -38.651 -54.949  15.617  1.00  0.00     0.000 C 
HETATM   16  C   UNL     1     -39.468 -54.639  14.371  1.00  0.00     0.007 C 
ENDBRANCH   7  12
ENDBRANCH   1   7
BRANCH   4  17
HETATM   17  C   UNL     1     -42.210 -49.493  12.057  1.00  0.00     0.123 A 
HETATM   18  C   UNL     1     -43.181 -48.506  12.122  1.00  0.00     0.051 A 
HETATM   19  C   UNL     1     -43.258 -47.576  11.093  1.00  0.00     0.022 A 
HETATM   20  C   UNL     1     -42.359 -47.686  10.052  1.00  0.00     0.107 A 
HETATM   21  N   UNL     1     -41.461 -48.687   9.977  1.00  0.00    -0.310 N 
HETATM   22  N   UNL     1     -41.404 -49.614  10.981  1.00  0.00    -0.286 N 
ATOM     23  HN  UNL     1     -40.828 -48.753   9.179  1.00  0.00     0.186 HD
ATOM     24  HN  UNL     1     -40.752 -50.396  10.917  1.00  0.00     0.188 HD
ENDBRANCH   4  17
TORSDOF 4
ENDMDL
MODEL 9
REMARK VINA RESULT:      -5.4      5.492      7.439
REMARK  4 active torsions:
REMARK  status: ('A' for Active; 'I' for Inactive)
REMARK    1  A    between atoms: C_2  and  C_5 
REMARK    2  A    between atoms: C_5  and  N_6 
REMARK    3  A    between atoms: C_5  and  C_18 
REMARK       I    between atoms: N_6  and  C_7 
REMARK       I    between atoms: C_7  and  N_9 
REMARK    4  A    between atoms: N_9  and  C_10 
ROOT
HETATM    1  N   UNL     1     -44.960 -51.228  14.568  1.00  0.00    -0.329 N 
HETATM    2  C   UNL     1     -43.684 -51.170  14.066  1.00  0.00     0.322 C 
HETATM    3  O   UNL     1     -42.887 -52.088  14.210  1.00  0.00    -0.247 OA
HETATM    4  N   UNL     1     -43.460 -50.026  13.342  1.00  0.00    -0.294 N 
HETATM    5  H   UNL     1     -45.484 -50.368  14.677  1.00  0.00     0.165 HD
HETATM    6  H   UNL     1     -44.255 -49.680  12.826  1.00  0.00     0.172 HD
ENDROOT
BRANCH   1   7
HETATM    7  C   UNL     1     -45.496 -52.476  15.159  1.00  0.00     0.197 C 
BRANCH   7   8
HETATM    8  C   UNL     1     -46.205 -53.383  14.122  1.00  0.00     0.407 C 
HETATM    9  F   UNL     1     -46.885 -52.637  13.215  1.00  0.00    -0.169 F 
HETATM   10  F   UNL     1     -47.092 -54.242  14.664  1.00  0.00    -0.169 F 
HETATM   11  F   UNL     1     -45.304 -54.121  13.431  1.00  0.00    -0.169 F 
ENDBRANCH   7   8
BRANCH   7  12
HETATM   12  C   UNL     1     -46.281 -52.208  16.462  1.00  0.00     0.017 C 
HETATM   13  C   UNL     1     -47.583 -51.420  16.249  1.00  0.00     0.007 C 
HETATM   14  C   UNL     1     -47.764 -50.548  17.489  1.00  0.00     0.000 C 
HETATM   15  C   UNL     1     -46.658 -50.949  18.455  1.00  0.00     0.000 C 
HETATM   16  C   UNL     1     -45.534 -51.450  17.560  1.00  0.00     0.007 C 
ENDBRANCH   7  12
ENDBRANCH   1   7
BRANCH   4  17
HETATM   17  C   UNL     1     -42.251 -49.827  12.655  1.00  0.00     0.123 A 
HETATM   18  C   UNL     1     -41.435 -48.732  12.892  1.00  0.00     0.051 A 
HETATM   19  C   UNL     1     -40.207 -48.662  12.249  1.00  0.00     0.022 A 
HETATM   20  C   UNL     1     -39.860 -49.694  11.401  1.00  0.00     0.107 A 
HETATM   21  N   UNL     1     -40.691 -50.722  11.138  1.00  0.00    -0.310 N 
HETATM   22  N   UNL     1     -41.911 -50.774  11.756  1.00  0.00    -0.286 N 
ATOM     23  HN  UNL     1     -40.414 -51.455  10.485  1.00  0.00     0.186 HD
ATOM     24  HN  UNL     1     -42.562 -51.528  11.537  1.00  0.00     0.188 HD
ENDBRANCH   4  17
TORSDOF 4
ENDMDL
