MODEL 1
REMARK VINA RESULT:      -7.1      0.000      0.000
REMARK  8 active torsions:
REMARK  status: ('A' for Active; 'I' for Inactive)
REMARK    1  A    between atoms: N_1  and  C1*_2 
REMARK    2  A    between atoms: C2*_7  and  O2*_22 
REMARK    3  A    between atoms: C_10  and  N_13 
REMARK    4  A    between atoms: C3*_11  and  O3*_23 
REMARK    5  A    between atoms: C4*_12  and  C5*_25 
REMARK    6  A    between atoms: N_13  and  C_19 
REMARK    7  A    between atoms: C_18  and  C_19 
REMARK    8  A    between atoms: C5*_25  and  O5*_27 
ROOT
HETATM    1  N   UNL     1     -40.291 -47.633  11.197  1.00  0.00    -0.297 N 
HETATM    2  C   UNL     1     -39.734 -48.723  11.816  1.00  0.00     0.142 A 
HETATM    3  C   UNL     1     -40.645 -49.751  11.613  1.00  0.00     0.122 A 
HETATM    4  N   UNL     1     -41.750 -49.291  10.932  1.00  0.00    -0.346 N 
ATOM      5  HN  UNL     1     -42.563 -49.830  10.634  1.00  0.00     0.167 HD
HETATM    6  C   UNL     1     -41.532 -48.016  10.751  1.00  0.00     0.188 A 
HETATM    7  C   UNL     1     -40.322 -51.022  12.125  1.00  0.00     0.133 A 
HETATM    8  N   UNL     1     -38.569 -48.806  12.479  1.00  0.00    -0.336 N 
ATOM      9  HN  UNL     1     -37.920 -48.030  12.606  1.00  0.00     0.168 HD
HETATM   10  N   UNL     1     -39.149 -51.146  12.806  1.00  0.00    -0.337 N 
ATOM     11  HN  UNL     1     -38.866 -52.044  13.196  1.00  0.00     0.168 HD
HETATM   12  C   UNL     1     -38.369 -50.051  12.954  1.00  0.00     0.183 A 
ENDROOT
BRANCH   1  13
HETATM   13  C1* UNL     1     -39.787 -46.282  11.055  1.00  0.00     0.262 C 
HETATM   14  C2* UNL     1     -40.627 -45.257  10.286  1.00  0.00     0.198 C 
HETATM   15  C3* UNL     1     -41.063 -44.226  11.331  1.00  0.00     0.182 C 
HETATM   16  C4* UNL     1     -40.705 -44.846  12.676  1.00  0.00     0.179 C 
HETATM   17  O4* UNL     1     -39.616 -45.746  12.396  1.00  0.00    -0.353 OA
BRANCH  14  18
HETATM   18  O2* UNL     1     -39.825 -44.632   9.268  1.00  0.00    -0.388 OA
HETATM   19  H2* UNL     1     -38.935 -45.037   9.342  1.00  0.00     0.210 HD
ENDBRANCH  14  18
BRANCH  15  20
HETATM   20  O3* UNL     1     -40.329 -43.004  11.099  1.00  0.00    -0.390 OA
HETATM   21  H3* UNL     1     -39.601 -42.948  11.745  1.00  0.00     0.210 HD
ENDBRANCH  15  20
BRANCH  16  22
HETATM   22  C5* UNL     1     -41.885 -45.573  13.335  1.00  0.00     0.198 C 
BRANCH  22  23
HETATM   23  O5* UNL     1     -43.119 -45.137  12.770  1.00  0.00    -0.398 OA
HETATM   24  H5* UNL     1     -43.519 -44.497  13.388  1.00  0.00     0.209 HD
ENDBRANCH  22  23
ENDBRANCH  16  22
ENDBRANCH   1  13
BRANCH   7  25
HETATM   25  N   UNL     1     -41.105 -52.156  12.027  1.00  0.00    -0.366 N 
HETATM   26  H   UNL     1     -41.444 -52.327  11.094  1.00  0.00     0.161 HD
BRANCH  25  27
HETATM   27  C   UNL     1     -41.862 -52.668  13.168  1.00  0.00     0.114 C 
HETATM   28  C   UNL     1     -41.644 -54.184  13.230  1.00  0.00     0.037 C 
BRANCH  27  29
HETATM   29  C   UNL     1     -43.354 -52.366  13.082  1.00  0.00    -0.014 A 
HETATM   30  C   UNL     1     -43.924 -51.221  13.679  1.00  0.00     0.042 A 
HETATM   31 CL   UNL     1     -42.970 -49.985  14.424  1.00  0.00    -0.084 Cl
HETATM   32  C   UNL     1     -45.313 -51.042  13.710  1.00  0.00     0.024 A 
HETATM   33  C   UNL     1     -46.161 -51.983  13.132  1.00  0.00     0.002 A 
HETATM   34  C   UNL     1     -45.618 -53.096  12.498  1.00  0.00     0.001 A 
HETATM   35  C   UNL     1     -44.235 -53.284  12.476  1.00  0.00     0.011 A 
ENDBRANCH  27  29
ENDBRANCH  25  27
ENDBRANCH   7  25
TORSDOF 8
ENDMDL
MODEL 2
REMARK VINA RESULT:      -7.1      1.153      1.406
REMARK  8 active torsions:
REMARK  status: ('A' for Active; 'I' for Inactive)
REMARK    1  A    between atoms: N_1  and  C1*_2 
REMARK    2  A    between atoms: C2*_7  and  O2*_22 
REMARK    3  A    between atoms: C_10  and  N_13 
REMARK    4  A    between atoms: C3*_11  and  O3*_23 
REMARK    5  A    between atoms: C4*_12  and  C5*_25 
REMARK    6  A    between atoms: N_13  and  C_19 
REMARK    7  A    between atoms: C_18  and  C_19 
REMARK    8  A    between atoms: C5*_25  and  O5*_27 
ROOT
HETATM    1  N   UNL     1     -41.381 -47.380  11.137  1.00  0.00    -0.297 N 
HETATM    2  C   UNL     1     -40.567 -48.465  11.342  1.00  0.00     0.142 A 
HETATM    3  C   UNL     1     -41.433 -49.544  11.453  1.00  0.00     0.122 A 
HETATM    4  N   UNL     1     -42.742 -49.124  11.367  1.00  0.00    -0.346 N 
ATOM      5  HN  UNL     1     -43.582 -49.701  11.399  1.00  0.00     0.167 HD
HETATM    6  C   UNL     1     -42.675 -47.826  11.236  1.00  0.00     0.188 A 
HETATM    7  C   UNL     1     -40.870 -50.819  11.646  1.00  0.00     0.133 A 
HETATM    8  N   UNL     1     -39.226 -48.504  11.423  1.00  0.00    -0.336 N 
ATOM      9  HN  UNL     1     -38.618 -47.690  11.333  1.00  0.00     0.168 HD
HETATM   10  N   UNL     1     -39.514 -50.899  11.736  1.00  0.00    -0.337 N 
ATOM     11  HN  UNL     1     -39.053 -51.798  11.873  1.00  0.00     0.168 HD
HETATM   12  C   UNL     1     -38.790 -49.760  11.639  1.00  0.00     0.183 A 
ENDROOT
BRANCH   1  13
HETATM   13  C1* UNL     1     -41.042 -45.987  10.925  1.00  0.00     0.262 C 
HETATM   14  C2* UNL     1     -41.994 -44.907  11.450  1.00  0.00     0.198 C 
HETATM   15  C3* UNL     1     -41.220 -44.191  12.560  1.00  0.00     0.182 C 
HETATM   16  C4* UNL     1     -39.994 -45.059  12.815  1.00  0.00     0.179 C 
HETATM   17  O4* UNL     1     -39.763 -45.754  11.574  1.00  0.00    -0.353 OA
BRANCH  14  18
HETATM   18  O2* UNL     1     -42.323 -43.988  10.394  1.00  0.00    -0.388 OA
HETATM   19  H2* UNL     1     -42.803 -44.516   9.720  1.00  0.00     0.210 HD
ENDBRANCH  14  18
BRANCH  15  20
HETATM   20  O3* UNL     1     -40.850 -42.879  12.084  1.00  0.00    -0.390 OA
HETATM   21  H3* UNL     1     -41.505 -42.232  12.403  1.00  0.00     0.210 HD
ENDBRANCH  15  20
BRANCH  16  22
HETATM   22  C5* UNL     1     -40.181 -46.035  13.984  1.00  0.00     0.198 C 
BRANCH  22  23
HETATM   23  O5* UNL     1     -39.068 -46.921  14.079  1.00  0.00    -0.398 OA
HETATM   24  H5* UNL     1     -38.262 -46.404  13.897  1.00  0.00     0.209 HD
ENDBRANCH  22  23
ENDBRANCH  16  22
ENDBRANCH   1  13
BRANCH   7  25
HETATM   25  N   UNL     1     -41.572 -52.001  11.785  1.00  0.00    -0.366 N 
HETATM   26  H   UNL     1     -42.032 -52.294  10.938  1.00  0.00     0.161 HD
BRANCH  25  27
HETATM   27  C   UNL     1     -42.110 -52.427  13.075  1.00  0.00     0.114 C 
HETATM   28  C   UNL     1     -41.823 -53.925  13.230  1.00  0.00     0.037 C 
BRANCH  27  29
HETATM   29  C   UNL     1     -43.608 -52.174  13.213  1.00  0.00    -0.014 A 
HETATM   30  C   UNL     1     -44.126 -51.197  14.090  1.00  0.00     0.042 A 
HETATM   31 CL   UNL     1     -43.117 -50.100  14.966  1.00  0.00    -0.084 Cl
HETATM   32  C   UNL     1     -45.506 -51.084  14.306  1.00  0.00     0.024 A 
HETATM   33  C   UNL     1     -46.397 -51.923  13.641  1.00  0.00     0.002 A 
HETATM   34  C   UNL     1     -45.910 -52.862  12.738  1.00  0.00     0.001 A 
HETATM   35  C   UNL     1     -44.535 -52.986  12.530  1.00  0.00     0.011 A 
ENDBRANCH  27  29
ENDBRANCH  25  27
ENDBRANCH   7  25
TORSDOF 8
ENDMDL
MODEL 3
REMARK VINA RESULT:      -6.9      2.655      4.856
REMARK  8 active torsions:
REMARK  status: ('A' for Active; 'I' for Inactive)
REMARK    1  A    between atoms: N_1  and  C1*_2 
REMARK    2  A    between atoms: C2*_7  and  O2*_22 
REMARK    3  A    between atoms: C_10  and  N_13 
REMARK    4  A    between atoms: C3*_11  and  O3*_23 
REMARK    5  A    between atoms: C4*_12  and  C5*_25 
REMARK    6  A    between atoms: N_13  and  C_19 
REMARK    7  A    between atoms: C_18  and  C_19 
REMARK    8  A    between atoms: C5*_25  and  O5*_27 
ROOT
HETATM    1  N   UNL     1     -42.492 -48.103  11.156  1.00  0.00    -0.297 N 
HETATM    2  C   UNL     1     -42.630 -49.256  11.886  1.00  0.00     0.142 A 
HETATM    3  C   UNL     1     -41.463 -49.968  11.649  1.00  0.00     0.122 A 
HETATM    4  N   UNL     1     -40.656 -49.294  10.761  1.00  0.00    -0.346 N 
ATOM      5  HN  UNL     1     -39.735 -49.575  10.423  1.00  0.00     0.167 HD
HETATM    6  C   UNL     1     -41.323 -48.216  10.444  1.00  0.00     0.188 A 
HETATM    7  C   UNL     1     -41.309 -51.207  12.301  1.00  0.00     0.133 A 
HETATM    8  N   UNL     1     -43.656 -49.637  12.665  1.00  0.00    -0.336 N 
ATOM      9  HN  UNL     1     -44.500 -49.085  12.820  1.00  0.00     0.168 HD
HETATM   10  N   UNL     1     -42.329 -51.629  13.097  1.00  0.00    -0.337 N 
ATOM     11  HN  UNL     1     -42.269 -52.517  13.594  1.00  0.00     0.168 HD
HETATM   12  C   UNL     1     -43.425 -50.845  13.215  1.00  0.00     0.183 A 
ENDROOT
BRANCH   1  13
HETATM   13  C1* UNL     1     -43.381 -46.965  11.030  1.00  0.00     0.262 C 
HETATM   14  C2* UNL     1     -42.879 -45.710  10.311  1.00  0.00     0.198 C 
HETATM   15  C3* UNL     1     -43.721 -45.609   9.036  1.00  0.00     0.182 C 
HETATM   16  C4* UNL     1     -44.456 -46.940   8.938  1.00  0.00     0.179 C 
HETATM   17  O4* UNL     1     -44.552 -47.416  10.294  1.00  0.00    -0.353 OA
BRANCH  14  18
HETATM   18  O2* UNL     1     -43.083 -44.554  11.142  1.00  0.00    -0.388 OA
HETATM   19  H2* UNL     1     -42.517 -44.689  11.932  1.00  0.00     0.210 HD
ENDBRANCH  14  18
BRANCH  15  20
HETATM   20  O3* UNL     1     -44.642 -44.506   9.186  1.00  0.00    -0.390 OA
HETATM   21  H3* UNL     1     -44.221 -43.697   8.844  1.00  0.00     0.210 HD
ENDBRANCH  15  20
BRANCH  16  22
HETATM   22  C5* UNL     1     -43.745 -47.953   8.031  1.00  0.00     0.198 C 
BRANCH  22  23
HETATM   23  O5* UNL     1     -43.016 -47.281   7.006  1.00  0.00    -0.398 OA
HETATM   24  H5* UNL     1     -43.479 -47.435   6.163  1.00  0.00     0.209 HD
ENDBRANCH  22  23
ENDBRANCH  16  22
ENDBRANCH   1  13
BRANCH   7  25
HETATM   25  N   UNL     1     -40.224 -52.054  12.181  1.00  0.00    -0.366 N 
HETATM   26  H   UNL     1     -40.424 -52.885  11.647  1.00  0.00     0.161 HD
BRANCH  25  27
HETATM   27  C   UNL     1     -39.160 -52.086  13.181  1.00  0.00     0.114 C 
HETATM   28  C   UNL     1     -39.584 -53.063  14.284  1.00  0.00     0.037 C 
BRANCH  27  29
HETATM   29  C   UNL     1     -38.868 -50.718  13.791  1.00  0.00    -0.014 A 
HETATM   30  C   UNL     1     -38.029 -49.778  13.156  1.00  0.00     0.042 A 
HETATM   31 CL   UNL     1     -37.381 -50.024  11.572  1.00  0.00    -0.084 Cl
HETATM   32  C   UNL     1     -37.662 -48.590  13.804  1.00  0.00     0.024 A 
HETATM   33  C   UNL     1     -38.138 -48.304  15.081  1.00  0.00     0.002 A 
HETATM   34  C   UNL     1     -39.003 -49.196  15.706  1.00  0.00     0.001 A 
HETATM   35  C   UNL     1     -39.361 -50.386  15.069  1.00  0.00     0.011 A 
ENDBRANCH  27  29
ENDBRANCH  25  27
ENDBRANCH   7  25
TORSDOF 8
ENDMDL
MODEL 4
REMARK VINA RESULT:      -6.9      2.793      4.615
REMARK  8 active torsions:
REMARK  status: ('A' for Active; 'I' for Inactive)
REMARK    1  A    between atoms: N_1  and  C1*_2 
REMARK    2  A    between atoms: C2*_7  and  O2*_22 
REMARK    3  A    between atoms: C_10  and  N_13 
REMARK    4  A    between atoms: C3*_11  and  O3*_23 
REMARK    5  A    between atoms: C4*_12  and  C5*_25 
REMARK    6  A    between atoms: N_13  and  C_19 
REMARK    7  A    between atoms: C_18  and  C_19 
REMARK    8  A    between atoms: C5*_25  and  O5*_27 
ROOT
HETATM    1  N   UNL     1     -42.123 -47.668  11.352  1.00  0.00    -0.297 N 
HETATM    2  C   UNL     1     -42.264 -48.935  11.858  1.00  0.00     0.142 A 
HETATM    3  C   UNL     1     -40.986 -49.475  11.828  1.00  0.00     0.122 A 
HETATM    4  N   UNL     1     -40.096 -48.582  11.274  1.00  0.00    -0.346 N 
ATOM      5  HN  UNL     1     -39.092 -48.706  11.145  1.00  0.00     0.167 HD
HETATM    6  C   UNL     1     -40.816 -47.541  10.951  1.00  0.00     0.188 A 
HETATM    7  C   UNL     1     -40.816 -50.783  12.321  1.00  0.00     0.133 A 
HETATM    8  N   UNL     1     -43.380 -49.545  12.292  1.00  0.00    -0.336 N 
ATOM      9  HN  UNL     1     -44.305 -49.116  12.304  1.00  0.00     0.168 HD
HETATM   10  N   UNL     1     -41.924 -51.435  12.768  1.00  0.00    -0.337 N 
ATOM     11  HN  UNL     1     -41.857 -52.383  13.137  1.00  0.00     0.168 HD
HETATM   12  C   UNL     1     -43.116 -50.798  12.712  1.00  0.00     0.183 A 
ENDROOT
BRANCH   1  13
HETATM   13  C1* UNL     1     -43.109 -46.623  11.164  1.00  0.00     0.262 C 
HETATM   14  C2* UNL     1     -42.718 -45.373  10.371  1.00  0.00     0.198 C 
HETATM   15  C3* UNL     1     -43.564 -45.421   9.096  1.00  0.00     0.182 C 
HETATM   16  C4* UNL     1     -44.178 -46.815   9.078  1.00  0.00     0.179 C 
HETATM   17  O4* UNL     1     -44.233 -47.218  10.460  1.00  0.00    -0.353 OA
BRANCH  14  18
HETATM   18  O2* UNL     1     -43.025 -44.192  11.134  1.00  0.00    -0.388 OA
HETATM   19  H2* UNL     1     -42.456 -43.482  10.768  1.00  0.00     0.210 HD
ENDBRANCH  14  18
BRANCH  15  20
HETATM   20  O3* UNL     1     -44.579 -44.397   9.184  1.00  0.00    -0.390 OA
HETATM   21  H3* UNL     1     -44.215 -43.634   9.670  1.00  0.00     0.210 HD
ENDBRANCH  15  20
BRANCH  16  22
HETATM   22  C5* UNL     1     -43.379 -47.812   8.229  1.00  0.00     0.198 C 
BRANCH  22  23
HETATM   23  O5* UNL     1     -43.013 -47.226   6.982  1.00  0.00    -0.398 OA
HETATM   24  H5* UNL     1     -43.781 -46.723   6.654  1.00  0.00     0.209 HD
ENDBRANCH  22  23
ENDBRANCH  16  22
ENDBRANCH   1  13
BRANCH   7  25
HETATM   25  N   UNL     1     -39.625 -51.482  12.363  1.00  0.00    -0.366 N 
HETATM   26  H   UNL     1     -39.642 -52.332  11.821  1.00  0.00     0.161 HD
BRANCH  25  27
HETATM   27  C   UNL     1     -38.712 -51.377  13.499  1.00  0.00     0.114 C 
HETATM   28  C   UNL     1     -37.281 -51.347  12.948  1.00  0.00     0.037 C 
BRANCH  27  29
HETATM   29  C   UNL     1     -38.856 -52.526  14.493  1.00  0.00    -0.014 A 
HETATM   30  C   UNL     1     -38.691 -52.341  15.882  1.00  0.00     0.042 A 
HETATM   31 CL   UNL     1     -38.466 -50.782  16.595  1.00  0.00    -0.084 Cl
HETATM   32  C   UNL     1     -38.685 -53.436  16.757  1.00  0.00     0.024 A 
HETATM   33  C   UNL     1     -38.864 -54.729  16.273  1.00  0.00     0.002 A 
HETATM   34  C   UNL     1     -39.074 -54.929  14.913  1.00  0.00     0.001 A 
HETATM   35  C   UNL     1     -39.068 -53.842  14.037  1.00  0.00     0.011 A 
ENDBRANCH  27  29
ENDBRANCH  25  27
ENDBRANCH   7  25
TORSDOF 8
ENDMDL
MODEL 5
REMARK VINA RESULT:      -6.7      1.369      2.188
REMARK  8 active torsions:
REMARK  status: ('A' for Active; 'I' for Inactive)
REMARK    1  A    between atoms: N_1  and  C1*_2 
REMARK    2  A    between atoms: C2*_7  and  O2*_22 
REMARK    3  A    between atoms: C_10  and  N_13 
REMARK    4  A    between atoms: C3*_11  and  O3*_23 
REMARK    5  A    between atoms: C4*_12  and  C5*_25 
REMARK    6  A    between atoms: N_13  and  C_19 
REMARK    7  A    between atoms: C_18  and  C_19 
REMARK    8  A    between atoms: C5*_25  and  O5*_27 
ROOT
HETATM    1  N   UNL     1     -40.451 -47.439  11.102  1.00  0.00    -0.297 N 
HETATM    2  C   UNL     1     -40.036 -48.546  11.796  1.00  0.00     0.142 A 
HETATM    3  C   UNL     1     -40.955 -49.535  11.473  1.00  0.00     0.122 A 
HETATM    4  N   UNL     1     -41.934 -49.033  10.645  1.00  0.00    -0.346 N 
ATOM      5  HN  UNL     1     -42.723 -49.537  10.240  1.00  0.00     0.167 HD
HETATM    6  C   UNL     1     -41.635 -47.770  10.490  1.00  0.00     0.188 A 
HETATM    7  C   UNL     1     -40.765 -50.813  12.030  1.00  0.00     0.133 A 
HETATM    8  N   UNL     1     -38.977 -48.675  12.614  1.00  0.00    -0.336 N 
ATOM      9  HN  UNL     1     -38.317 -47.927  12.825  1.00  0.00     0.168 HD
HETATM   10  N   UNL     1     -39.704 -50.982  12.867  1.00  0.00    -0.337 N 
ATOM     11  HN  UNL     1     -39.518 -51.889  13.296  1.00  0.00     0.168 HD
HETATM   12  C   UNL     1     -38.902 -49.922  13.117  1.00  0.00     0.183 A 
ENDROOT
BRANCH   1  13
HETATM   13  C1* UNL     1     -39.871 -46.113  11.025  1.00  0.00     0.262 C 
HETATM   14  C2* UNL     1     -40.589 -45.039  10.202  1.00  0.00     0.198 C 
HETATM   15  C3* UNL     1     -41.064 -43.999  11.220  1.00  0.00     0.182 C 
HETATM   16  C4* UNL     1     -40.857 -44.651  12.582  1.00  0.00     0.179 C 
HETATM   17  O4* UNL     1     -39.792 -45.601  12.384  1.00  0.00    -0.353 OA
BRANCH  14  18
HETATM   18  O2* UNL     1     -39.671 -44.444   9.267  1.00  0.00    -0.388 OA
HETATM   19  H2* UNL     1     -39.113 -43.832   9.793  1.00  0.00     0.210 HD
ENDBRANCH  14  18
BRANCH  15  20
HETATM   20  O3* UNL     1     -40.253 -42.813  11.073  1.00  0.00    -0.390 OA
HETATM   21  H3* UNL     1     -40.507 -42.360  10.249  1.00  0.00     0.210 HD
ENDBRANCH  15  20
BRANCH  16  22
HETATM   22  C5* UNL     1     -42.124 -45.326  13.124  1.00  0.00     0.198 C 
BRANCH  22  23
HETATM   23  O5* UNL     1     -43.196 -44.388  13.199  1.00  0.00    -0.398 OA
HETATM   24  H5* UNL     1     -43.305 -44.136  14.135  1.00  0.00     0.209 HD
ENDBRANCH  22  23
ENDBRANCH  16  22
ENDBRANCH   1  13
BRANCH   7  25
HETATM   25  N   UNL     1     -41.578 -51.912  11.830  1.00  0.00    -0.366 N 
HETATM   26  H   UNL     1     -41.504 -52.300  10.903  1.00  0.00     0.161 HD
BRANCH  25  27
HETATM   27  C   UNL     1     -42.814 -52.101  12.587  1.00  0.00     0.114 C 
HETATM   28  C   UNL     1     -43.051 -50.834  13.419  1.00  0.00     0.037 C 
BRANCH  27  29
HETATM   29  C   UNL     1     -42.774 -53.318  13.505  1.00  0.00    -0.014 A 
HETATM   30  C   UNL     1     -43.936 -54.049  13.832  1.00  0.00     0.042 A 
HETATM   31 CL   UNL     1     -45.474 -53.731  13.107  1.00  0.00    -0.084 Cl
HETATM   32  C   UNL     1     -43.896 -55.072  14.790  1.00  0.00     0.024 A 
HETATM   33  C   UNL     1     -42.701 -55.401  15.423  1.00  0.00     0.002 A 
HETATM   34  C   UNL     1     -41.535 -54.724  15.083  1.00  0.00     0.001 A 
HETATM   35  C   UNL     1     -41.574 -53.696  14.139  1.00  0.00     0.011 A 
ENDBRANCH  27  29
ENDBRANCH  25  27
ENDBRANCH   7  25
TORSDOF 8
ENDMDL
MODEL 6
REMARK VINA RESULT:      -6.6      3.806      7.350
REMARK  8 active torsions:
REMARK  status: ('A' for Active; 'I' for Inactive)
REMARK    1  A    between atoms: N_1  and  C1*_2 
REMARK    2  A    between atoms: C2*_7  and  O2*_22 
REMARK    3  A    between atoms: C_10  and  N_13 
REMARK    4  A    between atoms: C3*_11  and  O3*_23 
REMARK    5  A    between atoms: C4*_12  and  C5*_25 
REMARK    6  A    between atoms: N_13  and  C_19 
REMARK    7  A    between atoms: C_18  and  C_19 
REMARK    8  A    between atoms: C5*_25  and  O5*_27 
ROOT
HETATM    1  N   UNL     1     -42.063 -50.952  13.819  1.00  0.00    -0.297 N 
HETATM    2  C   UNL     1     -41.148 -50.499  12.904  1.00  0.00     0.142 A 
HETATM    3  C   UNL     1     -41.883 -49.721  12.020  1.00  0.00     0.122 A 
HETATM    4  N   UNL     1     -43.218 -49.737  12.356  1.00  0.00    -0.346 N 
ATOM      5  HN  UNL     1     -43.980 -49.242  11.893  1.00  0.00     0.167 HD
HETATM    6  C   UNL     1     -43.298 -50.524  13.396  1.00  0.00     0.188 A 
HETATM    7  C   UNL     1     -41.189 -49.092  10.968  1.00  0.00     0.133 A 
HETATM    8  N   UNL     1     -39.827 -50.740  12.849  1.00  0.00    -0.336 N 
ATOM      9  HN  UNL     1     -39.317 -51.315  13.520  1.00  0.00     0.168 HD
HETATM   10  N   UNL     1     -39.849 -49.314  10.878  1.00  0.00    -0.337 N 
ATOM     11  HN  UNL     1     -39.298 -48.882  10.138  1.00  0.00     0.168 HD
HETATM   12  C   UNL     1     -39.264 -50.121  11.793  1.00  0.00     0.183 A 
ENDROOT
BRANCH   1  13
HETATM   13  C1* UNL     1     -41.879 -51.786  14.990  1.00  0.00     0.262 C 
HETATM   14  C2* UNL     1     -43.049 -52.646  15.476  1.00  0.00     0.198 C 
HETATM   15  C3* UNL     1     -42.608 -54.095  15.249  1.00  0.00     0.182 C 
HETATM   16  C4* UNL     1     -41.351 -54.000  14.394  1.00  0.00     0.179 C 
HETATM   17  O4* UNL     1     -40.792 -52.706  14.693  1.00  0.00    -0.353 OA
BRANCH  14  18
HETATM   18  O2* UNL     1     -43.286 -52.406  16.875  1.00  0.00    -0.388 OA
HETATM   19  H2* UNL     1     -43.252 -53.286  17.306  1.00  0.00     0.210 HD
ENDBRANCH  14  18
BRANCH  15  20
HETATM   20  O3* UNL     1     -42.330 -54.693  16.535  1.00  0.00    -0.390 OA
HETATM   21  H3* UNL     1     -41.462 -54.379  16.845  1.00  0.00     0.210 HD
ENDBRANCH  15  20
BRANCH  16  22
HETATM   22  C5* UNL     1     -41.631 -54.163  12.894  1.00  0.00     0.198 C 
BRANCH  22  23
HETATM   23  O5* UNL     1     -40.483 -53.802  12.130  1.00  0.00    -0.398 OA
HETATM   24  H5* UNL     1     -39.807 -54.491  12.265  1.00  0.00     0.209 HD
ENDBRANCH  22  23
ENDBRANCH  16  22
ENDBRANCH   1  13
BRANCH   7  25
HETATM   25  N   UNL     1     -41.752 -48.291   9.994  1.00  0.00    -0.366 N 
HETATM   26  H   UNL     1     -41.276 -48.347   9.107  1.00  0.00     0.161 HD
BRANCH  25  27
HETATM   27  C   UNL     1     -42.496 -47.079  10.331  1.00  0.00     0.114 C 
HETATM   28  C   UNL     1     -43.049 -46.493   9.026  1.00  0.00     0.037 C 
BRANCH  27  29
HETATM   29  C   UNL     1     -41.647 -46.033  11.045  1.00  0.00    -0.014 A 
HETATM   30  C   UNL     1     -41.915 -45.627  12.370  1.00  0.00     0.042 A 
HETATM   31 CL   UNL     1     -43.124 -46.380  13.350  1.00  0.00    -0.084 Cl
HETATM   32  C   UNL     1     -41.212 -44.563  12.951  1.00  0.00     0.024 A 
HETATM   33  C   UNL     1     -40.218 -43.899  12.238  1.00  0.00     0.002 A 
HETATM   34  C   UNL     1     -39.906 -44.313  10.948  1.00  0.00     0.001 A 
HETATM   35  C   UNL     1     -40.613 -45.364  10.361  1.00  0.00     0.011 A 
ENDBRANCH  27  29
ENDBRANCH  25  27
ENDBRANCH   7  25
TORSDOF 8
ENDMDL
MODEL 7
REMARK VINA RESULT:      -6.3      4.307      7.803
REMARK  8 active torsions:
REMARK  status: ('A' for Active; 'I' for Inactive)
REMARK    1  A    between atoms: N_1  and  C1*_2 
REMARK    2  A    between atoms: C2*_7  and  O2*_22 
REMARK    3  A    between atoms: C_10  and  N_13 
REMARK    4  A    between atoms: C3*_11  and  O3*_23 
REMARK    5  A    between atoms: C4*_12  and  C5*_25 
REMARK    6  A    between atoms: N_13  and  C_19 
REMARK    7  A    between atoms: C_18  and  C_19 
REMARK    8  A    between atoms: C5*_25  and  O5*_27 
ROOT
HETATM    1  N   UNL     1     -42.926 -52.902  15.291  1.00  0.00    -0.297 N 
HETATM    2  C   UNL     1     -41.618 -52.860  14.884  1.00  0.00     0.142 A 
HETATM    3  C   UNL     1     -41.228 -51.542  15.073  1.00  0.00     0.122 A 
HETATM    4  N   UNL     1     -42.282 -50.787  15.537  1.00  0.00    -0.346 N 
ATOM      5  HN  UNL     1     -42.277 -49.796  15.778  1.00  0.00     0.167 HD
HETATM    6  C   UNL     1     -43.291 -51.615  15.601  1.00  0.00     0.188 A 
HETATM    7  C   UNL     1     -39.899 -51.200  14.758  1.00  0.00     0.133 A 
HETATM    8  N   UNL     1     -40.857 -53.858  14.403  1.00  0.00    -0.336 N 
ATOM      9  HN  UNL     1     -41.175 -54.819  14.280  1.00  0.00     0.168 HD
HETATM   10  N   UNL     1     -39.097 -52.184  14.266  1.00  0.00    -0.337 N 
ATOM     11  HN  UNL     1     -38.126 -51.992  14.023  1.00  0.00     0.168 HD
HETATM   12  C   UNL     1     -39.617 -53.422  14.104  1.00  0.00     0.183 A 
ENDROOT
BRANCH   1  13
HETATM   13  C1* UNL     1     -43.851 -54.017  15.348  1.00  0.00     0.262 C 
HETATM   14  C2* UNL     1     -45.327 -53.737  15.646  1.00  0.00     0.198 C 
HETATM   15  C3* UNL     1     -46.076 -54.100  14.361  1.00  0.00     0.182 C 
HETATM   16  C4* UNL     1     -44.991 -54.293  13.309  1.00  0.00     0.179 C 
HETATM   17  O4* UNL     1     -43.814 -54.670  14.050  1.00  0.00    -0.353 OA
BRANCH  14  18
HETATM   18  O2* UNL     1     -45.772 -54.563  16.737  1.00  0.00    -0.388 OA
HETATM   19  H2* UNL     1     -46.699 -54.806  16.528  1.00  0.00     0.210 HD
ENDBRANCH  14  18
BRANCH  15  20
HETATM   20  O3* UNL     1     -46.812 -55.322  14.592  1.00  0.00    -0.390 OA
HETATM   21  H3* UNL     1     -47.001 -55.399  15.545  1.00  0.00     0.210 HD
ENDBRANCH  15  20
BRANCH  16  22
HETATM   22  C5* UNL     1     -44.748 -53.038  12.460  1.00  0.00     0.198 C 
BRANCH  22  23
HETATM   23  O5* UNL     1     -43.444 -53.069  11.885  1.00  0.00    -0.398 OA
HETATM   24  H5* UNL     1     -42.799 -52.965  12.609  1.00  0.00     0.209 HD
ENDBRANCH  22  23
ENDBRANCH  16  22
ENDBRANCH   1  13
BRANCH   7  25
HETATM   25  N   UNL     1     -39.338 -49.943  14.874  1.00  0.00    -0.366 N 
HETATM   26  H   UNL     1     -39.808 -49.357  15.547  1.00  0.00     0.161 HD
BRANCH  25  27
HETATM   27  C   UNL     1     -38.609 -49.322  13.770  1.00  0.00     0.114 C 
HETATM   28  C   UNL     1     -37.388 -48.607  14.360  1.00  0.00     0.037 C 
BRANCH  27  29
HETATM   29  C   UNL     1     -39.453 -48.328  12.978  1.00  0.00    -0.014 A 
HETATM   30  C   UNL     1     -40.260 -48.728  11.892  1.00  0.00     0.042 A 
HETATM   31 CL   UNL     1     -40.486 -50.387  11.458  1.00  0.00    -0.084 Cl
HETATM   32  C   UNL     1     -40.911 -47.779  11.092  1.00  0.00     0.024 A 
HETATM   33  C   UNL     1     -40.789 -46.420  11.367  1.00  0.00     0.002 A 
HETATM   34  C   UNL     1     -40.036 -46.006  12.461  1.00  0.00     0.001 A 
HETATM   35  C   UNL     1     -39.376 -46.948  13.252  1.00  0.00     0.011 A 
ENDBRANCH  27  29
ENDBRANCH  25  27
ENDBRANCH   7  25
TORSDOF 8
ENDMDL
MODEL 8
REMARK VINA RESULT:      -6.3      2.034      3.119
REMARK  8 active torsions:
REMARK  status: ('A' for Active; 'I' for Inactive)
REMARK    1  A    between atoms: N_1  and  C1*_2 
REMARK    2  A    between atoms: C2*_7  and  O2*_22 
REMARK    3  A    between atoms: C_10  and  N_13 
REMARK    4  A    between atoms: C3*_11  and  O3*_23 
REMARK    5  A    between atoms: C4*_12  and  C5*_25 
REMARK    6  A    between atoms: N_13  and  C_19 
REMARK    7  A    between atoms: C_18  and  C_19 
REMARK    8  A    between atoms: C5*_25  and  O5*_27 
ROOT
HETATM    1  N   UNL     1     -42.106 -47.277  11.412  1.00  0.00    -0.297 N 
HETATM    2  C   UNL     1     -41.427 -48.469  11.407  1.00  0.00     0.142 A 
HETATM    3  C   UNL     1     -42.114 -49.273  12.307  1.00  0.00     0.122 A 
HETATM    4  N   UNL     1     -43.153 -48.577  12.883  1.00  0.00    -0.346 N 
ATOM      5  HN  UNL     1     -43.830 -48.923  13.562  1.00  0.00     0.167 HD
HETATM    6  C   UNL     1     -43.084 -47.377  12.370  1.00  0.00     0.188 A 
HETATM    7  C   UNL     1     -41.651 -50.589  12.493  1.00  0.00     0.133 A 
HETATM    8  N   UNL     1     -40.337 -48.810  10.699  1.00  0.00    -0.336 N 
ATOM      9  HN  UNL     1     -39.859 -48.194  10.042  1.00  0.00     0.168 HD
HETATM   10  N   UNL     1     -40.546 -50.972  11.795  1.00  0.00    -0.337 N 
ATOM     11  HN  UNL     1     -40.170 -51.915  11.890  1.00  0.00     0.168 HD
HETATM   12  C   UNL     1     -39.958 -50.074  10.972  1.00  0.00     0.183 A 
ENDROOT
BRANCH   1  13
HETATM   13  C1* UNL     1     -41.870 -46.065  10.653  1.00  0.00     0.262 C 
HETATM   14  C2* UNL     1     -42.365 -44.731  11.218  1.00  0.00     0.198 C 
HETATM   15  C3* UNL     1     -41.099 -43.932  11.538  1.00  0.00     0.182 C 
HETATM   16  C4* UNL     1     -39.955 -44.931  11.415  1.00  0.00     0.179 C 
HETATM   17  O4* UNL     1     -40.431 -45.933  10.495  1.00  0.00    -0.353 OA
BRANCH  14  18
HETATM   18  O2* UNL     1     -43.157 -44.044  10.233  1.00  0.00    -0.388 OA
HETATM   19  H2* UNL     1     -42.678 -43.210  10.039  1.00  0.00     0.210 HD
ENDBRANCH  14  18
BRANCH  15  20
HETATM   20  O3* UNL     1     -40.976 -42.866  10.570  1.00  0.00    -0.390 OA
HETATM   21  H3* UNL     1     -40.032 -42.662  10.445  1.00  0.00     0.210 HD
ENDBRANCH  15  20
BRANCH  16  22
HETATM   22  C5* UNL     1     -39.549 -45.546  12.761  1.00  0.00     0.198 C 
BRANCH  22  23
HETATM   23  O5* UNL     1     -39.568 -44.558  13.788  1.00  0.00    -0.398 OA
HETATM   24  H5* UNL     1     -38.913 -44.817  14.462  1.00  0.00     0.209 HD
ENDBRANCH  22  23
ENDBRANCH  16  22
ENDBRANCH   1  13
BRANCH   7  25
HETATM   25  N   UNL     1     -42.199 -51.526  13.348  1.00  0.00    -0.366 N 
HETATM   26  H   UNL     1     -42.189 -51.238  14.314  1.00  0.00     0.161 HD
BRANCH  25  27
HETATM   27  C   UNL     1     -42.203 -52.951  13.026  1.00  0.00     0.114 C 
HETATM   28  C   UNL     1     -43.586 -53.299  12.464  1.00  0.00     0.037 C 
BRANCH  27  29
HETATM   29  C   UNL     1     -41.899 -53.838  14.229  1.00  0.00    -0.014 A 
HETATM   30  C   UNL     1     -40.584 -54.042  14.698  1.00  0.00     0.042 A 
HETATM   31 CL   UNL     1     -39.222 -53.191  14.056  1.00  0.00    -0.084 Cl
HETATM   32  C   UNL     1     -40.318 -54.973  15.711  1.00  0.00     0.024 A 
HETATM   33  C   UNL     1     -41.353 -55.702  16.291  1.00  0.00     0.002 A 
HETATM   34  C   UNL     1     -42.662 -55.484  15.876  1.00  0.00     0.001 A 
HETATM   35  C   UNL     1     -42.929 -54.566  14.858  1.00  0.00     0.011 A 
ENDBRANCH  27  29
ENDBRANCH  25  27
ENDBRANCH   7  25
TORSDOF 8
ENDMDL
MODEL 9
REMARK VINA RESULT:      -6.2      3.260      6.951
REMARK  8 active torsions:
REMARK  status: ('A' for Active; 'I' for Inactive)
REMARK    1  A    between atoms: N_1  and  C1*_2 
REMARK    2  A    between atoms: C2*_7  and  O2*_22 
REMARK    3  A    between atoms: C_10  and  N_13 
REMARK    4  A    between atoms: C3*_11  and  O3*_23 
REMARK    5  A    between atoms: C4*_12  and  C5*_25 
REMARK    6  A    between atoms: N_13  and  C_19 
REMARK    7  A    between atoms: C_18  and  C_19 
REMARK    8  A    between atoms: C5*_25  and  O5*_27 
ROOT
HETATM    1  N   UNL     1     -40.110 -50.287  12.223  1.00  0.00    -0.297 N 
HETATM    2  C   UNL     1     -40.662 -49.238  11.533  1.00  0.00     0.142 A 
HETATM    3  C   UNL     1     -39.971 -48.118  11.975  1.00  0.00     0.122 A 
HETATM    4  N   UNL     1     -39.057 -48.466  12.945  1.00  0.00    -0.346 N 
ATOM      5  HN  UNL     1     -38.405 -47.850  13.431  1.00  0.00     0.167 HD
HETATM    6  C   UNL     1     -39.206 -49.753  13.108  1.00  0.00     0.188 A 
HETATM    7  C   UNL     1     -40.311 -46.874  11.411  1.00  0.00     0.133 A 
HETATM    8  N   UNL     1     -41.652 -49.260  10.624  1.00  0.00    -0.336 N 
ATOM      9  HN  UNL     1     -42.136 -50.104  10.318  1.00  0.00     0.168 HD
HETATM   10  N   UNL     1     -41.312 -46.855  10.488  1.00  0.00    -0.337 N 
ATOM     11  HN  UNL     1     -41.596 -45.981  10.046  1.00  0.00     0.168 HD
HETATM   12  C   UNL     1     -41.921 -48.020  10.170  1.00  0.00     0.183 A 
ENDROOT
BRANCH   1  13
HETATM   13  C1* UNL     1     -40.407 -51.704  12.161  1.00  0.00     0.262 C 
HETATM   14  C2* UNL     1     -40.253 -52.548  13.430  1.00  0.00     0.198 C 
HETATM   15  C3* UNL     1     -41.672 -52.989  13.797  1.00  0.00     0.182 C 
HETATM   16  C4* UNL     1     -42.590 -52.160  12.909  1.00  0.00     0.179 C 
HETATM   17  O4* UNL     1     -41.796 -51.833  11.752  1.00  0.00    -0.353 OA
BRANCH  14  18
HETATM   18  O2* UNL     1     -39.424 -53.692  13.160  1.00  0.00    -0.388 OA
HETATM   19  H2* UNL     1     -38.704 -53.369  12.576  1.00  0.00     0.210 HD
ENDBRANCH  14  18
BRANCH  15  20
HETATM   20  O3* UNL     1     -41.797 -54.401  13.516  1.00  0.00    -0.390 OA
HETATM   21  H3* UNL     1     -41.860 -54.885  14.359  1.00  0.00     0.210 HD
ENDBRANCH  15  20
BRANCH  16  22
HETATM   22  C5* UNL     1     -43.122 -50.899  13.605  1.00  0.00     0.198 C 
BRANCH  22  23
HETATM   23  O5* UNL     1     -43.843 -50.086  12.683  1.00  0.00    -0.398 OA
HETATM   24  H5* UNL     1     -43.284 -49.318  12.464  1.00  0.00     0.209 HD
ENDBRANCH  22  23
ENDBRANCH  16  22
ENDBRANCH   1  13
BRANCH   7  25
HETATM   25  N   UNL     1     -39.740 -45.658  11.733  1.00  0.00    -0.366 N 
HETATM   26  H   UNL     1     -38.738 -45.644  11.618  1.00  0.00     0.161 HD
BRANCH  25  27
HETATM   27  C   UNL     1     -40.362 -44.746  12.690  1.00  0.00     0.114 C 
HETATM   28  C   UNL     1     -39.541 -43.451  12.704  1.00  0.00     0.037 C 
BRANCH  27  29
HETATM   29  C   UNL     1     -40.441 -45.320  14.101  1.00  0.00    -0.014 A 
HETATM   30  C   UNL     1     -41.650 -45.796  14.651  1.00  0.00     0.042 A 
HETATM   31 CL   UNL     1     -43.110 -45.915  13.732  1.00  0.00    -0.084 Cl
HETATM   32  C   UNL     1     -41.724 -46.183  15.996  1.00  0.00     0.024 A 
HETATM   33  C   UNL     1     -40.598 -46.125  16.812  1.00  0.00     0.002 A 
HETATM   34  C   UNL     1     -39.385 -45.702  16.279  1.00  0.00     0.001 A 
HETATM   35  C   UNL     1     -39.310 -45.304  14.943  1.00  0.00     0.011 A 
ENDBRANCH  27  29
ENDBRANCH  25  27
ENDBRANCH   7  25
TORSDOF 8
ENDMDL
