MODEL 1
REMARK VINA RESULT:      -5.8      0.000      0.000
REMARK  3 active torsions:
REMARK  status: ('A' for Active; 'I' for Inactive)
REMARK    1  A    between atoms: C_8  and  C_9 
REMARK    2  A    between atoms: C_9  and  C_10 
REMARK       I    between atoms: C_10  and  N_12 
REMARK    3  A    between atoms: N_12  and  C_13 
ROOT
HETATM    1  C   UNL     1     -42.616 -49.723  12.328  1.00  0.00     0.222 C 
HETATM    2  O   UNL     1     -41.472 -49.833  11.894  1.00  0.00    -0.273 OA
HETATM    3  N   UNL     1     -43.510 -48.793  11.835  1.00  0.00    -0.355 N 
HETATM    4  H   UNL     1     -44.379 -48.650  12.337  1.00  0.00     0.162 HD
ENDROOT
BRANCH   1   5
HETATM    5  C   UNL     1     -43.142 -50.604  13.446  1.00  0.00     0.146 C 
BRANCH   5   6
HETATM    6  C   UNL     1     -43.665 -51.938  13.016  1.00  0.00     0.006 A 
HETATM    7  C   UNL     1     -42.990 -53.173  12.758  1.00  0.00     0.038 A 
HETATM    8  C   UNL     1     -41.548 -53.512  12.814  1.00  0.00     0.071 C 
HETATM    9  N   UNL     1     -43.859 -54.142  12.438  1.00  0.00    -0.265 N 
HETATM   10  O   UNL     1     -45.108 -53.572  12.498  1.00  0.00    -0.242 OA
ATOM     11  HN  UNL     1     -43.638 -55.109  12.197  1.00  0.00     0.194 HD
HETATM   12  C   UNL     1     -44.996 -52.269  12.847  1.00  0.00     0.081 A 
HETATM   13  C   UNL     1     -46.267 -51.531  12.981  1.00  0.00     0.079 C 
ENDBRANCH   5   6
ENDBRANCH   1   5
BRANCH   3  14
HETATM   14  C   UNL     1     -43.126 -47.836  10.797  1.00  0.00     0.099 C 
HETATM   15  C   UNL     1     -42.471 -46.576  11.393  1.00  0.00     0.041 C 
HETATM   16  C   UNL     1     -42.703 -45.382  10.466  1.00  0.00     0.142 C 
HETATM   17  S   UNL     1     -43.749 -45.941   9.141  1.00  0.00     0.146 S 
HETATM   18  O   UNL     1     -44.856 -45.023   8.987  1.00  0.00    -0.228 OA
HETATM   19  O   UNL     1     -42.911 -46.339   8.028  1.00  0.00    -0.228 OA
HETATM   20  C   UNL     1     -44.321 -47.398   9.965  1.00  0.00     0.165 C 
ENDBRANCH   3  14
TORSDOF 3
ENDMDL
MODEL 2
REMARK VINA RESULT:      -5.6      4.344      5.578
REMARK  3 active torsions:
REMARK  status: ('A' for Active; 'I' for Inactive)
REMARK    1  A    between atoms: C_8  and  C_9 
REMARK    2  A    between atoms: C_9  and  C_10 
REMARK       I    between atoms: C_10  and  N_12 
REMARK    3  A    between atoms: N_12  and  C_13 
ROOT
HETATM    1  C   UNL     1     -41.582 -53.221  14.230  1.00  0.00     0.222 C 
HETATM    2  O   UNL     1     -41.154 -54.135  13.531  1.00  0.00    -0.273 OA
HETATM    3  N   UNL     1     -40.838 -52.092  14.514  1.00  0.00    -0.355 N 
HETATM    4  H   UNL     1     -41.187 -51.452  15.217  1.00  0.00     0.162 HD
ENDROOT
BRANCH   1   5
HETATM    5  C   UNL     1     -42.971 -53.256  14.842  1.00  0.00     0.146 C 
BRANCH   5   6
HETATM    6  C   UNL     1     -44.090 -52.926  13.905  1.00  0.00     0.006 A 
HETATM    7  C   UNL     1     -44.402 -51.720  13.201  1.00  0.00     0.038 A 
HETATM    8  C   UNL     1     -43.723 -50.403  13.200  1.00  0.00     0.071 C 
HETATM    9  N   UNL     1     -45.482 -51.880  12.422  1.00  0.00    -0.265 N 
HETATM   10  O   UNL     1     -45.881 -53.185  12.583  1.00  0.00    -0.242 OA
ATOM     11  HN  UNL     1     -45.919 -51.174  11.829  1.00  0.00     0.194 HD
HETATM   12  C   UNL     1     -45.055 -53.808  13.456  1.00  0.00     0.081 A 
HETATM   13  C   UNL     1     -45.346 -55.233  13.705  1.00  0.00     0.079 C 
ENDBRANCH   5   6
ENDBRANCH   1   5
BRANCH   3  14
HETATM   14  C   UNL     1     -39.461 -51.944  14.043  1.00  0.00     0.099 C 
HETATM   15  C   UNL     1     -38.588 -51.179  15.055  1.00  0.00     0.041 C 
HETATM   16  C   UNL     1     -37.451 -50.464  14.323  1.00  0.00     0.142 C 
HETATM   17  S   UNL     1     -37.700 -50.724  12.582  1.00  0.00     0.146 S 
HETATM   18  O   UNL     1     -37.627 -49.453  11.894  1.00  0.00    -0.228 OA
HETATM   19  O   UNL     1     -36.922 -51.874  12.171  1.00  0.00    -0.228 OA
HETATM   20  C   UNL     1     -39.396 -51.209  12.714  1.00  0.00     0.165 C 
ENDBRANCH   3  14
TORSDOF 3
ENDMDL
MODEL 3
REMARK VINA RESULT:      -5.6      3.035      7.080
REMARK  3 active torsions:
REMARK  status: ('A' for Active; 'I' for Inactive)
REMARK    1  A    between atoms: C_8  and  C_9 
REMARK    2  A    between atoms: C_9  and  C_10 
REMARK       I    between atoms: C_10  and  N_12 
REMARK    3  A    between atoms: N_12  and  C_13 
ROOT
HETATM    1  C   UNL     1     -42.399 -49.059  11.783  1.00  0.00     0.222 C 
HETATM    2  O   UNL     1     -41.315 -49.082  11.208  1.00  0.00    -0.273 OA
HETATM    3  N   UNL     1     -42.890 -50.144  12.483  1.00  0.00    -0.355 N 
HETATM    4  H   UNL     1     -43.852 -50.114  12.802  1.00  0.00     0.162 HD
ENDROOT
BRANCH   1   5
HETATM    5  C   UNL     1     -43.292 -47.832  11.774  1.00  0.00     0.146 C 
BRANCH   5   6
HETATM    6  C   UNL     1     -43.403 -47.133  10.456  1.00  0.00     0.006 A 
HETATM    7  C   UNL     1     -44.431 -47.162   9.460  1.00  0.00     0.038 A 
HETATM    8  C   UNL     1     -45.705 -47.917   9.414  1.00  0.00     0.071 C 
HETATM    9  N   UNL     1     -44.142 -46.337   8.443  1.00  0.00    -0.265 N 
HETATM   10  O   UNL     1     -42.943 -45.745   8.758  1.00  0.00    -0.242 OA
ATOM     11  HN  UNL     1     -44.700 -46.182   7.603  1.00  0.00     0.194 HD
HETATM   12  C   UNL     1     -42.506 -46.209   9.952  1.00  0.00     0.081 A 
HETATM   13  C   UNL     1     -41.236 -45.635  10.436  1.00  0.00     0.079 C 
ENDBRANCH   5   6
ENDBRANCH   1   5
BRANCH   3  14
HETATM   14  C   UNL     1     -42.168 -51.415  12.531  1.00  0.00     0.099 C 
HETATM   15  C   UNL     1     -43.125 -52.620  12.464  1.00  0.00     0.041 C 
HETATM   16  C   UNL     1     -42.496 -53.823  13.171  1.00  0.00     0.142 C 
HETATM   17  S   UNL     1     -40.963 -53.271  13.884  1.00  0.00     0.146 S 
HETATM   18  O   UNL     1     -40.911 -53.671  15.273  1.00  0.00    -0.228 OA
HETATM   19  O   UNL     1     -39.891 -53.559  12.953  1.00  0.00    -0.228 OA
HETATM   20  C   UNL     1     -41.336 -51.543  13.797  1.00  0.00     0.165 C 
ENDBRANCH   3  14
TORSDOF 3
ENDMDL
MODEL 4
REMARK VINA RESULT:      -5.6      5.300      6.653
REMARK  3 active torsions:
REMARK  status: ('A' for Active; 'I' for Inactive)
REMARK    1  A    between atoms: C_8  and  C_9 
REMARK    2  A    between atoms: C_9  and  C_10 
REMARK       I    between atoms: C_10  and  N_12 
REMARK    3  A    between atoms: N_12  and  C_13 
ROOT
HETATM    1  C   UNL     1     -44.191 -54.797  14.340  1.00  0.00     0.222 C 
HETATM    2  O   UNL     1     -43.804 -55.760  14.996  1.00  0.00    -0.273 OA
HETATM    3  N   UNL     1     -43.326 -53.847  13.837  1.00  0.00    -0.355 N 
HETATM    4  H   UNL     1     -43.719 -53.001  13.440  1.00  0.00     0.162 HD
ENDROOT
BRANCH   1   5
HETATM    5  C   UNL     1     -45.659 -54.572  14.027  1.00  0.00     0.146 C 
BRANCH   5   6
HETATM    6  C   UNL     1     -46.209 -53.250  14.461  1.00  0.00     0.006 A 
HETATM    7  C   UNL     1     -46.405 -52.696  15.765  1.00  0.00     0.038 A 
HETATM    8  C   UNL     1     -46.144 -53.272  17.106  1.00  0.00     0.071 C 
HETATM    9  N   UNL     1     -46.886 -51.446  15.693  1.00  0.00    -0.265 N 
HETATM   10  O   UNL     1     -46.994 -51.154  14.355  1.00  0.00    -0.242 OA
ATOM     11  HN  UNL     1     -47.123 -50.835  16.475  1.00  0.00     0.194 HD
HETATM   12  C   UNL     1     -46.588 -52.218  13.623  1.00  0.00     0.081 A 
HETATM   13  C   UNL     1     -46.622 -52.038  12.159  1.00  0.00     0.079 C 
ENDBRANCH   5   6
ENDBRANCH   1   5
BRANCH   3  14
HETATM   14  C   UNL     1     -41.889 -53.899  14.107  1.00  0.00     0.099 C 
HETATM   15  C   UNL     1     -41.521 -53.145  15.398  1.00  0.00     0.041 C 
HETATM   16  C   UNL     1     -40.082 -52.634  15.309  1.00  0.00     0.142 C 
HETATM   17  S   UNL     1     -39.484 -53.026  13.681  1.00  0.00     0.146 S 
HETATM   18  O   UNL     1     -38.903 -51.842  13.087  1.00  0.00    -0.228 OA
HETATM   19  O   UNL     1     -38.779 -54.290  13.740  1.00  0.00    -0.228 OA
HETATM   20  C   UNL     1     -41.079 -53.303  12.966  1.00  0.00     0.165 C 
ENDBRANCH   3  14
TORSDOF 3
ENDMDL
MODEL 5
REMARK VINA RESULT:      -5.4      2.328      3.362
REMARK  3 active torsions:
REMARK  status: ('A' for Active; 'I' for Inactive)
REMARK    1  A    between atoms: C_8  and  C_9 
REMARK    2  A    between atoms: C_9  and  C_10 
REMARK       I    between atoms: C_10  and  N_12 
REMARK    3  A    between atoms: N_12  and  C_13 
ROOT
HETATM    1  C   UNL     1     -42.607 -51.692  13.003  1.00  0.00     0.222 C 
HETATM    2  O   UNL     1     -42.400 -51.443  14.188  1.00  0.00    -0.273 OA
HETATM    3  N   UNL     1     -42.346 -50.782  11.997  1.00  0.00    -0.355 N 
HETATM    4  H   UNL     1     -42.682 -50.990  11.064  1.00  0.00     0.162 HD
ENDROOT
BRANCH   1   5
HETATM    5  C   UNL     1     -43.171 -53.025  12.546  1.00  0.00     0.146 C 
BRANCH   5   6
HETATM    6  C   UNL     1     -44.352 -53.518  13.320  1.00  0.00     0.006 A 
HETATM    7  C   UNL     1     -45.744 -53.203  13.213  1.00  0.00     0.038 A 
HETATM    8  C   UNL     1     -46.452 -52.263  12.312  1.00  0.00     0.071 C 
HETATM    9  N   UNL     1     -46.471 -53.919  14.083  1.00  0.00    -0.265 N 
HETATM   10  O   UNL     1     -45.582 -54.723  14.754  1.00  0.00    -0.242 OA
ATOM     11  HN  UNL     1     -47.481 -53.876  14.219  1.00  0.00     0.194 HD
HETATM   12  C   UNL     1     -44.327 -54.493  14.300  1.00  0.00     0.081 A 
HETATM   13  C   UNL     1     -43.264 -55.312  14.913  1.00  0.00     0.079 C 
ENDBRANCH   5   6
ENDBRANCH   1   5
BRANCH   3  14
HETATM   14  C   UNL     1     -41.856 -49.435  12.290  1.00  0.00     0.099 C 
HETATM   15  C   UNL     1     -42.999 -48.486  12.695  1.00  0.00     0.041 C 
HETATM   16  C   UNL     1     -42.628 -47.045  12.336  1.00  0.00     0.142 C 
HETATM   17  S   UNL     1     -41.070 -47.100  11.482  1.00  0.00     0.146 S 
HETATM   18  O   UNL     1     -41.170 -46.341  10.255  1.00  0.00    -0.228 OA
HETATM   19  O   UNL     1     -40.009 -46.882  12.444  1.00  0.00    -0.228 OA
HETATM   20  C   UNL     1     -41.136 -48.826  11.098  1.00  0.00     0.165 C 
ENDBRANCH   3  14
TORSDOF 3
ENDMDL
MODEL 6
REMARK VINA RESULT:      -5.4      2.285      3.273
REMARK  3 active torsions:
REMARK  status: ('A' for Active; 'I' for Inactive)
REMARK    1  A    between atoms: C_8  and  C_9 
REMARK    2  A    between atoms: C_9  and  C_10 
REMARK       I    between atoms: C_10  and  N_12 
REMARK    3  A    between atoms: N_12  and  C_13 
ROOT
HETATM    1  C   UNL     1     -41.688 -50.551  12.130  1.00  0.00     0.222 C 
HETATM    2  O   UNL     1     -42.176 -50.217  13.206  1.00  0.00    -0.273 OA
HETATM    3  N   UNL     1     -41.494 -49.658  11.094  1.00  0.00    -0.355 N 
HETATM    4  H   UNL     1     -41.234 -50.026  10.186  1.00  0.00     0.162 HD
ENDROOT
BRANCH   1   5
HETATM    5  C   UNL     1     -41.255 -51.978  11.849  1.00  0.00     0.146 C 
BRANCH   5   6
HETATM    6  C   UNL     1     -41.638 -52.979  12.894  1.00  0.00     0.006 A 
HETATM    7  C   UNL     1     -42.884 -53.630  13.159  1.00  0.00     0.038 A 
HETATM    8  C   UNL     1     -44.201 -53.498  12.492  1.00  0.00     0.071 C 
HETATM    9  N   UNL     1     -42.769 -54.500  14.173  1.00  0.00    -0.265 N 
HETATM   10  O   UNL     1     -41.456 -54.451  14.574  1.00  0.00    -0.242 OA
ATOM     11  HN  UNL     1     -43.508 -55.081  14.568  1.00  0.00     0.194 HD
HETATM   12  C   UNL     1     -40.782 -53.555  13.813  1.00  0.00     0.081 A 
HETATM   13  C   UNL     1     -39.344 -53.416  14.112  1.00  0.00     0.079 C 
ENDBRANCH   5   6
ENDBRANCH   1   5
BRANCH   3  14
HETATM   14  C   UNL     1     -41.917 -48.262  11.197  1.00  0.00     0.099 C 
HETATM   15  C   UNL     1     -42.879 -47.869  10.060  1.00  0.00     0.041 C 
HETATM   16  C   UNL     1     -42.765 -46.370   9.778  1.00  0.00     0.142 C 
HETATM   17  S   UNL     1     -41.463 -45.738  10.811  1.00  0.00     0.146 S 
HETATM   18  O   UNL     1     -40.547 -44.962  10.005  1.00  0.00    -0.228 OA
HETATM   19  O   UNL     1     -42.051 -45.221  12.030  1.00  0.00    -0.228 OA
HETATM   20  C   UNL     1     -40.732 -47.310  11.160  1.00  0.00     0.165 C 
ENDBRANCH   3  14
TORSDOF 3
ENDMDL
MODEL 7
REMARK VINA RESULT:      -5.4      4.804      7.520
REMARK  3 active torsions:
REMARK  status: ('A' for Active; 'I' for Inactive)
REMARK    1  A    between atoms: C_8  and  C_9 
REMARK    2  A    between atoms: C_9  and  C_10 
REMARK       I    between atoms: C_10  and  N_12 
REMARK    3  A    between atoms: N_12  and  C_13 
ROOT
HETATM    1  C   UNL     1     -41.001 -51.896  12.271  1.00  0.00     0.222 C 
HETATM    2  O   UNL     1     -40.195 -52.819  12.351  1.00  0.00    -0.273 OA
HETATM    3  N   UNL     1     -42.308 -52.012  12.702  1.00  0.00    -0.355 N 
HETATM    4  H   UNL     1     -42.958 -51.271  12.467  1.00  0.00     0.162 HD
ENDROOT
BRANCH   1   5
HETATM    5  C   UNL     1     -40.624 -50.545  11.689  1.00  0.00     0.146 C 
BRANCH   5   6
HETATM    6  C   UNL     1     -39.674 -49.737  12.515  1.00  0.00     0.006 A 
HETATM    7  C   UNL     1     -39.858 -49.049  13.757  1.00  0.00     0.038 A 
HETATM    8  C   UNL     1     -41.064 -48.902  14.606  1.00  0.00     0.071 C 
HETATM    9  N   UNL     1     -38.715 -48.486  14.172  1.00  0.00    -0.265 N 
HETATM   10  O   UNL     1     -37.765 -48.806  13.232  1.00  0.00    -0.242 OA
ATOM     11  HN  UNL     1     -38.577 -47.930  15.016  1.00  0.00     0.194 HD
HETATM   12  C   UNL     1     -38.330 -49.553  12.253  1.00  0.00     0.081 A 
HETATM   13  C   UNL     1     -37.417 -49.998  11.182  1.00  0.00     0.079 C 
ENDBRANCH   5   6
ENDBRANCH   1   5
BRANCH   3  14
HETATM   14  C   UNL     1     -42.831 -53.272  13.230  1.00  0.00     0.099 C 
HETATM   15  C   UNL     1     -44.124 -53.701  12.513  1.00  0.00     0.041 C 
HETATM   16  C   UNL     1     -44.981 -54.552  13.452  1.00  0.00     0.142 C 
HETATM   17  S   UNL     1     -44.165 -54.577  15.031  1.00  0.00     0.146 S 
HETATM   18  O   UNL     1     -45.115 -54.235  16.066  1.00  0.00    -0.228 OA
HETATM   19  O   UNL     1     -43.334 -55.762  15.102  1.00  0.00    -0.228 OA
HETATM   20  C   UNL     1     -43.127 -53.179  14.719  1.00  0.00     0.165 C 
ENDBRANCH   3  14
TORSDOF 3
ENDMDL
MODEL 8
REMARK VINA RESULT:      -5.3      3.277      7.056
REMARK  3 active torsions:
REMARK  status: ('A' for Active; 'I' for Inactive)
REMARK    1  A    between atoms: C_8  and  C_9 
REMARK    2  A    between atoms: C_9  and  C_10 
REMARK       I    between atoms: C_10  and  N_12 
REMARK    3  A    between atoms: N_12  and  C_13 
ROOT
HETATM    1  C   UNL     1     -42.887 -49.911  13.020  1.00  0.00     0.222 C 
HETATM    2  O   UNL     1     -42.343 -50.653  12.207  1.00  0.00    -0.273 OA
HETATM    3  N   UNL     1     -44.028 -50.275  13.709  1.00  0.00    -0.355 N 
HETATM    4  H   UNL     1     -44.512 -49.565  14.245  1.00  0.00     0.162 HD
ENDROOT
BRANCH   1   5
HETATM    5  C   UNL     1     -42.349 -48.528  13.337  1.00  0.00     0.146 C 
BRANCH   5   6
HETATM    6  C   UNL     1     -41.588 -47.870  12.229  1.00  0.00     0.006 A 
HETATM    7  C   UNL     1     -42.018 -47.379  10.955  1.00  0.00     0.038 A 
HETATM    8  C   UNL     1     -43.358 -47.392  10.321  1.00  0.00     0.071 C 
HETATM    9  N   UNL     1     -41.003 -46.813  10.287  1.00  0.00    -0.265 N 
HETATM   10  O   UNL     1     -39.905 -46.903  11.108  1.00  0.00    -0.242 OA
ATOM     11  HN  UNL     1     -41.039 -46.400   9.355  1.00  0.00     0.194 HD
HETATM   12  C   UNL     1     -40.251 -47.523  12.262  1.00  0.00     0.081 A 
HETATM   13  C   UNL     1     -39.172 -47.665  13.259  1.00  0.00     0.079 C 
ENDBRANCH   5   6
ENDBRANCH   1   5
BRANCH   3  14
HETATM   14  C   UNL     1     -44.694 -51.555  13.466  1.00  0.00     0.099 C 
HETATM   15  C   UNL     1     -46.185 -51.506  13.849  1.00  0.00     0.041 C 
HETATM   16  C   UNL     1     -46.667 -52.905  14.237  1.00  0.00     0.142 C 
HETATM   17  S   UNL     1     -45.250 -53.979  14.200  1.00  0.00     0.146 S 
HETATM   18  O   UNL     1     -45.185 -54.727  15.436  1.00  0.00    -0.228 OA
HETATM   19  O   UNL     1     -45.191 -54.619  12.902  1.00  0.00    -0.228 OA
HETATM   20  C   UNL     1     -44.044 -52.686  14.247  1.00  0.00     0.165 C 
ENDBRANCH   3  14
TORSDOF 3
ENDMDL
MODEL 9
REMARK VINA RESULT:      -5.3      4.360      7.634
REMARK  3 active torsions:
REMARK  status: ('A' for Active; 'I' for Inactive)
REMARK    1  A    between atoms: C_8  and  C_9 
REMARK    2  A    between atoms: C_9  and  C_10 
REMARK       I    between atoms: C_10  and  N_12 
REMARK    3  A    between atoms: N_12  and  C_13 
ROOT
HETATM    1  C   UNL     1     -39.855 -46.946  11.848  1.00  0.00     0.222 C 
HETATM    2  O   UNL     1     -40.207 -46.644  12.985  1.00  0.00    -0.273 OA
HETATM    3  N   UNL     1     -39.335 -48.187  11.538  1.00  0.00    -0.355 N 
HETATM    4  H   UNL     1     -38.923 -48.319  10.621  1.00  0.00     0.162 HD
ENDROOT
BRANCH   1   5
HETATM    5  C   UNL     1     -39.963 -45.976  10.686  1.00  0.00     0.146 C 
BRANCH   5   6
HETATM    6  C   UNL     1     -41.296 -45.313  10.529  1.00  0.00     0.006 A 
HETATM    7  C   UNL     1     -42.558 -45.830  10.096  1.00  0.00     0.038 A 
HETATM    8  C   UNL     1     -42.936 -47.189   9.639  1.00  0.00     0.071 C 
HETATM    9  N   UNL     1     -43.512 -44.890  10.153  1.00  0.00    -0.265 N 
HETATM   10  O   UNL     1     -42.905 -43.757  10.638  1.00  0.00    -0.242 OA
ATOM     11  HN  UNL     1     -44.491 -44.995   9.888  1.00  0.00     0.194 HD
HETATM   12  C   UNL     1     -41.594 -44.007  10.868  1.00  0.00     0.081 A 
HETATM   13  C   UNL     1     -40.816 -42.882  11.423  1.00  0.00     0.079 C 
ENDBRANCH   5   6
ENDBRANCH   1   5
BRANCH   3  14
HETATM   14  C   UNL     1     -39.116 -49.205  12.565  1.00  0.00     0.099 C 
HETATM   15  C   UNL     1     -37.704 -49.815  12.476  1.00  0.00     0.041 C 
HETATM   16  C   UNL     1     -37.720 -51.241  13.029  1.00  0.00     0.142 C 
HETATM   17  S   UNL     1     -39.408 -51.633  13.428  1.00  0.00     0.146 S 
HETATM   18  O   UNL     1     -39.755 -52.907  12.838  1.00  0.00    -0.228 OA
HETATM   19  O   UNL     1     -39.629 -51.341  14.830  1.00  0.00    -0.228 OA
HETATM   20  C   UNL     1     -40.126 -50.336  12.462  1.00  0.00     0.165 C 
ENDBRANCH   3  14
TORSDOF 3
ENDMDL
