MODEL 1
REMARK VINA RESULT:      -5.6      0.000      0.000
REMARK  6 active torsions:
REMARK  status: ('A' for Active; 'I' for Inactive)
REMARK    1  A    between atoms: C_2  and  C_3 
REMARK    2  A    between atoms: C_2  and  N_10 
REMARK    3  A    between atoms: C_3  and  N_4 
REMARK    4  A    between atoms: N_10  and  C_11 
REMARK    5  A    between atoms: C_11  and  C_12 
REMARK       I    between atoms: C_12  and  N_14 
REMARK    6  A    between atoms: N_14  and  C_15 
ROOT
HETATM    1  N   UNL     1     -42.145 -48.822  10.495  1.00  0.00     0.098 N 
HETATM    2  H   UNL     1     -43.136 -49.080  10.451  1.00  0.00     0.317 HD
ENDROOT
BRANCH   1   3
HETATM    3  C   UNL     1     -41.641 -49.196  11.839  1.00  0.00     0.236 C 
HETATM    4  C   UNL     1     -42.862 -49.185  12.769  1.00  0.00     0.044 C 
BRANCH   3   5
HETATM    5  C   UNL     1     -40.938 -50.569  11.855  1.00  0.00     0.183 C 
BRANCH   5   6
HETATM    6  N   UNL     1     -39.494 -50.497  11.964  1.00  0.00    -0.302 N 
HETATM    7  C   UNL     1     -38.726 -51.011  12.971  1.00  0.00     0.111 A 
HETATM    8  C   UNL     1     -37.421 -50.760  12.617  1.00  0.00     0.037 A 
HETATM    9  C   UNL     1     -37.508 -50.095  11.381  1.00  0.00     0.108 A 
HETATM   10  N   UNL     1     -38.771 -49.932  10.977  1.00  0.00    -0.310 N 
ATOM     11  HN  UNL     1     -39.108 -49.486  10.124  1.00  0.00     0.186 HD
ENDBRANCH   5   6
ENDBRANCH   3   5
ENDBRANCH   1   3
BRANCH   1  12
HETATM   12  C   UNL     1     -42.069 -47.364  10.236  1.00  0.00     0.372 C 
BRANCH  12  13
HETATM   13  C   UNL     1     -43.256 -46.922   9.369  1.00  0.00     0.246 C 
HETATM   14  O   UNL     1     -43.176 -45.997   8.566  1.00  0.00    -0.272 OA
HETATM   15  N   UNL     1     -44.377 -47.709   9.548  1.00  0.00    -0.355 N 
HETATM   16  H   UNL     1     -44.308 -48.417  10.274  1.00  0.00     0.162 HD
BRANCH  15  17
HETATM   17  C   UNL     1     -45.595 -47.512   8.839  1.00  0.00     0.084 A 
HETATM   18  C   UNL     1     -46.848 -48.243   9.237  1.00  0.00     0.027 A 
HETATM   19  C   UNL     1     -46.143 -48.604   7.962  1.00  0.00     0.027 A 
ENDBRANCH  15  17
ENDBRANCH  12  13
ENDBRANCH   1  12
TORSDOF 6
ENDMDL
MODEL 2
REMARK VINA RESULT:      -5.3      1.758      7.080
REMARK  6 active torsions:
REMARK  status: ('A' for Active; 'I' for Inactive)
REMARK    1  A    between atoms: C_2  and  C_3 
REMARK    2  A    between atoms: C_2  and  N_10 
REMARK    3  A    between atoms: C_3  and  N_4 
REMARK    4  A    between atoms: N_10  and  C_11 
REMARK    5  A    between atoms: C_11  and  C_12 
REMARK       I    between atoms: C_12  and  N_14 
REMARK    6  A    between atoms: N_14  and  C_15 
ROOT
HETATM    1  N   UNL     1     -41.933 -48.055   9.846  1.00  0.00     0.098 N 
HETATM    2  H   UNL     1     -40.965 -47.847   9.583  1.00  0.00     0.317 HD
ENDROOT
BRANCH   1   3
HETATM    3  C   UNL     1     -42.668 -46.768   9.921  1.00  0.00     0.236 C 
HETATM    4  C   UNL     1     -41.604 -45.685  10.155  1.00  0.00     0.044 C 
BRANCH   3   5
HETATM    5  C   UNL     1     -43.492 -46.474   8.651  1.00  0.00     0.183 C 
BRANCH   5   6
HETATM    6  N   UNL     1     -44.823 -47.051   8.659  1.00  0.00    -0.302 N 
HETATM    7  C   UNL     1     -45.200 -48.238   8.096  1.00  0.00     0.111 A 
HETATM    8  C   UNL     1     -46.529 -48.400   8.411  1.00  0.00     0.037 A 
HETATM    9  C   UNL     1     -46.858 -47.261   9.169  1.00  0.00     0.108 A 
HETATM   10  N   UNL     1     -45.820 -46.435   9.323  1.00  0.00    -0.310 N 
ATOM     11  HN  UNL     1     -45.790 -45.548   9.825  1.00  0.00     0.186 HD
ENDBRANCH   5   6
ENDBRANCH   3   5
ENDBRANCH   1   3
BRANCH   1  12
HETATM   12  C   UNL     1     -41.883 -48.764  11.147  1.00  0.00     0.372 C 
BRANCH  12  13
HETATM   13  C   UNL     1     -40.505 -48.574  11.796  1.00  0.00     0.246 C 
HETATM   14  O   UNL     1     -40.323 -47.817  12.745  1.00  0.00    -0.272 OA
HETATM   15  N   UNL     1     -39.531 -49.383  11.242  1.00  0.00    -0.355 N 
HETATM   16  H   UNL     1     -39.820 -49.933  10.437  1.00  0.00     0.162 HD
BRANCH  15  17
HETATM   17  C   UNL     1     -38.181 -49.404  11.689  1.00  0.00     0.084 A 
HETATM   18  C   UNL     1     -37.106 -50.070  10.872  1.00  0.00     0.027 A 
HETATM   19  C   UNL     1     -37.562 -50.692  12.160  1.00  0.00     0.027 A 
ENDBRANCH  15  17
ENDBRANCH  12  13
ENDBRANCH   1  12
TORSDOF 6
ENDMDL
MODEL 3
REMARK VINA RESULT:      -5.3      2.106      3.000
REMARK  6 active torsions:
REMARK  status: ('A' for Active; 'I' for Inactive)
REMARK    1  A    between atoms: C_2  and  C_3 
REMARK    2  A    between atoms: C_2  and  N_10 
REMARK    3  A    between atoms: C_3  and  N_4 
REMARK    4  A    between atoms: N_10  and  C_11 
REMARK    5  A    between atoms: C_11  and  C_12 
REMARK       I    between atoms: C_12  and  N_14 
REMARK    6  A    between atoms: N_14  and  C_15 
ROOT
HETATM    1  N   UNL     1     -42.005 -49.465  11.547  1.00  0.00     0.098 N 
HETATM    2  H   UNL     1     -42.525 -50.301  11.831  1.00  0.00     0.317 HD
ENDROOT
BRANCH   1   3
HETATM    3  C   UNL     1     -40.783 -49.385  12.386  1.00  0.00     0.236 C 
HETATM    4  C   UNL     1     -40.388 -50.836  12.699  1.00  0.00     0.044 C 
BRANCH   3   5
HETATM    5  C   UNL     1     -39.631 -48.630  11.693  1.00  0.00     0.183 C 
BRANCH   5   6
HETATM    6  N   UNL     1     -39.806 -47.191  11.645  1.00  0.00    -0.302 N 
HETATM    7  C   UNL     1     -39.795 -46.333  12.709  1.00  0.00     0.111 A 
HETATM    8  C   UNL     1     -39.933 -45.071  12.179  1.00  0.00     0.037 A 
HETATM    9  C   UNL     1     -40.015 -45.276  10.789  1.00  0.00     0.108 A 
HETATM   10  N   UNL     1     -39.938 -46.568  10.458  1.00  0.00    -0.310 N 
ATOM     11  HN  UNL     1     -39.970 -46.983   9.527  1.00  0.00     0.186 HD
ENDBRANCH   5   6
ENDBRANCH   3   5
ENDBRANCH   1   3
BRANCH   1  12
HETATM   12  C   UNL     1     -42.912 -48.308  11.741  1.00  0.00     0.372 C 
BRANCH  12  13
HETATM   13  C   UNL     1     -43.413 -47.801  10.381  1.00  0.00     0.246 C 
HETATM   14  O   UNL     1     -42.651 -47.517   9.462  1.00  0.00    -0.272 OA
HETATM   15  N   UNL     1     -44.792 -47.762  10.295  1.00  0.00    -0.355 N 
HETATM   16  H   UNL     1     -45.294 -47.991  11.149  1.00  0.00     0.162 HD
BRANCH  15  17
HETATM   17  C   UNL     1     -45.494 -47.351   9.128  1.00  0.00     0.084 A 
HETATM   18  C   UNL     1     -46.996 -47.279   9.114  1.00  0.00     0.027 A 
HETATM   19  C   UNL     1     -46.291 -48.349   8.334  1.00  0.00     0.027 A 
ENDBRANCH  15  17
ENDBRANCH  12  13
ENDBRANCH   1  12
TORSDOF 6
ENDMDL
MODEL 4
REMARK VINA RESULT:      -5.2      3.310      6.074
REMARK  6 active torsions:
REMARK  status: ('A' for Active; 'I' for Inactive)
REMARK    1  A    between atoms: C_2  and  C_3 
REMARK    2  A    between atoms: C_2  and  N_10 
REMARK    3  A    between atoms: C_3  and  N_4 
REMARK    4  A    between atoms: N_10  and  C_11 
REMARK    5  A    between atoms: C_11  and  C_12 
REMARK       I    between atoms: C_12  and  N_14 
REMARK    6  A    between atoms: N_14  and  C_15 
ROOT
HETATM    1  N   UNL     1     -42.108 -50.046  11.706  1.00  0.00     0.098 N 
HETATM    2  H   UNL     1     -42.550 -50.135  10.785  1.00  0.00     0.317 HD
ENDROOT
BRANCH   1   3
HETATM    3  C   UNL     1     -41.720 -48.625  11.885  1.00  0.00     0.236 C 
HETATM    4  C   UNL     1     -40.405 -48.640  12.677  1.00  0.00     0.044 C 
BRANCH   3   5
HETATM    5  C   UNL     1     -41.556 -47.876  10.547  1.00  0.00     0.183 C 
BRANCH   5   6
HETATM    6  N   UNL     1     -42.772 -47.790   9.760  1.00  0.00    -0.302 N 
HETATM    7  C   UNL     1     -44.011 -47.430  10.212  1.00  0.00     0.111 A 
HETATM    8  C   UNL     1     -44.830 -47.427   9.108  1.00  0.00     0.037 A 
HETATM    9  C   UNL     1     -43.991 -47.793   8.040  1.00  0.00     0.108 A 
HETATM   10  N   UNL     1     -42.733 -48.015   8.433  1.00  0.00    -0.310 N 
ATOM     11  HN  UNL     1     -41.934 -48.290   7.862  1.00  0.00     0.186 HD
ENDBRANCH   5   6
ENDBRANCH   3   5
ENDBRANCH   1   3
BRANCH   1  12
HETATM   12  C   UNL     1     -40.945 -50.965  11.716  1.00  0.00     0.372 C 
BRANCH  12  13
HETATM   13  C   UNL     1     -41.408 -52.395  12.028  1.00  0.00     0.246 C 
HETATM   14  O   UNL     1     -40.620 -53.316  12.219  1.00  0.00    -0.272 OA
HETATM   15  N   UNL     1     -42.782 -52.506  12.131  1.00  0.00    -0.355 N 
HETATM   16  H   UNL     1     -43.311 -51.666  11.912  1.00  0.00     0.162 HD
BRANCH  15  17
HETATM   17  C   UNL     1     -43.450 -53.724  12.437  1.00  0.00     0.084 A 
HETATM   18  C   UNL     1     -44.862 -53.723  12.956  1.00  0.00     0.027 A 
HETATM   19  C   UNL     1     -43.729 -54.093  13.868  1.00  0.00     0.027 A 
ENDBRANCH  15  17
ENDBRANCH  12  13
ENDBRANCH   1  12
TORSDOF 6
ENDMDL
MODEL 5
REMARK VINA RESULT:      -5.2      2.134      3.302
REMARK  6 active torsions:
REMARK  status: ('A' for Active; 'I' for Inactive)
REMARK    1  A    between atoms: C_2  and  C_3 
REMARK    2  A    between atoms: C_2  and  N_10 
REMARK    3  A    between atoms: C_3  and  N_4 
REMARK    4  A    between atoms: N_10  and  C_11 
REMARK    5  A    between atoms: C_11  and  C_12 
REMARK       I    between atoms: C_12  and  N_14 
REMARK    6  A    between atoms: N_14  and  C_15 
ROOT
HETATM    1  N   UNL     1     -40.121 -50.040  10.842  1.00  0.00     0.098 N 
HETATM    2  H   UNL     1     -40.673 -50.847  10.536  1.00  0.00     0.317 HD
ENDROOT
BRANCH   1   3
HETATM    3  C   UNL     1     -39.003 -50.548  11.676  1.00  0.00     0.236 C 
HETATM    4  C   UNL     1     -37.930 -49.449  11.663  1.00  0.00     0.044 C 
BRANCH   3   5
HETATM    5  C   UNL     1     -39.437 -50.887  13.116  1.00  0.00     0.183 C 
BRANCH   5   6
HETATM    6  N   UNL     1     -39.815 -52.274  13.312  1.00  0.00    -0.302 N 
HETATM    7  C   UNL     1     -40.889 -52.912  12.758  1.00  0.00     0.111 A 
HETATM    8  C   UNL     1     -40.807 -54.220  13.172  1.00  0.00     0.037 A 
HETATM    9  C   UNL     1     -39.647 -54.271  13.967  1.00  0.00     0.108 A 
HETATM   10  N   UNL     1     -39.038 -53.085  14.056  1.00  0.00    -0.310 N 
ATOM     11  HN  UNL     1     -38.186 -52.851  14.565  1.00  0.00     0.186 HD
ENDBRANCH   5   6
ENDBRANCH   3   5
ENDBRANCH   1   3
BRANCH   1  12
HETATM   12  C   UNL     1     -41.039 -49.150  11.593  1.00  0.00     0.372 C 
BRANCH  12  13
HETATM   13  C   UNL     1     -41.502 -47.995  10.693  1.00  0.00     0.246 C 
HETATM   14  O   UNL     1     -40.910 -46.922  10.641  1.00  0.00    -0.272 OA
HETATM   15  N   UNL     1     -42.600 -48.322   9.919  1.00  0.00    -0.355 N 
HETATM   16  H   UNL     1     -43.008 -49.236  10.095  1.00  0.00     0.162 HD
BRANCH  15  17
HETATM   17  C   UNL     1     -43.198 -47.427   8.990  1.00  0.00     0.084 A 
HETATM   18  C   UNL     1     -44.635 -47.590   8.574  1.00  0.00     0.027 A 
HETATM   19  C   UNL     1     -43.535 -47.895   7.601  1.00  0.00     0.027 A 
ENDBRANCH  15  17
ENDBRANCH  12  13
ENDBRANCH   1  12
TORSDOF 6
ENDMDL
MODEL 6
REMARK VINA RESULT:      -5.1      1.761      2.158
REMARK  6 active torsions:
REMARK  status: ('A' for Active; 'I' for Inactive)
REMARK    1  A    between atoms: C_2  and  C_3 
REMARK    2  A    between atoms: C_2  and  N_10 
REMARK    3  A    between atoms: C_3  and  N_4 
REMARK    4  A    between atoms: N_10  and  C_11 
REMARK    5  A    between atoms: C_11  and  C_12 
REMARK       I    between atoms: C_12  and  N_14 
REMARK    6  A    between atoms: N_14  and  C_15 
ROOT
HETATM    1  N   UNL     1     -41.869 -48.831  10.266  1.00  0.00     0.098 N 
HETATM    2  H   UNL     1     -42.809 -49.239  10.270  1.00  0.00     0.317 HD
ENDROOT
BRANCH   1   3
HETATM    3  C   UNL     1     -41.130 -49.386  11.427  1.00  0.00     0.236 C 
HETATM    4  C   UNL     1     -40.677 -48.178  12.259  1.00  0.00     0.044 C 
BRANCH   3   5
HETATM    5  C   UNL     1     -41.983 -50.356  12.270  1.00  0.00     0.183 C 
BRANCH   5   6
HETATM    6  N   UNL     1     -41.304 -51.588  12.627  1.00  0.00    -0.302 N 
HETATM    7  C   UNL     1     -40.356 -51.744  13.599  1.00  0.00     0.111 A 
HETATM    8  C   UNL     1     -40.053 -53.085  13.620  1.00  0.00     0.037 A 
HETATM    9  C   UNL     1     -40.874 -53.652  12.628  1.00  0.00     0.108 A 
HETATM   10  N   UNL     1     -41.640 -52.742  12.019  1.00  0.00    -0.310 N 
ATOM     11  HN  UNL     1     -42.318 -52.888  11.272  1.00  0.00     0.186 HD
ENDBRANCH   5   6
ENDBRANCH   3   5
ENDBRANCH   1   3
BRANCH   1  12
HETATM   12  C   UNL     1     -42.038 -47.360  10.342  1.00  0.00     0.372 C 
BRANCH  12  13
HETATM   13  C   UNL     1     -43.152 -46.909   9.387  1.00  0.00     0.246 C 
HETATM   14  O   UNL     1     -43.026 -45.947   8.635  1.00  0.00    -0.272 OA
HETATM   15  N   UNL     1     -44.262 -47.731   9.427  1.00  0.00    -0.355 N 
HETATM   16  H   UNL     1     -44.240 -48.470  10.126  1.00  0.00     0.162 HD
BRANCH  15  17
HETATM   17  C   UNL     1     -45.415 -47.534   8.617  1.00  0.00     0.084 A 
HETATM   18  C   UNL     1     -46.736 -47.156   9.230  1.00  0.00     0.027 A 
HETATM   19  C   UNL     1     -46.542 -48.528   8.653  1.00  0.00     0.027 A 
ENDBRANCH  15  17
ENDBRANCH  12  13
ENDBRANCH   1  12
TORSDOF 6
ENDMDL
MODEL 7
REMARK VINA RESULT:      -5.1      3.671      5.342
REMARK  6 active torsions:
REMARK  status: ('A' for Active; 'I' for Inactive)
REMARK    1  A    between atoms: C_2  and  C_3 
REMARK    2  A    between atoms: C_2  and  N_10 
REMARK    3  A    between atoms: C_3  and  N_4 
REMARK    4  A    between atoms: N_10  and  C_11 
REMARK    5  A    between atoms: C_11  and  C_12 
REMARK       I    between atoms: C_12  and  N_14 
REMARK    6  A    between atoms: N_14  and  C_15 
ROOT
HETATM    1  N   UNL     1     -42.037 -51.584  11.784  1.00  0.00     0.098 N 
HETATM    2  H   UNL     1     -41.819 -51.771  10.801  1.00  0.00     0.317 HD
ENDROOT
BRANCH   1   3
HETATM    3  C   UNL     1     -41.028 -50.624  12.296  1.00  0.00     0.236 C 
HETATM    4  C   UNL     1     -39.995 -51.461  13.063  1.00  0.00     0.044 C 
BRANCH   3   5
HETATM    5  C   UNL     1     -40.360 -49.804  11.173  1.00  0.00     0.183 C 
BRANCH   5   6
HETATM    6  N   UNL     1     -41.016 -48.542  10.888  1.00  0.00    -0.302 N 
HETATM    7  C   UNL     1     -40.568 -47.295  11.226  1.00  0.00     0.111 A 
HETATM    8  C   UNL     1     -41.476 -46.410  10.695  1.00  0.00     0.037 A 
HETATM    9  C   UNL     1     -42.430 -47.220  10.052  1.00  0.00     0.108 A 
HETATM   10  N   UNL     1     -42.153 -48.522  10.166  1.00  0.00    -0.310 N 
ATOM     11  HN  UNL     1     -42.679 -49.313   9.795  1.00  0.00     0.186 HD
ENDBRANCH   5   6
ENDBRANCH   3   5
ENDBRANCH   1   3
BRANCH   1  12
HETATM   12  C   UNL     1     -41.998 -52.888  12.490  1.00  0.00     0.372 C 
BRANCH  12  13
HETATM   13  C   UNL     1     -43.413 -53.285  12.935  1.00  0.00     0.246 C 
HETATM   14  O   UNL     1     -43.621 -54.193  13.735  1.00  0.00    -0.272 OA
HETATM   15  N   UNL     1     -44.396 -52.479  12.394  1.00  0.00    -0.355 N 
HETATM   16  H   UNL     1     -44.078 -51.789  11.718  1.00  0.00     0.162 HD
BRANCH  15  17
HETATM   17  C   UNL     1     -45.781 -52.634  12.676  1.00  0.00     0.084 A 
HETATM   18  C   UNL     1     -46.804 -51.723  12.054  1.00  0.00     0.027 A 
HETATM   19  C   UNL     1     -46.499 -51.616  13.519  1.00  0.00     0.027 A 
ENDBRANCH  15  17
ENDBRANCH  12  13
ENDBRANCH   1  12
TORSDOF 6
ENDMDL
MODEL 8
REMARK VINA RESULT:      -5.0      4.606      6.068
REMARK  6 active torsions:
REMARK  status: ('A' for Active; 'I' for Inactive)
REMARK    1  A    between atoms: C_2  and  C_3 
REMARK    2  A    between atoms: C_2  and  N_10 
REMARK    3  A    between atoms: C_3  and  N_4 
REMARK    4  A    between atoms: N_10  and  C_11 
REMARK    5  A    between atoms: C_11  and  C_12 
REMARK       I    between atoms: C_12  and  N_14 
REMARK    6  A    between atoms: N_14  and  C_15 
ROOT
HETATM    1  N   UNL     1     -42.329 -54.196  13.020  1.00  0.00     0.098 N 
HETATM    2  H   UNL     1     -41.930 -55.054  12.627  1.00  0.00     0.317 HD
ENDROOT
BRANCH   1   3
HETATM    3  C   UNL     1     -41.228 -53.213  13.168  1.00  0.00     0.236 C 
HETATM    4  C   UNL     1     -40.029 -53.997  13.721  1.00  0.00     0.044 C 
BRANCH   3   5
HETATM    5  C   UNL     1     -40.871 -52.510  11.843  1.00  0.00     0.183 C 
BRANCH   5   6
HETATM    6  N   UNL     1     -41.259 -51.113  11.787  1.00  0.00    -0.302 N 
HETATM    7  C   UNL     1     -42.202 -50.497  12.562  1.00  0.00     0.111 A 
HETATM    8  C   UNL     1     -42.180 -49.170  12.203  1.00  0.00     0.037 A 
HETATM    9  C   UNL     1     -41.188 -49.087  11.208  1.00  0.00     0.108 A 
HETATM   10  N   UNL     1     -40.623 -50.270  10.951  1.00  0.00    -0.310 N 
ATOM     11  HN  UNL     1     -39.884 -50.483  10.281  1.00  0.00     0.186 HD
ENDBRANCH   5   6
ENDBRANCH   3   5
ENDBRANCH   1   3
BRANCH   1  12
HETATM   12  C   UNL     1     -42.949 -54.564  14.316  1.00  0.00     0.372 C 
BRANCH  12  13
HETATM   13  C   UNL     1     -44.468 -54.353  14.249  1.00  0.00     0.246 C 
HETATM   14  O   UNL     1     -45.265 -55.138  14.755  1.00  0.00    -0.272 OA
HETATM   15  N   UNL     1     -44.822 -53.173  13.624  1.00  0.00    -0.355 N 
HETATM   16  H   UNL     1     -44.056 -52.639  13.221  1.00  0.00     0.162 HD
BRANCH  15  17
HETATM   17  C   UNL     1     -46.169 -52.745  13.461  1.00  0.00     0.084 A 
HETATM   18  C   UNL     1     -46.503 -51.549  12.611  1.00  0.00     0.027 A 
HETATM   19  C   UNL     1     -46.638 -51.468  14.103  1.00  0.00     0.027 A 
ENDBRANCH  15  17
ENDBRANCH  12  13
ENDBRANCH   1  12
TORSDOF 6
ENDMDL
MODEL 9
REMARK VINA RESULT:      -5.0      3.449      5.661
REMARK  6 active torsions:
REMARK  status: ('A' for Active; 'I' for Inactive)
REMARK    1  A    between atoms: C_2  and  C_3 
REMARK    2  A    between atoms: C_2  and  N_10 
REMARK    3  A    between atoms: C_3  and  N_4 
REMARK    4  A    between atoms: N_10  and  C_11 
REMARK    5  A    between atoms: C_11  and  C_12 
REMARK       I    between atoms: C_12  and  N_14 
REMARK    6  A    between atoms: N_14  and  C_15 
ROOT
HETATM    1  N   UNL     1     -41.835 -52.121  11.469  1.00  0.00     0.098 N 
HETATM    2  H   UNL     1     -42.423 -51.333  11.181  1.00  0.00     0.317 HD
ENDROOT
BRANCH   1   3
HETATM    3  C   UNL     1     -42.592 -52.906  12.475  1.00  0.00     0.236 C 
HETATM    4  C   UNL     1     -41.598 -53.921  13.058  1.00  0.00     0.044 C 
BRANCH   3   5
HETATM    5  C   UNL     1     -43.204 -52.025  13.583  1.00  0.00     0.183 C 
BRANCH   5   6
HETATM    6  N   UNL     1     -44.648 -51.903  13.516  1.00  0.00    -0.302 N 
HETATM    7  C   UNL     1     -45.469 -51.395  14.483  1.00  0.00     0.111 A 
HETATM    8  C   UNL     1     -46.738 -51.418  13.953  1.00  0.00     0.037 A 
HETATM    9  C   UNL     1     -46.576 -51.953  12.662  1.00  0.00     0.108 A 
HETATM   10  N   UNL     1     -45.302 -52.249  12.390  1.00  0.00    -0.310 N 
ATOM     11  HN  UNL     1     -44.916 -52.644  11.532  1.00  0.00     0.186 HD
ENDBRANCH   5   6
ENDBRANCH   3   5
ENDBRANCH   1   3
BRANCH   1  12
HETATM   12  C   UNL     1     -40.581 -51.546  12.013  1.00  0.00     0.372 C 
BRANCH  12  13
HETATM   13  C   UNL     1     -40.595 -50.019  11.860  1.00  0.00     0.246 C 
HETATM   14  O   UNL     1     -39.713 -49.302  12.325  1.00  0.00    -0.272 OA
HETATM   15  N   UNL     1     -41.656 -49.562  11.101  1.00  0.00    -0.355 N 
HETATM   16  H   UNL     1     -42.328 -50.268  10.812  1.00  0.00     0.162 HD
BRANCH  15  17
HETATM   17  C   UNL     1     -41.871 -48.189  10.800  1.00  0.00     0.084 A 
HETATM   18  C   UNL     1     -43.205 -47.540  11.053  1.00  0.00     0.027 A 
HETATM   19  C   UNL     1     -42.753 -47.798   9.646  1.00  0.00     0.027 A 
ENDBRANCH  15  17
ENDBRANCH  12  13
ENDBRANCH   1  12
TORSDOF 6
ENDMDL
