MODEL 1
REMARK VINA RESULT:      -7.2      0.000      0.000
REMARK  4 active torsions:
REMARK  status: ('A' for Active; 'I' for Inactive)
REMARK    1  A    between atoms: C_2  and  C_5 
REMARK    2  A    between atoms: C_10  and  N_11 
REMARK       I    between atoms: N_11  and  C_12 
REMARK       I    between atoms: C_12  and  N_14 
REMARK    3  A    between atoms: N_14  and  C_15 
REMARK    4  A    between atoms: C_15  and  C_16 
ROOT
HETATM    1  N   UNL     1     -42.954 -48.004  12.463  1.00  0.00    -0.304 N 
HETATM    2  C   UNL     1     -42.922 -49.167  13.184  1.00  0.00     0.320 C 
HETATM    3  O   UNL     1     -42.457 -49.185  14.319  1.00  0.00    -0.247 OA
HETATM    4  N   UNL     1     -43.556 -50.237  12.598  1.00  0.00    -0.342 N 
HETATM    5  H   UNL     1     -42.951 -47.181  13.062  1.00  0.00     0.171 HD
HETATM    6  H   UNL     1     -44.289 -49.949  11.970  1.00  0.00     0.164 HD
ENDROOT
BRANCH   1   7
HETATM    7  C   UNL     1     -43.304 -47.800  11.151  1.00  0.00     0.105 A 
HETATM    8  C   UNL     1     -42.206 -47.372  10.216  1.00  0.00     0.272 A 
HETATM    9  N   UNL     1     -42.601 -47.073   8.934  1.00  0.00    -0.331 N 
HETATM   10  O   UNL     1     -41.049 -47.244  10.599  1.00  0.00    -0.266 OA
HETATM   11  C   UNL     1     -43.873 -47.264   8.456  1.00  0.00     0.107 A 
HETATM   12  H   UNL     1     -41.867 -46.736   8.320  1.00  0.00     0.168 HD
HETATM   13  C   UNL     1     -44.852 -47.726   9.256  1.00  0.00     0.065 A 
HETATM   14  C   UNL     1     -44.546 -47.960  10.661  1.00  0.00     0.052 A 
BRANCH  13  15
HETATM   15  C   UNL     1     -46.233 -48.020   8.740  1.00  0.00     0.418 C 
HETATM   16  F   UNL     1     -46.233 -48.540   7.486  1.00  0.00    -0.166 F 
HETATM   17  F   UNL     1     -46.998 -46.899   8.699  1.00  0.00    -0.166 F 
HETATM   18  F   UNL     1     -46.882 -48.909   9.534  1.00  0.00    -0.166 F 
ENDBRANCH  13  15
ENDBRANCH   1   7
BRANCH   4  19
HETATM   19  C   UNL     1     -43.855 -51.398  13.415  1.00  0.00     0.131 C 
BRANCH  19  20
HETATM   20  C   UNL     1     -45.046 -52.218  12.888  1.00  0.00     0.027 C 
HETATM   21  C   UNL     1     -46.406 -51.513  13.077  1.00  0.00     0.010 C 
HETATM   22  C   UNL     1     -46.811 -51.441  14.546  1.00  0.00     0.027 C 
HETATM   23  C   UNL     1     -46.698 -52.809  15.209  1.00  0.00     0.167 C 
HETATM   24  O   UNL     1     -45.406 -53.376  15.005  1.00  0.00    -0.391 OA
HETATM   25  C   UNL     1     -45.098 -53.562  13.623  1.00  0.00     0.173 C 
ENDBRANCH  19  20
ENDBRANCH   4  19
TORSDOF 4
ENDMDL
MODEL 2
REMARK VINA RESULT:      -7.0      2.158      2.811
REMARK  4 active torsions:
REMARK  status: ('A' for Active; 'I' for Inactive)
REMARK    1  A    between atoms: C_2  and  C_5 
REMARK    2  A    between atoms: C_10  and  N_11 
REMARK       I    between atoms: N_11  and  C_12 
REMARK       I    between atoms: C_12  and  N_14 
REMARK    3  A    between atoms: N_14  and  C_15 
REMARK    4  A    between atoms: C_15  and  C_16 
ROOT
HETATM    1  N   UNL     1     -42.966 -47.759  12.407  1.00  0.00    -0.304 N 
HETATM    2  C   UNL     1     -42.538 -48.863  13.091  1.00  0.00     0.320 C 
HETATM    3  O   UNL     1     -42.119 -48.761  14.240  1.00  0.00    -0.247 OA
HETATM    4  N   UNL     1     -42.738 -50.064  12.452  1.00  0.00    -0.342 N 
HETATM    5  H   UNL     1     -43.268 -47.014  13.030  1.00  0.00     0.171 HD
HETATM    6  H   UNL     1     -43.513 -50.029  11.810  1.00  0.00     0.164 HD
ENDROOT
BRANCH   1   7
HETATM    7  C   UNL     1     -43.340 -47.640  11.090  1.00  0.00     0.105 A 
HETATM    8  C   UNL     1     -42.272 -47.215  10.119  1.00  0.00     0.272 A 
HETATM    9  N   UNL     1     -42.693 -47.001   8.829  1.00  0.00    -0.331 N 
HETATM   10  O   UNL     1     -41.116 -47.019  10.480  1.00  0.00    -0.266 OA
HETATM   11  C   UNL     1     -43.961 -47.270   8.379  1.00  0.00     0.107 A 
HETATM   12  H   UNL     1     -41.981 -46.667   8.188  1.00  0.00     0.168 HD
HETATM   13  C   UNL     1     -44.910 -47.730   9.215  1.00  0.00     0.065 A 
HETATM   14  C   UNL     1     -44.579 -47.877  10.626  1.00  0.00     0.052 A 
BRANCH  13  15
HETATM   15  C   UNL     1     -46.283 -48.109   8.733  1.00  0.00     0.418 C 
HETATM   16  F   UNL     1     -47.141 -47.059   8.689  1.00  0.00    -0.166 F 
HETATM   17  F   UNL     1     -46.851 -49.046   9.536  1.00  0.00    -0.166 F 
HETATM   18  F   UNL     1     -46.243 -48.637   7.483  1.00  0.00    -0.166 F 
ENDBRANCH  13  15
ENDBRANCH   1   7
BRANCH   4  19
HETATM   19  C   UNL     1     -42.620 -51.288  13.222  1.00  0.00     0.131 C 
BRANCH  19  20
HETATM   20  C   UNL     1     -42.506 -52.546  12.344  1.00  0.00     0.027 C 
HETATM   21  C   UNL     1     -42.825 -53.852  13.102  1.00  0.00     0.010 C 
HETATM   22  C   UNL     1     -41.750 -54.193  14.128  1.00  0.00     0.027 C 
HETATM   23  C   UNL     1     -40.362 -54.136  13.500  1.00  0.00     0.167 C 
HETATM   24  O   UNL     1     -40.143 -52.890  12.844  1.00  0.00    -0.391 OA
HETATM   25  C   UNL     1     -41.080 -52.649  11.793  1.00  0.00     0.173 C 
ENDBRANCH  19  20
ENDBRANCH   4  19
TORSDOF 4
ENDMDL
MODEL 3
REMARK VINA RESULT:      -6.8      3.532      6.365
REMARK  4 active torsions:
REMARK  status: ('A' for Active; 'I' for Inactive)
REMARK    1  A    between atoms: C_2  and  C_5 
REMARK    2  A    between atoms: C_10  and  N_11 
REMARK       I    between atoms: N_11  and  C_12 
REMARK       I    between atoms: C_12  and  N_14 
REMARK    3  A    between atoms: N_14  and  C_15 
REMARK    4  A    between atoms: C_15  and  C_16 
ROOT
HETATM    1  N   UNL     1     -43.037 -47.466  12.396  1.00  0.00    -0.304 N 
HETATM    2  C   UNL     1     -42.929 -46.396  13.243  1.00  0.00     0.320 C 
HETATM    3  O   UNL     1     -42.729 -46.567  14.441  1.00  0.00    -0.247 OA
HETATM    4  N   UNL     1     -42.928 -45.164  12.633  1.00  0.00    -0.342 N 
HETATM    5  H   UNL     1     -42.559 -48.289  12.754  1.00  0.00     0.171 HD
HETATM    6  H   UNL     1     -42.587 -45.206  11.687  1.00  0.00     0.164 HD
ENDROOT
BRANCH   1   7
HETATM    7  C   UNL     1     -43.387 -47.495  11.068  1.00  0.00     0.105 A 
HETATM    8  C   UNL     1     -42.294 -47.208  10.075  1.00  0.00     0.272 A 
HETATM    9  N   UNL     1     -42.689 -47.138   8.761  1.00  0.00    -0.331 N 
HETATM   10  O   UNL     1     -41.140 -46.993  10.432  1.00  0.00    -0.266 OA
HETATM   11  C   UNL     1     -43.956 -47.432   8.321  1.00  0.00     0.107 A 
HETATM   12  H   UNL     1     -41.960 -46.895   8.098  1.00  0.00     0.168 HD
HETATM   13  C   UNL     1     -44.928 -47.772   9.187  1.00  0.00     0.065 A 
HETATM   14  C   UNL     1     -44.623 -47.760  10.611  1.00  0.00     0.052 A 
BRANCH  13  15
HETATM   15  C   UNL     1     -46.300 -48.178   8.727  1.00  0.00     0.418 C 
HETATM   16  F   UNL     1     -46.857 -49.145   9.498  1.00  0.00    -0.166 F 
HETATM   17  F   UNL     1     -46.278 -48.655   7.455  1.00  0.00    -0.166 F 
HETATM   18  F   UNL     1     -47.158 -47.126   8.735  1.00  0.00    -0.166 F 
ENDBRANCH  13  15
ENDBRANCH   1   7
BRANCH   4  19
HETATM   19  C   UNL     1     -42.497 -44.011  13.401  1.00  0.00     0.131 C 
BRANCH  19  20
HETATM   20  C   UNL     1     -41.218 -43.359  12.846  1.00  0.00     0.027 C 
HETATM   21  C   UNL     1     -41.124 -41.847  13.137  1.00  0.00     0.010 C 
HETATM   22  C   UNL     1     -42.151 -41.049  12.339  1.00  0.00     0.027 C 
HETATM   23  C   UNL     1     -42.102 -41.424  10.863  1.00  0.00     0.167 C 
HETATM   24  O   UNL     1     -42.218 -42.833  10.684  1.00  0.00    -0.391 OA
HETATM   25  C   UNL     1     -41.168 -43.558  11.327  1.00  0.00     0.173 C 
ENDBRANCH  19  20
ENDBRANCH   4  19
TORSDOF 4
ENDMDL
MODEL 4
REMARK VINA RESULT:      -6.7      1.657      2.242
REMARK  4 active torsions:
REMARK  status: ('A' for Active; 'I' for Inactive)
REMARK    1  A    between atoms: C_2  and  C_5 
REMARK    2  A    between atoms: C_10  and  N_11 
REMARK       I    between atoms: N_11  and  C_12 
REMARK       I    between atoms: C_12  and  N_14 
REMARK    3  A    between atoms: N_14  and  C_15 
REMARK    4  A    between atoms: C_15  and  C_16 
ROOT
HETATM    1  N   UNL     1     -43.087 -48.890  13.251  1.00  0.00    -0.304 N 
HETATM    2  C   UNL     1     -43.598 -50.035  13.800  1.00  0.00     0.320 C 
HETATM    3  O   UNL     1     -43.476 -50.259  15.000  1.00  0.00    -0.247 OA
HETATM    4  N   UNL     1     -44.347 -50.810  12.947  1.00  0.00    -0.342 N 
HETATM    5  H   UNL     1     -42.995 -48.144  13.936  1.00  0.00     0.171 HD
HETATM    6  H   UNL     1     -44.766 -50.269  12.209  1.00  0.00     0.164 HD
ENDROOT
BRANCH   1   7
HETATM    7  C   UNL     1     -43.001 -48.519  11.932  1.00  0.00     0.105 A 
HETATM    8  C   UNL     1     -41.697 -48.795  11.235  1.00  0.00     0.272 A 
HETATM    9  N   UNL     1     -41.599 -48.320   9.949  1.00  0.00    -0.331 N 
HETATM   10  O   UNL     1     -40.768 -49.355  11.807  1.00  0.00    -0.266 OA
HETATM   11  C   UNL     1     -42.636 -47.745   9.259  1.00  0.00     0.107 A 
HETATM   12  H   UNL     1     -40.700 -48.463   9.499  1.00  0.00     0.168 HD
HETATM   13  C   UNL     1     -43.837 -47.564   9.839  1.00  0.00     0.065 A 
HETATM   14  C   UNL     1     -43.995 -47.936  11.239  1.00  0.00     0.052 A 
BRANCH  13  15
HETATM   15  C   UNL     1     -45.013 -47.012   9.082  1.00  0.00     0.418 C 
HETATM   16  F   UNL     1     -44.823 -45.738   8.657  1.00  0.00    -0.166 F 
HETATM   17  F   UNL     1     -46.138 -47.007   9.845  1.00  0.00    -0.166 F 
HETATM   18  F   UNL     1     -45.290 -47.757   7.982  1.00  0.00    -0.166 F 
ENDBRANCH  13  15
ENDBRANCH   1   7
BRANCH   4  19
HETATM   19  C   UNL     1     -45.185 -51.851  13.511  1.00  0.00     0.131 C 
BRANCH  19  20
HETATM   20  C   UNL     1     -44.991 -53.219  12.833  1.00  0.00     0.027 C 
HETATM   21  C   UNL     1     -45.265 -54.412  13.772  1.00  0.00     0.010 C 
HETATM   22  C   UNL     1     -44.198 -54.542  14.855  1.00  0.00     0.027 C 
HETATM   23  C   UNL     1     -42.801 -54.509  14.248  1.00  0.00     0.167 C 
HETATM   24  O   UNL     1     -42.626 -53.365  13.416  1.00  0.00    -0.391 OA
HETATM   25  C   UNL     1     -43.549 -53.330  12.326  1.00  0.00     0.173 C 
ENDBRANCH  19  20
ENDBRANCH   4  19
TORSDOF 4
ENDMDL
MODEL 5
REMARK VINA RESULT:      -6.6      3.604      6.804
REMARK  4 active torsions:
REMARK  status: ('A' for Active; 'I' for Inactive)
REMARK    1  A    between atoms: C_2  and  C_5 
REMARK    2  A    between atoms: C_10  and  N_11 
REMARK       I    between atoms: N_11  and  C_12 
REMARK       I    between atoms: C_12  and  N_14 
REMARK    3  A    between atoms: N_14  and  C_15 
REMARK    4  A    between atoms: C_15  and  C_16 
ROOT
HETATM    1  N   UNL     1     -40.998 -51.655  11.434  1.00  0.00    -0.304 N 
HETATM    2  C   UNL     1     -40.695 -50.334  11.624  1.00  0.00     0.320 C 
HETATM    3  O   UNL     1     -40.038 -49.719  10.790  1.00  0.00    -0.247 OA
HETATM    4  N   UNL     1     -41.285 -49.749  12.719  1.00  0.00    -0.342 N 
HETATM    5  H   UNL     1     -40.992 -51.913  10.450  1.00  0.00     0.171 HD
HETATM    6  H   UNL     1     -42.147 -50.202  12.975  1.00  0.00     0.164 HD
ENDROOT
BRANCH   1   7
HETATM    7  C   UNL     1     -41.598 -52.545  12.292  1.00  0.00     0.105 A 
HETATM    8  C   UNL     1     -40.690 -53.312  13.214  1.00  0.00     0.272 A 
HETATM    9  N   UNL     1     -41.301 -54.269  13.988  1.00  0.00    -0.331 N 
HETATM   10  O   UNL     1     -39.478 -53.127  13.224  1.00  0.00    -0.266 OA
HETATM   11  C   UNL     1     -42.659 -54.459  14.047  1.00  0.00     0.107 A 
HETATM   12  H   UNL     1     -40.680 -54.819  14.572  1.00  0.00     0.168 HD
HETATM   13  C   UNL     1     -43.495 -53.725  13.290  1.00  0.00     0.065 A 
HETATM   14  C   UNL     1     -42.922 -52.765  12.357  1.00  0.00     0.052 A 
BRANCH  13  15
HETATM   15  C   UNL     1     -44.989 -53.857  13.395  1.00  0.00     0.418 C 
HETATM   16  F   UNL     1     -45.481 -53.414  14.579  1.00  0.00    -0.166 F 
HETATM   17  F   UNL     1     -45.385 -55.150  13.265  1.00  0.00    -0.166 F 
HETATM   18  F   UNL     1     -45.619 -53.154  12.420  1.00  0.00    -0.166 F 
ENDBRANCH  13  15
ENDBRANCH   1   7
BRANCH   4  19
HETATM   19  C   UNL     1     -41.288 -48.302  12.815  1.00  0.00     0.131 C 
BRANCH  19  20
HETATM   20  C   UNL     1     -42.692 -47.688  12.671  1.00  0.00     0.027 C 
HETATM   21  C   UNL     1     -43.392 -48.063  11.349  1.00  0.00     0.010 C 
HETATM   22  C   UNL     1     -42.730 -47.399  10.145  1.00  0.00     0.027 C 
HETATM   23  C   UNL     1     -42.555 -45.903  10.379  1.00  0.00     0.167 C 
HETATM   24  O   UNL     1     -41.880 -45.648  11.608  1.00  0.00    -0.391 OA
HETATM   25  C   UNL     1     -42.585 -46.161  12.740  1.00  0.00     0.173 C 
ENDBRANCH  19  20
ENDBRANCH   4  19
TORSDOF 4
ENDMDL
MODEL 6
REMARK VINA RESULT:      -6.4      3.023      4.311
REMARK  4 active torsions:
REMARK  status: ('A' for Active; 'I' for Inactive)
REMARK    1  A    between atoms: C_2  and  C_5 
REMARK    2  A    between atoms: C_10  and  N_11 
REMARK       I    between atoms: N_11  and  C_12 
REMARK       I    between atoms: C_12  and  N_14 
REMARK    3  A    between atoms: N_14  and  C_15 
REMARK    4  A    between atoms: C_15  and  C_16 
ROOT
HETATM    1  N   UNL     1     -42.782 -47.386  12.460  1.00  0.00    -0.304 N 
HETATM    2  C   UNL     1     -41.990 -48.327  13.061  1.00  0.00     0.320 C 
HETATM    3  O   UNL     1     -41.647 -48.197  14.232  1.00  0.00    -0.247 OA
HETATM    4  N   UNL     1     -41.738 -49.449  12.308  1.00  0.00    -0.342 N 
HETATM    5  H   UNL     1     -43.338 -46.866  13.134  1.00  0.00     0.171 HD
HETATM    6  H   UNL     1     -42.467 -49.630  11.637  1.00  0.00     0.164 HD
ENDROOT
BRANCH   1   7
HETATM    7  C   UNL     1     -43.161 -47.278  11.144  1.00  0.00     0.105 A 
HETATM    8  C   UNL     1     -42.144 -46.712  10.191  1.00  0.00     0.272 A 
HETATM    9  N   UNL     1     -42.582 -46.515   8.904  1.00  0.00    -0.331 N 
HETATM   10  O   UNL     1     -41.020 -46.395  10.565  1.00  0.00    -0.266 OA
HETATM   11  C   UNL     1     -43.810 -46.914   8.438  1.00  0.00     0.107 A 
HETATM   12  H   UNL     1     -41.910 -46.086   8.276  1.00  0.00     0.168 HD
HETATM   13  C   UNL     1     -44.704 -47.498   9.257  1.00  0.00     0.065 A 
HETATM   14  C   UNL     1     -44.364 -47.642  10.666  1.00  0.00     0.052 A 
BRANCH  13  15
HETATM   15  C   UNL     1     -46.023 -48.018   8.756  1.00  0.00     0.418 C 
HETATM   16  F   UNL     1     -46.947 -47.041   8.578  1.00  0.00    -0.166 F 
HETATM   17  F   UNL     1     -46.564 -48.916   9.620  1.00  0.00    -0.166 F 
HETATM   18  F   UNL     1     -45.887 -48.653   7.565  1.00  0.00    -0.166 F 
ENDBRANCH  13  15
ENDBRANCH   1   7
BRANCH   4  19
HETATM   19  C   UNL     1     -41.194 -50.620  12.969  1.00  0.00     0.131 C 
BRANCH  19  20
HETATM   20  C   UNL     1     -39.852 -51.082  12.374  1.00  0.00     0.027 C 
HETATM   21  C   UNL     1     -38.803 -51.453  13.443  1.00  0.00     0.010 C 
HETATM   22  C   UNL     1     -38.305 -50.227  14.202  1.00  0.00     0.027 C 
HETATM   23  C   UNL     1     -37.879 -49.127  13.237  1.00  0.00     0.167 C 
HETATM   24  O   UNL     1     -38.913 -48.832  12.301  1.00  0.00    -0.391 OA
HETATM   25  C   UNL     1     -39.273 -49.961  11.504  1.00  0.00     0.173 C 
ENDBRANCH  19  20
ENDBRANCH   4  19
TORSDOF 4
ENDMDL
MODEL 7
REMARK VINA RESULT:      -6.4      3.043      6.229
REMARK  4 active torsions:
REMARK  status: ('A' for Active; 'I' for Inactive)
REMARK    1  A    between atoms: C_2  and  C_5 
REMARK    2  A    between atoms: C_10  and  N_11 
REMARK       I    between atoms: N_11  and  C_12 
REMARK       I    between atoms: C_12  and  N_14 
REMARK    3  A    between atoms: N_14  and  C_15 
REMARK    4  A    between atoms: C_15  and  C_16 
ROOT
HETATM    1  N   UNL     1     -41.588 -50.673  13.771  1.00  0.00    -0.304 N 
HETATM    2  C   UNL     1     -41.075 -49.528  13.223  1.00  0.00     0.320 C 
HETATM    3  O   UNL     1     -40.152 -48.935  13.771  1.00  0.00    -0.247 OA
HETATM    4  N   UNL     1     -41.574 -49.195  11.986  1.00  0.00    -0.342 N 
HETATM    5  H   UNL     1     -40.915 -51.148  14.367  1.00  0.00     0.171 HD
HETATM    6  H   UNL     1     -41.901 -50.001  11.477  1.00  0.00     0.164 HD
ENDROOT
BRANCH   1   7
HETATM    7  C   UNL     1     -42.689 -51.402  13.393  1.00  0.00     0.105 A 
HETATM    8  C   UNL     1     -42.450 -52.547  12.447  1.00  0.00     0.272 A 
HETATM    9  N   UNL     1     -43.577 -53.195  12.002  1.00  0.00    -0.331 N 
HETATM   10  O   UNL     1     -41.323 -52.837  12.060  1.00  0.00    -0.266 OA
HETATM   11  C   UNL     1     -44.845 -52.938  12.461  1.00  0.00     0.107 A 
HETATM   12  H   UNL     1     -43.416 -53.934  11.325  1.00  0.00     0.168 HD
HETATM   13  C   UNL     1     -45.069 -51.971  13.370  1.00  0.00     0.065 A 
HETATM   14  C   UNL     1     -43.943 -51.159  13.812  1.00  0.00     0.052 A 
BRANCH  13  15
HETATM   15  C   UNL     1     -46.434 -51.723  13.950  1.00  0.00     0.418 C 
HETATM   16  F   UNL     1     -46.409 -50.938  15.056  1.00  0.00    -0.166 F 
HETATM   17  F   UNL     1     -47.041 -52.885  14.308  1.00  0.00    -0.166 F 
HETATM   18  F   UNL     1     -47.251 -51.114  13.054  1.00  0.00    -0.166 F 
ENDBRANCH  13  15
ENDBRANCH   1   7
BRANCH   4  19
HETATM   19  C   UNL     1     -40.868 -48.203  11.197  1.00  0.00     0.131 C 
BRANCH  19  20
HETATM   20  C   UNL     1     -41.805 -47.175  10.539  1.00  0.00     0.027 C 
HETATM   21  C   UNL     1     -41.209 -45.753  10.480  1.00  0.00     0.010 C 
HETATM   22  C   UNL     1     -41.111 -45.118  11.863  1.00  0.00     0.027 C 
HETATM   23  C   UNL     1     -42.437 -45.229  12.607  1.00  0.00     0.167 C 
HETATM   24  O   UNL     1     -42.902 -46.577  12.634  1.00  0.00    -0.391 OA
HETATM   25  C   UNL     1     -43.118 -47.111  11.328  1.00  0.00     0.173 C 
ENDBRANCH  19  20
ENDBRANCH   4  19
TORSDOF 4
ENDMDL
MODEL 8
REMARK VINA RESULT:      -6.4      4.127      6.853
REMARK  4 active torsions:
REMARK  status: ('A' for Active; 'I' for Inactive)
REMARK    1  A    between atoms: C_2  and  C_5 
REMARK    2  A    between atoms: C_10  and  N_11 
REMARK       I    between atoms: N_11  and  C_12 
REMARK       I    between atoms: C_12  and  N_14 
REMARK    3  A    between atoms: N_14  and  C_15 
REMARK    4  A    between atoms: C_15  and  C_16 
ROOT
HETATM    1  N   UNL     1     -42.148 -54.208  13.025  1.00  0.00    -0.304 N 
HETATM    2  C   UNL     1     -40.983 -53.632  13.453  1.00  0.00     0.320 C 
HETATM    3  O   UNL     1     -39.898 -54.073  13.087  1.00  0.00    -0.247 OA
HETATM    4  N   UNL     1     -41.133 -52.480  14.188  1.00  0.00    -0.342 N 
HETATM    5  H   UNL     1     -42.031 -54.699  12.142  1.00  0.00     0.171 HD
HETATM    6  H   UNL     1     -41.987 -51.994  13.964  1.00  0.00     0.164 HD
ENDROOT
BRANCH   1   7
HETATM    7  C   UNL     1     -43.440 -53.955  13.415  1.00  0.00     0.105 A 
HETATM    8  C   UNL     1     -44.001 -54.828  14.504  1.00  0.00     0.272 A 
HETATM    9  N   UNL     1     -45.327 -54.625  14.803  1.00  0.00    -0.331 N 
HETATM   10  O   UNL     1     -43.327 -55.699  15.042  1.00  0.00    -0.266 OA
HETATM   11  C   UNL     1     -46.093 -53.620  14.266  1.00  0.00     0.107 A 
HETATM   12  H   UNL     1     -45.716 -55.248  15.503  1.00  0.00     0.168 HD
HETATM   13  C   UNL     1     -45.584 -52.776  13.350  1.00  0.00     0.065 A 
HETATM   14  C   UNL     1     -44.218 -52.991  12.892  1.00  0.00     0.052 A 
BRANCH  13  15
HETATM   15  C   UNL     1     -46.374 -51.618  12.806  1.00  0.00     0.418 C 
HETATM   16  F   UNL     1     -47.144 -51.952  11.740  1.00  0.00    -0.166 F 
HETATM   17  F   UNL     1     -45.561 -50.608  12.401  1.00  0.00    -0.166 F 
HETATM   18  F   UNL     1     -47.206 -51.100  13.745  1.00  0.00    -0.166 F 
ENDBRANCH  13  15
ENDBRANCH   1   7
BRANCH   4  19
HETATM   19  C   UNL     1     -39.973 -51.636  14.400  1.00  0.00     0.131 C 
BRANCH  19  20
HETATM   20  C   UNL     1     -40.257 -50.143  14.155  1.00  0.00     0.027 C 
HETATM   21  C   UNL     1     -40.991 -49.870  12.825  1.00  0.00     0.010 C 
HETATM   22  C   UNL     1     -40.098 -50.132  11.617  1.00  0.00     0.027 C 
HETATM   23  C   UNL     1     -38.756 -49.424  11.769  1.00  0.00     0.167 C 
HETATM   24  O   UNL     1     -38.138 -49.751  13.011  1.00  0.00    -0.391 OA
HETATM   25  C   UNL     1     -38.932 -49.373  14.137  1.00  0.00     0.173 C 
ENDBRANCH  19  20
ENDBRANCH   4  19
TORSDOF 4
ENDMDL
MODEL 9
REMARK VINA RESULT:      -6.3      2.693      3.222
REMARK  4 active torsions:
REMARK  status: ('A' for Active; 'I' for Inactive)
REMARK    1  A    between atoms: C_2  and  C_5 
REMARK    2  A    between atoms: C_10  and  N_11 
REMARK       I    between atoms: N_11  and  C_12 
REMARK       I    between atoms: C_12  and  N_14 
REMARK    3  A    between atoms: N_14  and  C_15 
REMARK    4  A    between atoms: C_15  and  C_16 
ROOT
HETATM    1  N   UNL     1     -40.112 -50.996  11.653  1.00  0.00    -0.304 N 
HETATM    2  C   UNL     1     -40.972 -51.967  12.089  1.00  0.00     0.320 C 
HETATM    3  O   UNL     1     -40.624 -53.144  12.111  1.00  0.00    -0.247 OA
HETATM    4  N   UNL     1     -42.160 -51.509  12.607  1.00  0.00    -0.342 N 
HETATM    5  H   UNL     1     -39.138 -51.273  11.753  1.00  0.00     0.171 HD
HETATM    6  H   UNL     1     -42.079 -50.578  12.983  1.00  0.00     0.164 HD
ENDROOT
BRANCH   1   7
HETATM    7  C   UNL     1     -40.346 -49.661  11.429  1.00  0.00     0.105 A 
HETATM    8  C   UNL     1     -39.323 -48.696  11.964  1.00  0.00     0.272 A 
HETATM    9  N   UNL     1     -39.632 -47.364  11.821  1.00  0.00    -0.331 N 
HETATM   10  O   UNL     1     -38.313 -49.083  12.542  1.00  0.00    -0.266 OA
HETATM   11  C   UNL     1     -40.720 -46.896  11.128  1.00  0.00     0.107 A 
HETATM   12  H   UNL     1     -38.965 -46.717  12.227  1.00  0.00     0.168 HD
HETATM   13  C   UNL     1     -41.603 -47.745  10.570  1.00  0.00     0.065 A 
HETATM   14  C   UNL     1     -41.413 -49.175  10.772  1.00  0.00     0.052 A 
BRANCH  13  15
HETATM   15  C   UNL     1     -42.758 -47.261   9.738  1.00  0.00     0.418 C 
HETATM   16  F   UNL     1     -42.621 -45.973   9.335  1.00  0.00    -0.166 F 
HETATM   17  F   UNL     1     -43.929 -47.335  10.421  1.00  0.00    -0.166 F 
HETATM   18  F   UNL     1     -42.910 -48.010   8.616  1.00  0.00    -0.166 F 
ENDBRANCH  13  15
ENDBRANCH   1   7
BRANCH   4  19
HETATM   19  C   UNL     1     -42.979 -52.424  13.379  1.00  0.00     0.131 C 
BRANCH  19  20
HETATM   20  C   UNL     1     -44.371 -52.656  12.765  1.00  0.00     0.027 C 
HETATM   21  C   UNL     1     -45.374 -51.526  13.077  1.00  0.00     0.010 C 
HETATM   22  C   UNL     1     -45.775 -51.510  14.549  1.00  0.00     0.027 C 
HETATM   23  C   UNL     1     -46.205 -52.898  15.010  1.00  0.00     0.167 C 
HETATM   24  O   UNL     1     -45.213 -53.874  14.704  1.00  0.00    -0.391 OA
HETATM   25  C   UNL     1     -44.947 -53.970  13.304  1.00  0.00     0.173 C 
ENDBRANCH  19  20
ENDBRANCH   4  19
TORSDOF 4
ENDMDL
