MODEL 1
REMARK VINA RESULT:      -6.8      0.000      0.000
REMARK  3 active torsions:
REMARK  status: ('A' for Active; 'I' for Inactive)
REMARK    1  A    between atoms: C_8  and  N_9 
REMARK       I    between atoms: N_9  and  C_10 
REMARK       I    between atoms: C_10  and  N_12 
REMARK    2  A    between atoms: N_12  and  C_13 
REMARK    3  A    between atoms: C_17  and  C_19 
ROOT
HETATM    1  N   UNL     1     -41.951 -49.508  11.192  1.00  0.00    -0.306 N 
HETATM    2  C   UNL     1     -42.076 -50.061  12.444  1.00  0.00     0.321 C 
HETATM    3  O   UNL     1     -41.893 -49.474  13.504  1.00  0.00    -0.247 OA
HETATM    4  N   UNL     1     -42.449 -51.385  12.420  1.00  0.00    -0.338 N 
HETATM    5  H   UNL     1     -41.976 -50.127  10.392  1.00  0.00     0.171 HD
HETATM    6  H   UNL     1     -42.477 -51.885  11.545  1.00  0.00     0.164 HD
ENDROOT
BRANCH   1   7
HETATM    7  C   UNL     1     -41.595 -48.159  10.925  1.00  0.00     0.077 A 
HETATM    8  C   UNL     1     -42.535 -47.323  10.330  1.00  0.00     0.158 A 
HETATM    9  F   UNL     1     -43.760 -47.777  10.028  1.00  0.00    -0.202 F 
HETATM   10  C   UNL     1     -42.180 -46.017  10.023  1.00  0.00     0.132 A 
HETATM   11  N   UNL     1     -40.964 -45.489  10.286  1.00  0.00    -0.372 N 
HETATM   12  C   UNL     1     -40.074 -46.306  10.887  1.00  0.00     0.090 A 
ATOM     13  HN  UNL     1     -40.733 -44.526  10.045  1.00  0.00     0.164 HD
HETATM   14  C   UNL     1     -40.342 -47.623  11.226  1.00  0.00     0.050 A 
ENDBRANCH   1   7
BRANCH   4  15
HETATM   15  C   UNL     1     -42.675 -52.097  13.677  1.00  0.00     0.086 C 
HETATM   16  C   UNL     1     -42.616 -53.616  13.498  1.00  0.00     0.025 C 
HETATM   17  C   UNL     1     -43.840 -54.181  12.783  1.00  0.00     0.003 C 
HETATM   18  C   UNL     1     -45.146 -53.726  13.431  1.00  0.00     0.014 C 
HETATM   19  C   UNL     1     -45.224 -52.198  13.562  1.00  0.00     0.095 C 
HETATM   20  C   UNL     1     -44.001 -51.671  14.328  1.00  0.00     0.038 C 
BRANCH  19  21
HETATM   21  C   UNL     1     -46.535 -51.738  14.202  1.00  0.00     0.391 C 
HETATM   22  F   UNL     1     -47.266 -52.775  14.666  1.00  0.00    -0.171 F 
HETATM   23  F   UNL     1     -46.341 -50.889  15.232  1.00  0.00    -0.171 F 
HETATM   24  F   UNL     1     -47.299 -51.094  13.287  1.00  0.00    -0.171 F 
ENDBRANCH  19  21
ENDBRANCH   4  15
TORSDOF 3
ENDMDL
MODEL 2
REMARK VINA RESULT:      -6.4      3.053      7.300
REMARK  3 active torsions:
REMARK  status: ('A' for Active; 'I' for Inactive)
REMARK    1  A    between atoms: C_8  and  N_9 
REMARK       I    between atoms: N_9  and  C_10 
REMARK       I    between atoms: C_10  and  N_12 
REMARK    2  A    between atoms: N_12  and  C_13 
REMARK    3  A    between atoms: C_17  and  C_19 
ROOT
HETATM    1  N   UNL     1     -44.430 -51.514  12.632  1.00  0.00    -0.306 N 
HETATM    2  C   UNL     1     -43.793 -50.521  13.337  1.00  0.00     0.321 C 
HETATM    3  O   UNL     1     -43.730 -50.443  14.559  1.00  0.00    -0.247 OA
HETATM    4  N   UNL     1     -43.192 -49.580  12.533  1.00  0.00    -0.338 N 
HETATM    5  H   UNL     1     -44.547 -51.391  11.634  1.00  0.00     0.171 HD
HETATM    6  H   UNL     1     -43.355 -49.591  11.538  1.00  0.00     0.164 HD
ENDROOT
BRANCH   1   7
HETATM    7  C   UNL     1     -45.116 -52.617  13.208  1.00  0.00     0.077 A 
HETATM    8  C   UNL     1     -46.332 -52.389  13.846  1.00  0.00     0.158 A 
HETATM    9  F   UNL     1     -46.856 -51.156  13.901  1.00  0.00    -0.202 F 
HETATM   10  C   UNL     1     -46.986 -53.452  14.453  1.00  0.00     0.132 A 
HETATM   11  N   UNL     1     -46.518 -54.721  14.449  1.00  0.00    -0.372 N 
HETATM   12  C   UNL     1     -45.351 -54.926  13.804  1.00  0.00     0.090 A 
ATOM     13  HN  UNL     1     -47.021 -55.480  14.908  1.00  0.00     0.164 HD
HETATM   14  C   UNL     1     -44.630 -53.924  13.174  1.00  0.00     0.050 A 
ENDBRANCH   1   7
BRANCH   4  15
HETATM   15  C   UNL     1     -42.428 -48.490  13.138  1.00  0.00     0.086 C 
HETATM   16  C   UNL     1     -42.523 -47.198  12.324  1.00  0.00     0.025 C 
HETATM   17  C   UNL     1     -41.715 -47.247  11.031  1.00  0.00     0.003 C 
HETATM   18  C   UNL     1     -40.269 -47.674  11.271  1.00  0.00     0.014 C 
HETATM   19  C   UNL     1     -40.178 -48.997  12.044  1.00  0.00     0.095 C 
HETATM   20  C   UNL     1     -40.963 -48.895  13.361  1.00  0.00     0.038 C 
BRANCH  19  21
HETATM   21  C   UNL     1     -38.731 -49.433  12.278  1.00  0.00     0.391 C 
HETATM   22  F   UNL     1     -37.974 -49.305  11.167  1.00  0.00    -0.171 F 
HETATM   23  F   UNL     1     -38.128 -48.728  13.258  1.00  0.00    -0.171 F 
HETATM   24  F   UNL     1     -38.689 -50.738  12.637  1.00  0.00    -0.171 F 
ENDBRANCH  19  21
ENDBRANCH   4  15
TORSDOF 3
ENDMDL
MODEL 3
REMARK VINA RESULT:      -6.2      2.089      7.070
REMARK  3 active torsions:
REMARK  status: ('A' for Active; 'I' for Inactive)
REMARK    1  A    between atoms: C_8  and  N_9 
REMARK       I    between atoms: N_9  and  C_10 
REMARK       I    between atoms: C_10  and  N_12 
REMARK    2  A    between atoms: N_12  and  C_13 
REMARK    3  A    between atoms: C_17  and  C_19 
ROOT
HETATM    1  N   UNL     1     -43.782 -50.993  13.155  1.00  0.00    -0.306 N 
HETATM    2  C   UNL     1     -42.727 -50.476  12.443  1.00  0.00     0.321 C 
HETATM    3  O   UNL     1     -41.727 -51.097  12.098  1.00  0.00    -0.247 OA
HETATM    4  N   UNL     1     -42.884 -49.148  12.120  1.00  0.00    -0.338 N 
HETATM    5  H   UNL     1     -44.477 -50.350  13.513  1.00  0.00     0.171 HD
HETATM    6  H   UNL     1     -43.650 -48.622  12.513  1.00  0.00     0.164 HD
ENDROOT
BRANCH   1   7
HETATM    7  C   UNL     1     -43.888 -52.338  13.602  1.00  0.00     0.077 A 
HETATM    8  C   UNL     1     -44.763 -53.195  12.942  1.00  0.00     0.158 A 
HETATM    9  F   UNL     1     -45.481 -52.767  11.894  1.00  0.00    -0.202 F 
HETATM   10  C   UNL     1     -44.908 -54.497  13.401  1.00  0.00     0.132 A 
HETATM   11  N   UNL     1     -44.229 -55.000  14.455  1.00  0.00    -0.372 N 
HETATM   12  C   UNL     1     -43.366 -54.161  15.067  1.00  0.00     0.090 A 
ATOM     13  HN  UNL     1     -44.361 -55.961  14.771  1.00  0.00     0.164 HD
HETATM   14  C   UNL     1     -43.161 -52.847  14.678  1.00  0.00     0.050 A 
ENDBRANCH   1   7
BRANCH   4  15
HETATM   15  C   UNL     1     -41.867 -48.472  11.316  1.00  0.00     0.086 C 
HETATM   16  C   UNL     1     -41.245 -47.284  12.054  1.00  0.00     0.025 C 
HETATM   17  C   UNL     1     -42.183 -46.084  12.150  1.00  0.00     0.003 C 
HETATM   18  C   UNL     1     -42.751 -45.686  10.790  1.00  0.00     0.014 C 
HETATM   19  C   UNL     1     -43.419 -46.869  10.075  1.00  0.00     0.095 C 
HETATM   20  C   UNL     1     -42.431 -48.040   9.954  1.00  0.00     0.038 C 
BRANCH  19  21
HETATM   21  C   UNL     1     -43.998 -46.472   8.716  1.00  0.00     0.391 C 
HETATM   22  F   UNL     1     -44.602 -47.510   8.097  1.00  0.00    -0.171 F 
HETATM   23  F   UNL     1     -44.903 -45.477   8.808  1.00  0.00    -0.171 F 
HETATM   24  F   UNL     1     -43.009 -46.043   7.896  1.00  0.00    -0.171 F 
ENDBRANCH  19  21
ENDBRANCH   4  15
TORSDOF 3
ENDMDL
MODEL 4
REMARK VINA RESULT:      -6.1      2.577      7.402
REMARK  3 active torsions:
REMARK  status: ('A' for Active; 'I' for Inactive)
REMARK    1  A    between atoms: C_8  and  N_9 
REMARK       I    between atoms: N_9  and  C_10 
REMARK       I    between atoms: C_10  and  N_12 
REMARK    2  A    between atoms: N_12  and  C_13 
REMARK    3  A    between atoms: C_17  and  C_19 
ROOT
HETATM    1  N   UNL     1     -44.618 -50.899  12.921  1.00  0.00    -0.306 N 
HETATM    2  C   UNL     1     -43.588 -50.261  13.569  1.00  0.00     0.321 C 
HETATM    3  O   UNL     1     -43.013 -50.671  14.572  1.00  0.00    -0.247 OA
HETATM    4  N   UNL     1     -43.222 -49.074  12.977  1.00  0.00    -0.338 N 
HETATM    5  H   UNL     1     -45.114 -50.393  12.199  1.00  0.00     0.171 HD
HETATM    6  H   UNL     1     -43.781 -48.692  12.230  1.00  0.00     0.164 HD
ENDROOT
BRANCH   1   7
HETATM    7  C   UNL     1     -45.180 -52.146  13.307  1.00  0.00     0.077 A 
HETATM    8  C   UNL     1     -46.362 -52.147  14.043  1.00  0.00     0.158 A 
HETATM    9  F   UNL     1     -46.967 -50.996  14.368  1.00  0.00    -0.202 F 
HETATM   10  C   UNL     1     -46.893 -53.358  14.464  1.00  0.00     0.132 A 
HETATM   11  N   UNL     1     -46.338 -54.558  14.185  1.00  0.00    -0.372 N 
HETATM   12  C   UNL     1     -45.207 -54.538  13.449  1.00  0.00     0.090 A 
ATOM     13  HN  UNL     1     -46.751 -55.431  14.513  1.00  0.00     0.164 HD
HETATM   14  C   UNL     1     -44.606 -53.376  12.990  1.00  0.00     0.050 A 
ENDBRANCH   1   7
BRANCH   4  15
HETATM   15  C   UNL     1     -42.104 -48.306  13.522  1.00  0.00     0.086 C 
HETATM   16  C   UNL     1     -42.556 -47.303  14.584  1.00  0.00     0.025 C 
HETATM   17  C   UNL     1     -43.291 -46.101  13.997  1.00  0.00     0.003 C 
HETATM   18  C   UNL     1     -42.499 -45.436  12.873  1.00  0.00     0.014 C 
HETATM   19  C   UNL     1     -42.091 -46.437  11.783  1.00  0.00     0.095 C 
HETATM   20  C   UNL     1     -41.313 -47.607  12.405  1.00  0.00     0.038 C 
BRANCH  19  21
HETATM   21  C   UNL     1     -41.306 -45.771  10.651  1.00  0.00     0.391 C 
HETATM   22  F   UNL     1     -41.091 -44.459  10.883  1.00  0.00    -0.171 F 
HETATM   23  F   UNL     1     -40.103 -46.346  10.445  1.00  0.00    -0.171 F 
HETATM   24  F   UNL     1     -41.998 -45.860   9.490  1.00  0.00    -0.171 F 
ENDBRANCH  19  21
ENDBRANCH   4  15
TORSDOF 3
ENDMDL
MODEL 5
REMARK VINA RESULT:      -5.9      2.546      7.045
REMARK  3 active torsions:
REMARK  status: ('A' for Active; 'I' for Inactive)
REMARK    1  A    between atoms: C_8  and  N_9 
REMARK       I    between atoms: N_9  and  C_10 
REMARK       I    between atoms: C_10  and  N_12 
REMARK    2  A    between atoms: N_12  and  C_13 
REMARK    3  A    between atoms: C_17  and  C_19 
ROOT
HETATM    1  N   UNL     1     -42.818 -52.150  14.006  1.00  0.00    -0.306 N 
HETATM    2  C   UNL     1     -41.944 -52.015  12.954  1.00  0.00     0.321 C 
HETATM    3  O   UNL     1     -42.084 -52.513  11.842  1.00  0.00    -0.247 OA
HETATM    4  N   UNL     1     -40.852 -51.232  13.249  1.00  0.00    -0.338 N 
HETATM    5  H   UNL     1     -42.523 -51.823  14.917  1.00  0.00     0.171 HD
HETATM    6  H   UNL     1     -40.690 -50.931  14.198  1.00  0.00     0.164 HD
ENDROOT
BRANCH   1   7
HETATM    7  C   UNL     1     -44.032 -52.888  13.972  1.00  0.00     0.077 A 
HETATM    8  C   UNL     1     -45.236 -52.192  13.942  1.00  0.00     0.158 A 
HETATM    9  F   UNL     1     -45.253 -50.852  13.927  1.00  0.00    -0.202 F 
HETATM   10  C   UNL     1     -46.428 -52.904  13.956  1.00  0.00     0.132 A 
HETATM   11  N   UNL     1     -46.494 -54.254  13.980  1.00  0.00    -0.372 N 
HETATM   12  C   UNL     1     -45.316 -54.911  13.983  1.00  0.00     0.090 A 
ATOM     13  HN  UNL     1     -47.387 -54.748  13.994  1.00  0.00     0.164 HD
HETATM   14  C   UNL     1     -44.081 -54.282  13.973  1.00  0.00     0.050 A 
ENDBRANCH   1   7
BRANCH   4  15
HETATM   15  C   UNL     1     -39.860 -50.951  12.212  1.00  0.00     0.086 C 
HETATM   16  C   UNL     1     -38.458 -50.754  12.794  1.00  0.00     0.025 C 
HETATM   17  C   UNL     1     -38.296 -49.423  13.522  1.00  0.00     0.003 C 
HETATM   18  C   UNL     1     -38.737 -48.239  12.664  1.00  0.00     0.014 C 
HETATM   19  C   UNL     1     -40.163 -48.417  12.124  1.00  0.00     0.095 C 
HETATM   20  C   UNL     1     -40.276 -49.744  11.357  1.00  0.00     0.038 C 
BRANCH  19  21
HETATM   21  C   UNL     1     -40.612 -47.229  11.271  1.00  0.00     0.391 C 
HETATM   22  F   UNL     1     -41.382 -46.365  11.968  1.00  0.00    -0.171 F 
HETATM   23  F   UNL     1     -39.574 -46.528  10.770  1.00  0.00    -0.171 F 
HETATM   24  F   UNL     1     -41.350 -47.661  10.222  1.00  0.00    -0.171 F 
ENDBRANCH  19  21
ENDBRANCH   4  15
TORSDOF 3
ENDMDL
MODEL 6
REMARK VINA RESULT:      -5.9      4.122      7.308
REMARK  3 active torsions:
REMARK  status: ('A' for Active; 'I' for Inactive)
REMARK    1  A    between atoms: C_8  and  N_9 
REMARK       I    between atoms: N_9  and  C_10 
REMARK       I    between atoms: C_10  and  N_12 
REMARK    2  A    between atoms: N_12  and  C_13 
REMARK    3  A    between atoms: C_17  and  C_19 
ROOT
HETATM    1  N   UNL     1     -41.170 -54.438  16.032  1.00  0.00    -0.306 N 
HETATM    2  C   UNL     1     -41.318 -54.110  14.706  1.00  0.00     0.321 C 
HETATM    3  O   UNL     1     -40.599 -54.498  13.791  1.00  0.00    -0.247 OA
HETATM    4  N   UNL     1     -42.390 -53.283  14.464  1.00  0.00    -0.338 N 
HETATM    5  H   UNL     1     -41.727 -53.938  16.712  1.00  0.00     0.171 HD
HETATM    6  H   UNL     1     -42.896 -52.877  15.236  1.00  0.00     0.164 HD
ENDROOT
BRANCH   1   7
HETATM    7  C   UNL     1     -40.160 -55.288  16.558  1.00  0.00     0.077 A 
HETATM    8  C   UNL     1     -40.481 -56.611  16.845  1.00  0.00     0.158 A 
HETATM    9  F   UNL     1     -41.715 -57.081  16.615  1.00  0.00    -0.202 F 
HETATM   10  C   UNL     1     -39.514 -57.435  17.403  1.00  0.00     0.132 A 
HETATM   11  N   UNL     1     -38.252 -57.033  17.673  1.00  0.00    -0.372 N 
HETATM   12  C   UNL     1     -37.952 -55.754  17.364  1.00  0.00     0.090 A 
ATOM     13  HN  UNL     1     -37.564 -57.663  18.087  1.00  0.00     0.164 HD
HETATM   14  C   UNL     1     -38.855 -54.862  16.808  1.00  0.00     0.050 A 
ENDBRANCH   1   7
BRANCH   4  15
HETATM   15  C   UNL     1     -42.708 -52.890  13.092  1.00  0.00     0.086 C 
HETATM   16  C   UNL     1     -42.077 -51.548  12.715  1.00  0.00     0.025 C 
HETATM   17  C   UNL     1     -42.766 -50.358  13.376  1.00  0.00     0.003 C 
HETATM   18  C   UNL     1     -44.277 -50.370  13.151  1.00  0.00     0.014 C 
HETATM   19  C   UNL     1     -44.913 -51.699  13.577  1.00  0.00     0.095 C 
HETATM   20  C   UNL     1     -44.227 -52.870  12.857  1.00  0.00     0.038 C 
BRANCH  19  21
HETATM   21  C   UNL     1     -46.428 -51.711  13.363  1.00  0.00     0.391 C 
HETATM   22  F   UNL     1     -47.078 -50.958  14.277  1.00  0.00    -0.171 F 
HETATM   23  F   UNL     1     -46.783 -51.258  12.143  1.00  0.00    -0.171 F 
HETATM   24  F   UNL     1     -46.905 -52.973  13.478  1.00  0.00    -0.171 F 
ENDBRANCH  19  21
ENDBRANCH   4  15
TORSDOF 3
ENDMDL
MODEL 7
REMARK VINA RESULT:      -5.8      3.094      3.810
REMARK  3 active torsions:
REMARK  status: ('A' for Active; 'I' for Inactive)
REMARK    1  A    between atoms: C_8  and  N_9 
REMARK       I    between atoms: N_9  and  C_10 
REMARK       I    between atoms: C_10  and  N_12 
REMARK    2  A    between atoms: N_12  and  C_13 
REMARK    3  A    between atoms: C_17  and  C_19 
ROOT
HETATM    1  N   UNL     1     -40.867 -51.516  13.488  1.00  0.00    -0.306 N 
HETATM    2  C   UNL     1     -41.508 -52.084  14.563  1.00  0.00     0.321 C 
HETATM    3  O   UNL     1     -41.245 -51.875  15.742  1.00  0.00    -0.247 OA
HETATM    4  N   UNL     1     -42.523 -52.940  14.203  1.00  0.00    -0.338 N 
HETATM    5  H   UNL     1     -41.068 -51.880  12.566  1.00  0.00     0.171 HD
HETATM    6  H   UNL     1     -42.647 -53.194  13.235  1.00  0.00     0.164 HD
ENDROOT
BRANCH   1   7
HETATM    7  C   UNL     1     -39.797 -50.585  13.572  1.00  0.00     0.077 A 
HETATM    8  C   UNL     1     -38.499 -51.069  13.705  1.00  0.00     0.158 A 
HETATM    9  F   UNL     1     -38.260 -52.388  13.736  1.00  0.00    -0.202 F 
HETATM   10  C   UNL     1     -37.452 -50.167  13.835  1.00  0.00     0.132 A 
HETATM   11  N   UNL     1     -37.612 -48.825  13.822  1.00  0.00    -0.372 N 
HETATM   12  C   UNL     1     -38.875 -48.375  13.666  1.00  0.00     0.090 A 
ATOM     13  HN  UNL     1     -36.822 -48.189  13.923  1.00  0.00     0.164 HD
HETATM   14  C   UNL     1     -39.978 -49.203  13.533  1.00  0.00     0.050 A 
ENDBRANCH   1   7
BRANCH   4  15
HETATM   15  C   UNL     1     -43.333 -53.580  15.238  1.00  0.00     0.086 C 
HETATM   16  C   UNL     1     -43.829 -54.963  14.809  1.00  0.00     0.025 C 
HETATM   17  C   UNL     1     -44.941 -54.901  13.765  1.00  0.00     0.003 C 
HETATM   18  C   UNL     1     -46.084 -53.984  14.196  1.00  0.00     0.014 C 
HETATM   19  C   UNL     1     -45.588 -52.583  14.577  1.00  0.00     0.095 C 
HETATM   20  C   UNL     1     -44.506 -52.682  15.662  1.00  0.00     0.038 C 
BRANCH  19  21
HETATM   21  C   UNL     1     -46.732 -51.659  14.999  1.00  0.00     0.391 C 
HETATM   22  F   UNL     1     -47.243 -50.970  13.955  1.00  0.00    -0.171 F 
HETATM   23  F   UNL     1     -47.752 -52.326  15.578  1.00  0.00    -0.171 F 
HETATM   24  F   UNL     1     -46.287 -50.746  15.895  1.00  0.00    -0.171 F 
ENDBRANCH  19  21
ENDBRANCH   4  15
TORSDOF 3
ENDMDL
MODEL 8
REMARK VINA RESULT:      -5.7      3.278      7.266
REMARK  3 active torsions:
REMARK  status: ('A' for Active; 'I' for Inactive)
REMARK    1  A    between atoms: C_8  and  N_9 
REMARK       I    between atoms: N_9  and  C_10 
REMARK       I    between atoms: C_10  and  N_12 
REMARK    2  A    between atoms: N_12  and  C_13 
REMARK    3  A    between atoms: C_17  and  C_19 
ROOT
HETATM    1  N   UNL     1     -42.580 -51.961  14.040  1.00  0.00    -0.306 N 
HETATM    2  C   UNL     1     -41.713 -51.639  13.023  1.00  0.00     0.321 C 
HETATM    3  O   UNL     1     -41.811 -52.013  11.859  1.00  0.00    -0.247 OA
HETATM    4  N   UNL     1     -40.684 -50.819  13.422  1.00  0.00    -0.338 N 
HETATM    5  H   UNL     1     -42.314 -51.722  14.987  1.00  0.00     0.171 HD
HETATM    6  H   UNL     1     -40.549 -50.620  14.401  1.00  0.00     0.164 HD
ENDROOT
BRANCH   1   7
HETATM    7  C   UNL     1     -43.735 -52.776  13.905  1.00  0.00     0.077 A 
HETATM    8  C   UNL     1     -44.948 -52.170  13.589  1.00  0.00     0.158 A 
HETATM    9  F   UNL     1     -45.022 -50.845  13.400  1.00  0.00    -0.202 F 
HETATM   10  C   UNL     1     -46.091 -52.953  13.501  1.00  0.00     0.132 A 
HETATM   11  N   UNL     1     -46.099 -54.292  13.687  1.00  0.00    -0.372 N 
HETATM   12  C   UNL     1     -44.910 -54.864  13.967  1.00  0.00     0.090 A 
ATOM     13  HN  UNL     1     -46.957 -54.838  13.619  1.00  0.00     0.164 HD
HETATM   14  C   UNL     1     -43.721 -54.160  14.077  1.00  0.00     0.050 A 
ENDBRANCH   1   7
BRANCH   4  15
HETATM   15  C   UNL     1     -39.710 -50.346  12.438  1.00  0.00     0.086 C 
HETATM   16  C   UNL     1     -38.286 -50.789  12.778  1.00  0.00     0.025 C 
HETATM   17  C   UNL     1     -37.689 -50.026  13.958  1.00  0.00     0.003 C 
HETATM   18  C   UNL     1     -37.797 -48.514  13.779  1.00  0.00     0.014 C 
HETATM   19  C   UNL     1     -39.237 -48.068  13.489  1.00  0.00     0.095 C 
HETATM   20  C   UNL     1     -39.787 -48.821  12.268  1.00  0.00     0.038 C 
BRANCH  19  21
HETATM   21  C   UNL     1     -39.351 -46.552  13.319  1.00  0.00     0.391 C 
HETATM   22  F   UNL     1     -38.300 -45.899  13.860  1.00  0.00    -0.171 F 
HETATM   23  F   UNL     1     -39.434 -46.179  12.026  1.00  0.00    -0.171 F 
HETATM   24  F   UNL     1     -40.463 -46.096  13.942  1.00  0.00    -0.171 F 
ENDBRANCH  19  21
ENDBRANCH   4  15
TORSDOF 3
ENDMDL
MODEL 9
REMARK VINA RESULT:      -5.4      4.098      7.220
REMARK  3 active torsions:
REMARK  status: ('A' for Active; 'I' for Inactive)
REMARK    1  A    between atoms: C_8  and  N_9 
REMARK       I    between atoms: N_9  and  C_10 
REMARK       I    between atoms: C_10  and  N_12 
REMARK    2  A    between atoms: N_12  and  C_13 
REMARK    3  A    between atoms: C_17  and  C_19 
ROOT
HETATM    1  N   UNL     1     -42.957 -51.860  12.494  1.00  0.00    -0.306 N 
HETATM    2  C   UNL     1     -42.457 -50.684  13.001  1.00  0.00     0.321 C 
HETATM    3  O   UNL     1     -42.961 -50.026  13.905  1.00  0.00    -0.247 OA
HETATM    4  N   UNL     1     -41.287 -50.284  12.399  1.00  0.00    -0.338 N 
HETATM    5  H   UNL     1     -42.541 -52.231  11.650  1.00  0.00     0.171 HD
HETATM    6  H   UNL     1     -40.952 -50.768  11.580  1.00  0.00     0.164 HD
ENDROOT
BRANCH   1   7
HETATM    7  C   UNL     1     -44.140 -52.507  12.943  1.00  0.00     0.077 A 
HETATM    8  C   UNL     1     -44.060 -53.834  13.357  1.00  0.00     0.158 A 
HETATM    9  F   UNL     1     -42.888 -54.484  13.348  1.00  0.00    -0.202 F 
HETATM   10  C   UNL     1     -45.219 -54.488  13.751  1.00  0.00     0.132 A 
HETATM   11  N   UNL     1     -46.438 -53.905  13.778  1.00  0.00    -0.372 N 
HETATM   12  C   UNL     1     -46.490 -52.611  13.398  1.00  0.00     0.090 A 
ATOM     13  HN  UNL     1     -47.271 -54.415  14.071  1.00  0.00     0.164 HD
HETATM   14  C   UNL     1     -45.386 -51.882  12.987  1.00  0.00     0.050 A 
ENDBRANCH   1   7
BRANCH   4  15
HETATM   15  C   UNL     1     -40.606 -49.079  12.867  1.00  0.00     0.086 C 
HETATM   16  C   UNL     1     -39.664 -48.500  11.809  1.00  0.00     0.025 C 
HETATM   17  C   UNL     1     -38.395 -49.327  11.622  1.00  0.00     0.003 C 
HETATM   18  C   UNL     1     -37.682 -49.594  12.946  1.00  0.00     0.014 C 
HETATM   19  C   UNL     1     -38.617 -50.222  13.989  1.00  0.00     0.095 C 
HETATM   20  C   UNL     1     -39.859 -49.338  14.185  1.00  0.00     0.038 C 
BRANCH  19  21
HETATM   21  C   UNL     1     -37.903 -50.499  15.314  1.00  0.00     0.391 C 
HETATM   22  F   UNL     1     -38.144 -51.748  15.769  1.00  0.00    -0.171 F 
HETATM   23  F   UNL     1     -36.565 -50.355  15.223  1.00  0.00    -0.171 F 
HETATM   24  F   UNL     1     -38.337 -49.640  16.266  1.00  0.00    -0.171 F 
ENDBRANCH  19  21
ENDBRANCH   4  15
TORSDOF 3
ENDMDL
