MODEL 1
REMARK VINA RESULT:      -6.0      0.000      0.000
REMARK  3 active torsions:
REMARK  status: ('A' for Active; 'I' for Inactive)
REMARK    1  A    between atoms: C_2  and  C_5 
REMARK    2  A    between atoms: C_5  and  N_6 
REMARK    3  A    between atoms: C_9  and  N_12 
ROOT
HETATM    1  N   UNL     1     -44.673 -52.652  14.535  1.00  0.00    -0.342 N 
HETATM    2  C   UNL     1     -45.165 -53.072  13.245  1.00  0.00     0.129 C 
HETATM    3  C   UNL     1     -44.015 -53.847  12.619  1.00  0.00     0.055 C 
HETATM    4  C   UNL     1     -42.753 -53.392  13.363  1.00  0.00     0.187 C 
HETATM    5  C   UNL     1     -43.300 -52.827  14.673  1.00  0.00     0.243 C 
HETATM    6  O   UNL     1     -42.642 -52.445  15.627  1.00  0.00    -0.271 OA
ENDROOT
BRANCH   4   7
HETATM    7  N   UNL     1     -41.942 -52.329  12.740  1.00  0.00    -0.294 N 
HETATM    8  C   UNL     1     -42.470 -51.079  12.458  1.00  0.00     0.126 A 
HETATM    9  C   UNL     1     -41.725 -50.051  12.044  1.00  0.00     0.117 A 
HETATM   10 CL   UNL     1     -42.409 -48.512  11.715  1.00  0.00    -0.077 Cl
HETATM   11  C   UNL     1     -40.270 -50.252  11.880  1.00  0.00     0.272 A 
HETATM   12  O   UNL     1     -39.518 -49.392  11.435  1.00  0.00    -0.266 OA
HETATM   13  N   UNL     1     -39.810 -51.487  12.250  1.00  0.00    -0.274 N 
HETATM   14  C   UNL     1     -40.566 -52.559  12.653  1.00  0.00     0.330 A 
HETATM   15  H   UNL     1     -38.818 -51.649  12.164  1.00  0.00     0.173 HD
HETATM   16  O   UNL     1     -40.030 -53.638  12.887  1.00  0.00    -0.246 OA
ENDBRANCH   4   7
BRANCH   1  17
HETATM   17  C   UNL     1     -45.397 -51.676  15.362  1.00  0.00     0.243 C 
BRANCH  17  18
HETATM   18  C   UNL     1     -46.920 -51.616  15.150  1.00  0.00     0.403 C 
HETATM   19  F   UNL     1     -47.491 -52.843  15.116  1.00  0.00    -0.169 F 
HETATM   20  F   UNL     1     -47.244 -50.988  14.001  1.00  0.00    -0.169 F 
HETATM   21  F   UNL     1     -47.511 -50.939  16.164  1.00  0.00    -0.169 F 
ENDBRANCH  17  18
ENDBRANCH   1  17
TORSDOF 3
ENDMDL
MODEL 2
REMARK VINA RESULT:      -5.9      3.196      4.334
REMARK  3 active torsions:
REMARK  status: ('A' for Active; 'I' for Inactive)
REMARK    1  A    between atoms: C_2  and  C_5 
REMARK    2  A    between atoms: C_5  and  N_6 
REMARK    3  A    between atoms: C_9  and  N_12 
ROOT
HETATM    1  N   UNL     1     -44.298 -52.571  13.663  1.00  0.00    -0.342 N 
HETATM    2  C   UNL     1     -44.300 -51.943  14.962  1.00  0.00     0.129 C 
HETATM    3  C   UNL     1     -42.993 -51.169  15.029  1.00  0.00     0.055 C 
HETATM    4  C   UNL     1     -42.078 -51.807  13.976  1.00  0.00     0.187 C 
HETATM    5  C   UNL     1     -43.057 -52.510  13.036  1.00  0.00     0.243 C 
HETATM    6  O   UNL     1     -42.779 -53.065  11.985  1.00  0.00    -0.271 OA
ENDROOT
BRANCH   4   7
HETATM    7  N   UNL     1     -41.116 -52.825  14.438  1.00  0.00    -0.294 N 
HETATM    8  C   UNL     1     -41.464 -53.785  15.376  1.00  0.00     0.126 A 
HETATM    9  C   UNL     1     -40.672 -54.811  15.695  1.00  0.00     0.117 A 
HETATM   10 CL   UNL     1     -41.138 -55.990  16.852  1.00  0.00    -0.077 Cl
HETATM   11  C   UNL     1     -39.364 -54.934  15.017  1.00  0.00     0.272 A 
HETATM   12  O   UNL     1     -38.540 -55.797  15.296  1.00  0.00    -0.266 OA
HETATM   13  N   UNL     1     -39.123 -53.995  14.050  1.00  0.00    -0.274 N 
HETATM   14  C   UNL     1     -39.916 -52.922  13.729  1.00  0.00     0.330 A 
HETATM   15  H   UNL     1     -38.245 -54.063  13.559  1.00  0.00     0.173 HD
HETATM   16  O   UNL     1     -39.543 -52.111  12.886  1.00  0.00    -0.246 OA
ENDBRANCH   4   7
BRANCH   1  17
HETATM   17  C   UNL     1     -45.279 -53.601  13.294  1.00  0.00     0.243 C 
BRANCH  17  18
HETATM   18  C   UNL     1     -45.296 -54.859  14.183  1.00  0.00     0.403 C 
HETATM   19  F   UNL     1     -45.954 -54.664  15.349  1.00  0.00    -0.169 F 
HETATM   20  F   UNL     1     -44.050 -55.277  14.487  1.00  0.00    -0.169 F 
HETATM   21  F   UNL     1     -45.923 -55.877  13.546  1.00  0.00    -0.169 F 
ENDBRANCH  17  18
ENDBRANCH   1  17
TORSDOF 3
ENDMDL
MODEL 3
REMARK VINA RESULT:      -5.8      3.135      5.115
REMARK  3 active torsions:
REMARK  status: ('A' for Active; 'I' for Inactive)
REMARK    1  A    between atoms: C_2  and  C_5 
REMARK    2  A    between atoms: C_5  and  N_6 
REMARK    3  A    between atoms: C_9  and  N_12 
ROOT
HETATM    1  N   UNL     1     -40.895 -48.384  12.586  1.00  0.00    -0.342 N 
HETATM    2  C   UNL     1     -41.068 -48.338  14.018  1.00  0.00     0.129 C 
HETATM    3  C   UNL     1     -40.524 -49.666  14.522  1.00  0.00     0.055 C 
HETATM    4  C   UNL     1     -40.542 -50.610  13.313  1.00  0.00     0.187 C 
HETATM    5  C   UNL     1     -40.573 -49.655  12.120  1.00  0.00     0.243 C 
HETATM    6  O   UNL     1     -40.488 -49.964  10.943  1.00  0.00    -0.271 OA
ENDROOT
BRANCH   4   7
HETATM    7  N   UNL     1     -41.699 -51.514  13.173  1.00  0.00    -0.294 N 
HETATM    8  C   UNL     1     -42.989 -51.097  13.462  1.00  0.00     0.126 A 
HETATM    9  C   UNL     1     -44.069 -51.836  13.196  1.00  0.00     0.117 A 
HETATM   10 CL   UNL     1     -45.654 -51.286  13.556  1.00  0.00    -0.077 Cl
HETATM   11  C   UNL     1     -43.883 -53.158  12.561  1.00  0.00     0.272 A 
HETATM   12  O   UNL     1     -44.805 -53.937  12.347  1.00  0.00    -0.266 OA
HETATM   13  N   UNL     1     -42.590 -53.468  12.235  1.00  0.00    -0.274 N 
HETATM   14  C   UNL     1     -41.470 -52.730  12.525  1.00  0.00     0.330 A 
HETATM   15  H   UNL     1     -42.434 -54.357  11.786  1.00  0.00     0.173 HD
HETATM   16  O   UNL     1     -40.357 -53.162  12.238  1.00  0.00    -0.246 OA
ENDBRANCH   4   7
BRANCH   1  17
HETATM   17  C   UNL     1     -41.510 -47.388  11.696  1.00  0.00     0.243 C 
BRANCH  17  18
HETATM   18  C   UNL     1     -43.048 -47.326  11.720  1.00  0.00     0.403 C 
HETATM   19  F   UNL     1     -43.617 -48.553  11.784  1.00  0.00    -0.169 F 
HETATM   20  F   UNL     1     -43.544 -46.706  10.630  1.00  0.00    -0.169 F 
HETATM   21  F   UNL     1     -43.475 -46.640  12.808  1.00  0.00    -0.169 F 
ENDBRANCH  17  18
ENDBRANCH   1  17
TORSDOF 3
ENDMDL
MODEL 4
REMARK VINA RESULT:      -5.7      4.647      6.369
REMARK  3 active torsions:
REMARK  status: ('A' for Active; 'I' for Inactive)
REMARK    1  A    between atoms: C_2  and  C_5 
REMARK    2  A    between atoms: C_5  and  N_6 
REMARK    3  A    between atoms: C_9  and  N_12 
ROOT
HETATM    1  N   UNL     1     -39.589 -50.995  13.617  1.00  0.00    -0.342 N 
HETATM    2  C   UNL     1     -40.174 -50.087  14.574  1.00  0.00     0.129 C 
HETATM    3  C   UNL     1     -40.619 -50.968  15.732  1.00  0.00     0.055 C 
HETATM    4  C   UNL     1     -40.732 -52.385  15.156  1.00  0.00     0.187 C 
HETATM    5  C   UNL     1     -39.857 -52.330  13.905  1.00  0.00     0.243 C 
HETATM    6  O   UNL     1     -39.564 -53.270  13.184  1.00  0.00    -0.271 OA
ENDROOT
BRANCH   4   7
HETATM    7  N   UNL     1     -42.068 -52.841  14.728  1.00  0.00    -0.294 N 
HETATM    8  C   UNL     1     -42.986 -51.973  14.157  1.00  0.00     0.126 A 
HETATM    9  C   UNL     1     -44.137 -52.383  13.617  1.00  0.00     0.117 A 
HETATM   10 CL   UNL     1     -45.246 -51.284  12.906  1.00  0.00    -0.077 Cl
HETATM   11  C   UNL     1     -44.447 -53.829  13.626  1.00  0.00     0.272 A 
HETATM   12  O   UNL     1     -45.508 -54.291  13.222  1.00  0.00    -0.266 OA
HETATM   13  N   UNL     1     -43.461 -54.630  14.136  1.00  0.00    -0.274 N 
HETATM   14  C   UNL     1     -42.287 -54.220  14.716  1.00  0.00     0.330 A 
HETATM   15  H   UNL     1     -43.638 -55.623  14.140  1.00  0.00     0.173 HD
HETATM   16  O   UNL     1     -41.519 -55.047  15.202  1.00  0.00    -0.246 OA
ENDBRANCH   4   7
BRANCH   1  17
HETATM   17  C   UNL     1     -39.248 -50.571  12.251  1.00  0.00     0.243 C 
BRANCH  17  18
HETATM   18  C   UNL     1     -37.764 -50.241  12.003  1.00  0.00     0.403 C 
HETATM   19  F   UNL     1     -37.486 -50.045  10.693  1.00  0.00    -0.169 F 
HETATM   20  F   UNL     1     -36.949 -51.220  12.448  1.00  0.00    -0.169 F 
HETATM   21  F   UNL     1     -37.421 -49.101  12.650  1.00  0.00    -0.169 F 
ENDBRANCH  17  18
ENDBRANCH   1  17
TORSDOF 3
ENDMDL
MODEL 5
REMARK VINA RESULT:      -5.6      4.355      6.055
REMARK  3 active torsions:
REMARK  status: ('A' for Active; 'I' for Inactive)
REMARK    1  A    between atoms: C_2  and  C_5 
REMARK    2  A    between atoms: C_5  and  N_6 
REMARK    3  A    between atoms: C_9  and  N_12 
ROOT
HETATM    1  N   UNL     1     -42.389 -47.664  12.145  1.00  0.00    -0.342 N 
HETATM    2  C   UNL     1     -42.633 -47.524  13.560  1.00  0.00     0.129 C 
HETATM    3  C   UNL     1     -41.858 -48.661  14.208  1.00  0.00     0.055 C 
HETATM    4  C   UNL     1     -41.631 -49.695  13.099  1.00  0.00     0.187 C 
HETATM    5  C   UNL     1     -41.798 -48.880  11.817  1.00  0.00     0.243 C 
HETATM    6  O   UNL     1     -41.598 -49.273  10.679  1.00  0.00    -0.271 OA
ENDROOT
BRANCH   4   7
HETATM    7  N   UNL     1     -42.576 -50.825  13.018  1.00  0.00    -0.294 N 
HETATM    8  C   UNL     1     -43.907 -50.690  13.383  1.00  0.00     0.126 A 
HETATM    9  C   UNL     1     -44.818 -51.643  13.174  1.00  0.00     0.117 A 
HETATM   10 CL   UNL     1     -46.461 -51.439  13.626  1.00  0.00    -0.077 Cl
HETATM   11  C   UNL     1     -44.393 -52.899  12.520  1.00  0.00     0.272 A 
HETATM   12  O   UNL     1     -45.139 -53.857  12.353  1.00  0.00    -0.266 OA
HETATM   13  N   UNL     1     -43.084 -52.929  12.120  1.00  0.00    -0.274 N 
HETATM   14  C   UNL     1     -42.131 -51.969  12.350  1.00  0.00     0.330 A 
HETATM   15  H   UNL     1     -42.769 -53.768  11.657  1.00  0.00     0.173 HD
HETATM   16  O   UNL     1     -40.970 -52.156  11.998  1.00  0.00    -0.246 OA
ENDBRANCH   4   7
BRANCH   1  17
HETATM   17  C   UNL     1     -43.148 -46.900  11.145  1.00  0.00     0.243 C 
BRANCH  17  18
HETATM   18  C   UNL     1     -42.345 -45.856  10.347  1.00  0.00     0.403 C 
HETATM   19  F   UNL     1     -41.008 -46.058  10.425  1.00  0.00    -0.169 F 
HETATM   20  F   UNL     1     -42.590 -44.600  10.773  1.00  0.00    -0.169 F 
HETATM   21  F   UNL     1     -42.673 -45.912   9.034  1.00  0.00    -0.169 F 
ENDBRANCH  17  18
ENDBRANCH   1  17
TORSDOF 3
ENDMDL
MODEL 6
REMARK VINA RESULT:      -5.6      4.384      6.136
REMARK  3 active torsions:
REMARK  status: ('A' for Active; 'I' for Inactive)
REMARK    1  A    between atoms: C_2  and  C_5 
REMARK    2  A    between atoms: C_5  and  N_6 
REMARK    3  A    between atoms: C_9  and  N_12 
ROOT
HETATM    1  N   UNL     1     -40.059 -52.076  13.553  1.00  0.00    -0.342 N 
HETATM    2  C   UNL     1     -40.016 -53.041  14.625  1.00  0.00     0.129 C 
HETATM    3  C   UNL     1     -41.021 -54.112  14.231  1.00  0.00     0.055 C 
HETATM    4  C   UNL     1     -41.958 -53.449  13.213  1.00  0.00     0.187 C 
HETATM    5  C   UNL     1     -41.139 -52.267  12.697  1.00  0.00     0.243 C 
HETATM    6  O   UNL     1     -41.448 -51.515  11.787  1.00  0.00    -0.271 OA
ENDROOT
BRANCH   4   7
HETATM    7  N   UNL     1     -43.233 -52.905  13.716  1.00  0.00    -0.294 N 
HETATM    8  C   UNL     1     -43.271 -51.875  14.643  1.00  0.00     0.126 A 
HETATM    9  C   UNL     1     -44.399 -51.256  14.998  1.00  0.00     0.117 A 
HETATM   10 CL   UNL     1     -44.410 -49.975  16.140  1.00  0.00    -0.077 Cl
HETATM   11  C   UNL     1     -45.668 -51.684  14.371  1.00  0.00     0.272 A 
HETATM   12  O   UNL     1     -46.762 -51.227  14.686  1.00  0.00    -0.266 OA
HETATM   13  N   UNL     1     -45.543 -52.651  13.411  1.00  0.00    -0.274 N 
HETATM   14  C   UNL     1     -44.395 -53.313  13.056  1.00  0.00     0.330 A 
HETATM   15  H   UNL     1     -46.391 -52.953  12.955  1.00  0.00     0.173 HD
HETATM   16  O   UNL     1     -44.436 -54.216  12.225  1.00  0.00    -0.246 OA
ENDBRANCH   4   7
BRANCH   1  17
HETATM   17  C   UNL     1     -39.405 -50.764  13.661  1.00  0.00     0.243 C 
BRANCH  17  18
HETATM   18  C   UNL     1     -38.135 -50.577  12.810  1.00  0.00     0.403 C 
HETATM   19  F   UNL     1     -37.278 -51.619  12.917  1.00  0.00    -0.169 F 
HETATM   20  F   UNL     1     -37.460 -49.461  13.152  1.00  0.00    -0.169 F 
HETATM   21  F   UNL     1     -38.459 -50.470  11.498  1.00  0.00    -0.169 F 
ENDBRANCH  17  18
ENDBRANCH   1  17
TORSDOF 3
ENDMDL
MODEL 7
REMARK VINA RESULT:      -5.5      5.082      6.588
REMARK  3 active torsions:
REMARK  status: ('A' for Active; 'I' for Inactive)
REMARK    1  A    between atoms: C_2  and  C_5 
REMARK    2  A    between atoms: C_5  and  N_6 
REMARK    3  A    between atoms: C_9  and  N_12 
ROOT
HETATM    1  N   UNL     1     -40.607 -50.158  13.261  1.00  0.00    -0.342 N 
HETATM    2  C   UNL     1     -41.467 -49.559  14.254  1.00  0.00     0.129 C 
HETATM    3  C   UNL     1     -42.644 -48.999  13.469  1.00  0.00     0.055 C 
HETATM    4  C   UNL     1     -42.149 -48.853  12.025  1.00  0.00     0.187 C 
HETATM    5  C   UNL     1     -40.958 -49.808  11.961  1.00  0.00     0.243 C 
HETATM    6  O   UNL     1     -40.316 -50.099  10.965  1.00  0.00    -0.271 OA
ENDROOT
BRANCH   4   7
HETATM    7  N   UNL     1     -41.663 -47.527  11.603  1.00  0.00    -0.294 N 
HETATM    8  C   UNL     1     -40.770 -46.798  12.374  1.00  0.00     0.126 A 
HETATM    9  C   UNL     1     -40.191 -45.673  11.949  1.00  0.00     0.117 A 
HETATM   10 CL   UNL     1     -39.079 -44.802  12.924  1.00  0.00    -0.077 Cl
HETATM   11  C   UNL     1     -40.513 -45.180  10.593  1.00  0.00     0.272 A 
HETATM   12  O   UNL     1     -40.090 -44.120  10.144  1.00  0.00    -0.266 OA
HETATM   13  N   UNL     1     -41.340 -45.990   9.863  1.00  0.00    -0.274 N 
HETATM   14  C   UNL     1     -41.962 -47.135  10.296  1.00  0.00     0.330 A 
HETATM   15  H   UNL     1     -41.565 -45.687   8.928  1.00  0.00     0.173 HD
HETATM   16  O   UNL     1     -42.741 -47.729   9.557  1.00  0.00    -0.246 OA
ENDBRANCH   4   7
BRANCH   1  17
HETATM   17  C   UNL     1     -39.244 -50.605  13.581  1.00  0.00     0.243 C 
BRANCH  17  18
HETATM   18  C   UNL     1     -38.176 -49.499  13.655  1.00  0.00     0.403 C 
HETATM   19  F   UNL     1     -37.789 -49.067  12.432  1.00  0.00    -0.169 F 
HETATM   20  F   UNL     1     -37.070 -49.910  14.308  1.00  0.00    -0.169 F 
HETATM   21  F   UNL     1     -38.661 -48.419  14.315  1.00  0.00    -0.169 F 
ENDBRANCH  17  18
ENDBRANCH   1  17
TORSDOF 3
ENDMDL
MODEL 8
REMARK VINA RESULT:      -5.5      5.592      7.569
REMARK  3 active torsions:
REMARK  status: ('A' for Active; 'I' for Inactive)
REMARK    1  A    between atoms: C_2  and  C_5 
REMARK    2  A    between atoms: C_5  and  N_6 
REMARK    3  A    between atoms: C_9  and  N_12 
ROOT
HETATM    1  N   UNL     1     -40.577 -44.404  12.477  1.00  0.00    -0.342 N 
HETATM    2  C   UNL     1     -39.462 -44.299  11.567  1.00  0.00     0.129 C 
HETATM    3  C   UNL     1     -39.937 -44.967  10.285  1.00  0.00     0.055 C 
HETATM    4  C   UNL     1     -41.105 -45.872  10.695  1.00  0.00     0.187 C 
HETATM    5  C   UNL     1     -41.563 -45.276  12.026  1.00  0.00     0.243 C 
HETATM    6  O   UNL     1     -42.543 -45.613  12.671  1.00  0.00    -0.271 OA
ENDROOT
BRANCH   4   7
HETATM    7  N   UNL     1     -40.811 -47.296  10.938  1.00  0.00    -0.294 N 
HETATM    8  C   UNL     1     -39.742 -47.696  11.725  1.00  0.00     0.126 A 
HETATM    9  C   UNL     1     -39.542 -48.964  12.092  1.00  0.00     0.117 A 
HETATM   10 CL   UNL     1     -38.215 -49.424  13.078  1.00  0.00    -0.077 Cl
HETATM   11  C   UNL     1     -40.506 -49.991  11.642  1.00  0.00     0.272 A 
HETATM   12  O   UNL     1     -40.366 -51.188  11.865  1.00  0.00    -0.266 OA
HETATM   13  N   UNL     1     -41.575 -49.512  10.934  1.00  0.00    -0.274 N 
HETATM   14  C   UNL     1     -41.779 -48.216  10.529  1.00  0.00     0.330 A 
HETATM   15  H   UNL     1     -42.258 -50.187  10.627  1.00  0.00     0.173 HD
HETATM   16  O   UNL     1     -42.750 -47.935   9.833  1.00  0.00    -0.246 OA
ENDBRANCH   4   7
BRANCH   1  17
HETATM   17  C   UNL     1     -40.446 -44.088  13.907  1.00  0.00     0.243 C 
BRANCH  17  18
HETATM   18  C   UNL     1     -39.684 -45.123  14.755  1.00  0.00     0.403 C 
HETATM   19  F   UNL     1     -39.398 -44.669  15.998  1.00  0.00    -0.169 F 
HETATM   20  F   UNL     1     -38.519 -45.487  14.180  1.00  0.00    -0.169 F 
HETATM   21  F   UNL     1     -40.428 -46.245  14.910  1.00  0.00    -0.169 F 
ENDBRANCH  17  18
ENDBRANCH   1  17
TORSDOF 3
ENDMDL
MODEL 9
REMARK VINA RESULT:      -5.5      5.164      6.827
REMARK  3 active torsions:
REMARK  status: ('A' for Active; 'I' for Inactive)
REMARK    1  A    between atoms: C_2  and  C_5 
REMARK    2  A    between atoms: C_5  and  N_6 
REMARK    3  A    between atoms: C_9  and  N_12 
ROOT
HETATM    1  N   UNL     1     -42.152 -45.983  11.422  1.00  0.00    -0.342 N 
HETATM    2  C   UNL     1     -42.274 -46.387  10.042  1.00  0.00     0.129 C 
HETATM    3  C   UNL     1     -43.096 -47.666  10.077  1.00  0.00     0.055 C 
HETATM    4  C   UNL     1     -42.964 -48.206  11.507  1.00  0.00     0.187 C 
HETATM    5  C   UNL     1     -42.551 -46.975  12.313  1.00  0.00     0.243 C 
HETATM    6  O   UNL     1     -42.435 -46.909  13.525  1.00  0.00    -0.271 OA
ENDROOT
BRANCH   4   7
HETATM    7  N   UNL     1     -41.946 -49.244  11.752  1.00  0.00    -0.294 N 
HETATM    8  C   UNL     1     -40.627 -49.080  11.356  1.00  0.00     0.126 A 
HETATM    9  C   UNL     1     -39.653 -49.925  11.700  1.00  0.00     0.117 A 
HETATM   10 CL   UNL     1     -38.028 -49.686  11.204  1.00  0.00    -0.077 Cl
HETATM   11  C   UNL     1     -39.993 -51.090  12.545  1.00  0.00     0.272 A 
HETATM   12  O   UNL     1     -39.184 -51.959  12.851  1.00  0.00    -0.266 OA
HETATM   13  N   UNL     1     -41.297 -51.144  12.960  1.00  0.00    -0.274 N 
HETATM   14  C   UNL     1     -42.312 -50.297  12.594  1.00  0.00     0.330 A 
HETATM   15  H   UNL     1     -41.554 -51.919  13.552  1.00  0.00     0.173 HD
HETATM   16  O   UNL     1     -43.458 -50.504  12.984  1.00  0.00    -0.246 OA
ENDBRANCH   4   7
BRANCH   1  17
HETATM   17  C   UNL     1     -41.231 -44.917  11.842  1.00  0.00     0.243 C 
BRANCH  17  18
HETATM   18  C   UNL     1     -39.825 -44.961  11.215  1.00  0.00     0.403 C 
HETATM   19  F   UNL     1     -39.456 -46.212  10.850  1.00  0.00    -0.169 F 
HETATM   20  F   UNL     1     -38.883 -44.492  12.057  1.00  0.00    -0.169 F 
HETATM   21  F   UNL     1     -39.785 -44.200  10.094  1.00  0.00    -0.169 F 
ENDBRANCH  17  18
ENDBRANCH   1  17
TORSDOF 3
ENDMDL
