MODEL 1
REMARK VINA RESULT:      -5.9      0.000      0.000
REMARK  4 active torsions:
REMARK  status: ('A' for Active; 'I' for Inactive)
REMARK    1  A    between atoms: C_2  and  C_3 
REMARK    2  A    between atoms: C_2  and  N_11 
REMARK    3  A    between atoms: C_3  and  N_4 
REMARK       I    between atoms: N_11  and  C_12 
REMARK       I    between atoms: C_12  and  N_14 
REMARK    4  A    between atoms: C_18  and  C_19 
ROOT
HETATM    1  N   UNL     1     -42.349 -49.645  11.702  1.00  0.00    -0.337 N 
HETATM    2  C   UNL     1     -43.081 -49.878  12.833  1.00  0.00     0.319 C 
HETATM    3  O   UNL     1     -43.435 -48.966  13.574  1.00  0.00    -0.247 OA
HETATM    4  N   UNL     1     -43.444 -51.185  13.045  1.00  0.00    -0.329 N 
HETATM    5  C   UNL     1     -44.470 -51.494  14.027  1.00  0.00     0.128 C 
HETATM    6  C   UNL     1     -44.810 -52.969  13.825  1.00  0.00     0.022 C 
HETATM    7  C   UNL     1     -44.048 -53.384  12.564  1.00  0.00     0.027 C 
HETATM    8  C   UNL     1     -42.872 -52.412  12.499  1.00  0.00     0.093 C 
HETATM    9  H   UNL     1     -42.403 -50.353  10.987  1.00  0.00     0.164 HD
ENDROOT
BRANCH   1  10
HETATM   10  C   UNL     1     -41.941 -48.293  11.295  1.00  0.00     0.100 C 
HETATM   11  C   UNL     1     -40.451 -48.124  11.607  1.00  0.00     0.034 C 
BRANCH  10  12
HETATM   12  C   UNL     1     -42.246 -47.997   9.807  1.00  0.00     0.155 C 
BRANCH  12  13
HETATM   13  N   UNL     1     -43.447 -47.221   9.595  1.00  0.00    -0.335 N 
HETATM   14  C   UNL     1     -43.523 -45.942   9.136  1.00  0.00     0.200 A 
HETATM   15  N   UNL     1     -44.783 -45.569   9.102  1.00  0.00    -0.295 N 
HETATM   16  N   UNL     1     -45.543 -46.617   9.572  1.00  0.00    -0.295 N 
ATOM     17  HN  UNL     1     -45.135 -44.666   8.785  1.00  0.00     0.187 HD
HETATM   18  C   UNL     1     -44.724 -47.595   9.880  1.00  0.00     0.200 A 
ATOM     19  HN  UNL     1     -46.559 -46.630   9.664  1.00  0.00     0.187 HD
ENDBRANCH  12  13
ENDBRANCH  10  12
ENDBRANCH   1  10
BRANCH   8  20
HETATM   20  C   UNL     1     -41.751 -52.852  13.445  1.00  0.00     0.009 C 
HETATM   21  C   UNL     1     -40.297 -52.404  13.128  1.00  0.00     0.007 C 
HETATM   22  C   UNL     1     -39.838 -53.782  13.649  1.00  0.00     0.001 C 
HETATM   23  C   UNL     1     -41.238 -54.308  13.270  1.00  0.00     0.007 C 
ENDBRANCH   8  20
TORSDOF 4
ENDMDL
MODEL 2
REMARK VINA RESULT:      -5.7      4.966      8.209
REMARK  4 active torsions:
REMARK  status: ('A' for Active; 'I' for Inactive)
REMARK    1  A    between atoms: C_2  and  C_3 
REMARK    2  A    between atoms: C_2  and  N_11 
REMARK    3  A    between atoms: C_3  and  N_4 
REMARK       I    between atoms: N_11  and  C_12 
REMARK       I    between atoms: C_12  and  N_14 
REMARK    4  A    between atoms: C_18  and  C_19 
ROOT
HETATM    1  N   UNL     1     -42.456 -44.613  11.419  1.00  0.00    -0.337 N 
HETATM    2  C   UNL     1     -43.092 -43.507  10.925  1.00  0.00     0.319 C 
HETATM    3  O   UNL     1     -43.527 -43.469   9.779  1.00  0.00    -0.247 OA
HETATM    4  N   UNL     1     -43.263 -42.476  11.816  1.00  0.00    -0.329 N 
HETATM    5  C   UNL     1     -44.187 -41.399  11.497  1.00  0.00     0.128 C 
HETATM    6  C   UNL     1     -44.332 -40.583  12.779  1.00  0.00     0.022 C 
HETATM    7  C   UNL     1     -43.587 -41.384  13.849  1.00  0.00     0.027 C 
HETATM    8  C   UNL     1     -42.558 -42.193  13.063  1.00  0.00     0.093 C 
HETATM    9  H   UNL     1     -42.451 -44.708  12.422  1.00  0.00     0.164 HD
ENDROOT
BRANCH   1  10
HETATM   10  C   UNL     1     -42.257 -45.827  10.616  1.00  0.00     0.100 C 
HETATM   11  C   UNL     1     -40.866 -46.389  10.927  1.00  0.00     0.034 C 
BRANCH  10  12
HETATM   12  C   UNL     1     -43.360 -46.888  10.848  1.00  0.00     0.155 C 
BRANCH  12  13
HETATM   13  N   UNL     1     -44.024 -47.321   9.638  1.00  0.00    -0.335 N 
HETATM   14  C   UNL     1     -45.356 -47.547   9.474  1.00  0.00     0.200 A 
HETATM   15  N   UNL     1     -45.576 -47.955   8.244  1.00  0.00    -0.295 N 
HETATM   16  N   UNL     1     -44.361 -48.021   7.600  1.00  0.00    -0.295 N 
ATOM     17  HN  UNL     1     -46.484 -48.183   7.840  1.00  0.00     0.187 HD
HETATM   18  C   UNL     1     -43.437 -47.653   8.457  1.00  0.00     0.200 A 
ATOM     19  HN  UNL     1     -44.207 -48.304   6.632  1.00  0.00     0.187 HD
ENDBRANCH  12  13
ENDBRANCH  10  12
ENDBRANCH   1  10
BRANCH   8  20
HETATM   20  C   UNL     1     -41.341 -41.333  12.713  1.00  0.00     0.009 C 
HETATM   21  C   UNL     1     -39.949 -42.018  12.630  1.00  0.00     0.007 C 
HETATM   22  C   UNL     1     -39.361 -40.728  13.240  1.00  0.00     0.001 C 
HETATM   23  C   UNL     1     -40.747 -40.483  13.870  1.00  0.00     0.007 C 
ENDBRANCH   8  20
TORSDOF 4
ENDMDL
MODEL 3
REMARK VINA RESULT:      -5.6      1.946      2.784
REMARK  4 active torsions:
REMARK  status: ('A' for Active; 'I' for Inactive)
REMARK    1  A    between atoms: C_2  and  C_3 
REMARK    2  A    between atoms: C_2  and  N_11 
REMARK    3  A    between atoms: C_3  and  N_4 
REMARK       I    between atoms: N_11  and  C_12 
REMARK       I    between atoms: C_12  and  N_14 
REMARK    4  A    between atoms: C_18  and  C_19 
ROOT
HETATM    1  N   UNL     1     -42.159 -48.080  11.331  1.00  0.00    -0.337 N 
HETATM    2  C   UNL     1     -42.508 -48.825  12.423  1.00  0.00     0.319 C 
HETATM    3  O   UNL     1     -43.317 -48.421  13.252  1.00  0.00    -0.247 OA
HETATM    4  N   UNL     1     -41.942 -50.075  12.492  1.00  0.00    -0.329 N 
HETATM    5  C   UNL     1     -42.477 -51.054  13.426  1.00  0.00     0.128 C 
HETATM    6  C   UNL     1     -41.810 -52.379  13.065  1.00  0.00     0.022 C 
HETATM    7  C   UNL     1     -41.035 -52.098  11.777  1.00  0.00     0.027 C 
HETATM    8  C   UNL     1     -40.753 -50.599  11.828  1.00  0.00     0.093 C 
HETATM    9  H   UNL     1     -41.792 -48.593  10.546  1.00  0.00     0.164 HD
ENDROOT
BRANCH   1  10
HETATM   10  C   UNL     1     -42.730 -46.751  11.074  1.00  0.00     0.100 C 
HETATM   11  C   UNL     1     -41.905 -45.713  11.841  1.00  0.00     0.034 C 
BRANCH  10  12
HETATM   12  C   UNL     1     -42.804 -46.412   9.565  1.00  0.00     0.155 C 
BRANCH  12  13
HETATM   13  N   UNL     1     -43.748 -47.220   8.826  1.00  0.00    -0.335 N 
HETATM   14  C   UNL     1     -43.538 -47.832   7.629  1.00  0.00     0.200 A 
HETATM   15  N   UNL     1     -44.637 -48.452   7.261  1.00  0.00    -0.295 N 
HETATM   16  N   UNL     1     -45.592 -48.219   8.224  1.00  0.00    -0.295 N 
ATOM     17  HN  UNL     1     -44.759 -49.006   6.414  1.00  0.00     0.187 HD
HETATM   18  C   UNL     1     -45.047 -47.463   9.149  1.00  0.00     0.200 A 
ATOM     19  HN  UNL     1     -46.550 -48.571   8.221  1.00  0.00     0.187 HD
ENDBRANCH  12  13
ENDBRANCH  10  12
ENDBRANCH   1  10
BRANCH   8  20
HETATM   20  C   UNL     1     -39.556 -50.300  12.734  1.00  0.00     0.009 C 
HETATM   21  C   UNL     1     -39.069 -48.830  12.860  1.00  0.00     0.007 C 
HETATM   22  C   UNL     1     -37.633 -49.389  12.925  1.00  0.00     0.001 C 
HETATM   23  C   UNL     1     -38.153 -50.612  12.143  1.00  0.00     0.007 C 
ENDBRANCH   8  20
TORSDOF 4
ENDMDL
MODEL 4
REMARK VINA RESULT:      -5.6      1.555      2.075
REMARK  4 active torsions:
REMARK  status: ('A' for Active; 'I' for Inactive)
REMARK    1  A    between atoms: C_2  and  C_3 
REMARK    2  A    between atoms: C_2  and  N_11 
REMARK    3  A    between atoms: C_3  and  N_4 
REMARK       I    between atoms: N_11  and  C_12 
REMARK       I    between atoms: C_12  and  N_14 
REMARK    4  A    between atoms: C_18  and  C_19 
ROOT
HETATM    1  N   UNL     1     -42.194 -50.650  12.321  1.00  0.00    -0.337 N 
HETATM    2  C   UNL     1     -43.247 -50.365  13.145  1.00  0.00     0.319 C 
HETATM    3  O   UNL     1     -43.352 -49.282  13.712  1.00  0.00    -0.247 OA
HETATM    4  N   UNL     1     -44.204 -51.345  13.242  1.00  0.00    -0.329 N 
HETATM    5  C   UNL     1     -45.497 -51.029  13.829  1.00  0.00     0.128 C 
HETATM    6  C   UNL     1     -46.388 -52.236  13.546  1.00  0.00     0.022 C 
HETATM    7  C   UNL     1     -45.564 -53.132  12.619  1.00  0.00     0.027 C 
HETATM    8  C   UNL     1     -44.115 -52.770  12.938  1.00  0.00     0.093 C 
HETATM    9  H   UNL     1     -42.350 -51.375  11.640  1.00  0.00     0.164 HD
ENDROOT
BRANCH   1  10
HETATM   10  C   UNL     1     -41.122 -49.681  12.055  1.00  0.00     0.100 C 
HETATM   11  C   UNL     1     -39.781 -50.421  12.093  1.00  0.00     0.034 C 
BRANCH  10  12
HETATM   12  C   UNL     1     -41.314 -48.926  10.717  1.00  0.00     0.155 C 
BRANCH  12  13
HETATM   13  N   UNL     1     -42.197 -47.785  10.806  1.00  0.00    -0.335 N 
HETATM   14  C   UNL     1     -42.085 -46.730  11.658  1.00  0.00     0.200 A 
HETATM   15  N   UNL     1     -43.089 -45.905  11.460  1.00  0.00    -0.295 N 
HETATM   16  N   UNL     1     -43.887 -46.445  10.476  1.00  0.00    -0.295 N 
ATOM     17  HN  UNL     1     -43.248 -45.023  11.947  1.00  0.00     0.187 HD
HETATM   18  C   UNL     1     -43.346 -47.583  10.107  1.00  0.00     0.200 A 
ATOM     19  HN  UNL     1     -44.743 -46.035  10.102  1.00  0.00     0.187 HD
ENDBRANCH  12  13
ENDBRANCH  10  12
ENDBRANCH   1  10
BRANCH   8  20
HETATM   20  C   UNL     1     -43.644 -53.479  14.210  1.00  0.00     0.009 C 
HETATM   21  C   UNL     1     -42.247 -54.159  14.205  1.00  0.00     0.007 C 
HETATM   22  C   UNL     1     -42.865 -55.266  15.084  1.00  0.00     0.001 C 
HETATM   23  C   UNL     1     -44.227 -54.898  14.460  1.00  0.00     0.007 C 
ENDBRANCH   8  20
TORSDOF 4
ENDMDL
MODEL 5
REMARK VINA RESULT:      -5.6      4.088      4.770
REMARK  4 active torsions:
REMARK  status: ('A' for Active; 'I' for Inactive)
REMARK    1  A    between atoms: C_2  and  C_3 
REMARK    2  A    between atoms: C_2  and  N_11 
REMARK    3  A    between atoms: C_3  and  N_4 
REMARK       I    between atoms: N_11  and  C_12 
REMARK       I    between atoms: C_12  and  N_14 
REMARK    4  A    between atoms: C_18  and  C_19 
ROOT
HETATM    1  N   UNL     1     -40.294 -46.468  12.359  1.00  0.00    -0.337 N 
HETATM    2  C   UNL     1     -39.324 -46.274  13.304  1.00  0.00     0.319 C 
HETATM    3  O   UNL     1     -38.838 -45.168  13.515  1.00  0.00    -0.247 OA
HETATM    4  N   UNL     1     -38.983 -47.384  14.037  1.00  0.00    -0.329 N 
HETATM    5  C   UNL     1     -38.207 -47.226  15.257  1.00  0.00     0.128 C 
HETATM    6  C   UNL     1     -38.230 -48.589  15.944  1.00  0.00     0.022 C 
HETATM    7  C   UNL     1     -39.211 -49.431  15.126  1.00  0.00     0.027 C 
HETATM    8  C   UNL     1     -39.181 -48.799  13.737  1.00  0.00     0.093 C 
HETATM    9  H   UNL     1     -40.876 -47.281  12.484  1.00  0.00     0.164 HD
ENDROOT
BRANCH   1  10
HETATM   10  C   UNL     1     -40.821 -45.369  11.539  1.00  0.00     0.100 C 
HETATM   11  C   UNL     1     -39.970 -45.262  10.269  1.00  0.00     0.034 C 
BRANCH  10  12
HETATM   12  C   UNL     1     -42.322 -45.539  11.201  1.00  0.00     0.155 C 
BRANCH  12  13
HETATM   13  N   UNL     1     -42.577 -46.399  10.067  1.00  0.00    -0.335 N 
HETATM   14  C   UNL     1     -43.117 -46.037   8.872  1.00  0.00     0.200 A 
HETATM   15  N   UNL     1     -43.218 -47.098   8.103  1.00  0.00    -0.295 N 
HETATM   16  N   UNL     1     -42.757 -48.180   8.820  1.00  0.00    -0.295 N 
ATOM     17  HN  UNL     1     -43.573 -47.117   7.148  1.00  0.00     0.187 HD
HETATM   18  C   UNL     1     -42.392 -47.745  10.004  1.00  0.00     0.200 A 
ATOM     19  HN  UNL     1     -42.708 -49.144   8.490  1.00  0.00     0.187 HD
ENDBRANCH  12  13
ENDBRANCH  10  12
ENDBRANCH   1  10
BRANCH   8  20
HETATM   20  C   UNL     1     -37.957 -49.273  12.949  1.00  0.00     0.009 C 
HETATM   21  C   UNL     1     -38.093 -49.463  11.413  1.00  0.00     0.007 C 
HETATM   22  C   UNL     1     -37.156 -50.680  11.555  1.00  0.00     0.001 C 
HETATM   23  C   UNL     1     -37.649 -50.795  13.012  1.00  0.00     0.007 C 
ENDBRANCH   8  20
TORSDOF 4
ENDMDL
MODEL 6
REMARK VINA RESULT:      -5.5      3.935      5.356
REMARK  4 active torsions:
REMARK  status: ('A' for Active; 'I' for Inactive)
REMARK    1  A    between atoms: C_2  and  C_3 
REMARK    2  A    between atoms: C_2  and  N_11 
REMARK    3  A    between atoms: C_3  and  N_4 
REMARK       I    between atoms: N_11  and  C_12 
REMARK       I    between atoms: C_12  and  N_14 
REMARK    4  A    between atoms: C_18  and  C_19 
ROOT
HETATM    1  N   UNL     1     -41.943 -51.199  14.366  1.00  0.00    -0.337 N 
HETATM    2  C   UNL     1     -42.584 -51.804  13.321  1.00  0.00     0.319 C 
HETATM    3  O   UNL     1     -42.285 -51.569  12.155  1.00  0.00    -0.247 OA
HETATM    4  N   UNL     1     -43.536 -52.731  13.668  1.00  0.00    -0.329 N 
HETATM    5  C   UNL     1     -44.046 -53.646  12.658  1.00  0.00     0.128 C 
HETATM    6  C   UNL     1     -44.866 -54.686  13.417  1.00  0.00     0.022 C 
HETATM    7  C   UNL     1     -44.615 -54.390  14.897  1.00  0.00     0.027 C 
HETATM    8  C   UNL     1     -44.252 -52.907  14.927  1.00  0.00     0.093 C 
HETATM    9  H   UNL     1     -41.985 -51.682  15.249  1.00  0.00     0.164 HD
ENDROOT
BRANCH   1  10
HETATM   10  C   UNL     1     -40.852 -50.235  14.166  1.00  0.00     0.100 C 
HETATM   11  C   UNL     1     -40.856 -49.249  15.338  1.00  0.00     0.034 C 
BRANCH  10  12
HETATM   12  C   UNL     1     -39.471 -50.916  14.004  1.00  0.00     0.155 C 
BRANCH  12  13
HETATM   13  N   UNL     1     -38.812 -50.622  12.751  1.00  0.00    -0.335 N 
HETATM   14  C   UNL     1     -37.534 -50.937  12.407  1.00  0.00     0.200 A 
HETATM   15  N   UNL     1     -37.286 -50.482  11.200  1.00  0.00    -0.295 N 
HETATM   16  N   UNL     1     -38.417 -49.834  10.756  1.00  0.00    -0.295 N 
ATOM     17  HN  UNL     1     -36.413 -50.589  10.684  1.00  0.00     0.187 HD
HETATM   18  C   UNL     1     -39.318 -49.913  11.707  1.00  0.00     0.200 A 
ATOM     19  HN  UNL     1     -38.533 -49.376   9.851  1.00  0.00     0.187 HD
ENDBRANCH  12  13
ENDBRANCH  10  12
ENDBRANCH   1  10
BRANCH   8  20
HETATM   20  C   UNL     1     -45.510 -52.037  14.861  1.00  0.00     0.009 C 
HETATM   21  C   UNL     1     -45.709 -50.938  15.941  1.00  0.00     0.007 C 
HETATM   22  C   UNL     1     -47.216 -51.268  15.892  1.00  0.00     0.001 C 
HETATM   23  C   UNL     1     -46.816 -52.677  15.409  1.00  0.00     0.007 C 
ENDBRANCH   8  20
TORSDOF 4
ENDMDL
MODEL 7
REMARK VINA RESULT:      -5.4      3.067      5.221
REMARK  4 active torsions:
REMARK  status: ('A' for Active; 'I' for Inactive)
REMARK    1  A    between atoms: C_2  and  C_3 
REMARK    2  A    between atoms: C_2  and  N_11 
REMARK    3  A    between atoms: C_3  and  N_4 
REMARK       I    between atoms: N_11  and  C_12 
REMARK       I    between atoms: C_12  and  N_14 
REMARK    4  A    between atoms: C_18  and  C_19 
ROOT
HETATM    1  N   UNL     1     -41.917 -50.519  12.912  1.00  0.00    -0.337 N 
HETATM    2  C   UNL     1     -41.948 -51.856  12.628  1.00  0.00     0.319 C 
HETATM    3  O   UNL     1     -41.459 -52.311  11.599  1.00  0.00    -0.247 OA
HETATM    4  N   UNL     1     -42.505 -52.655  13.597  1.00  0.00    -0.329 N 
HETATM    5  C   UNL     1     -42.308 -54.095  13.540  1.00  0.00     0.128 C 
HETATM    6  C   UNL     1     -42.817 -54.637  14.873  1.00  0.00     0.022 C 
HETATM    7  C   UNL     1     -43.123 -53.398  15.717  1.00  0.00     0.027 C 
HETATM    8  C   UNL     1     -43.407 -52.305  14.689  1.00  0.00     0.093 C 
HETATM    9  H   UNL     1     -42.003 -50.273  13.885  1.00  0.00     0.164 HD
ENDROOT
BRANCH   1  10
HETATM   10  C   UNL     1     -41.293 -49.540  12.012  1.00  0.00     0.100 C 
HETATM   11  C   UNL     1     -42.325 -48.455  11.689  1.00  0.00     0.034 C 
BRANCH  10  12
HETATM   12  C   UNL     1     -39.995 -48.931  12.595  1.00  0.00     0.155 C 
BRANCH  12  13
HETATM   13  N   UNL     1     -38.816 -49.738  12.377  1.00  0.00    -0.335 N 
HETATM   14  C   UNL     1     -38.137 -49.894  11.208  1.00  0.00     0.200 A 
HETATM   15  N   UNL     1     -37.136 -50.726  11.397  1.00  0.00    -0.295 N 
HETATM   16  N   UNL     1     -37.178 -51.140  12.709  1.00  0.00    -0.295 N 
ATOM     17  HN  UNL     1     -36.452 -51.012  10.696  1.00  0.00     0.187 HD
HETATM   18  C   UNL     1     -38.203 -50.551  13.279  1.00  0.00     0.200 A 
ATOM     19  HN  UNL     1     -36.529 -51.788  13.157  1.00  0.00     0.187 HD
ENDBRANCH  12  13
ENDBRANCH  10  12
ENDBRANCH   1  10
BRANCH   8  20
HETATM   20  C   UNL     1     -44.837 -52.419  14.154  1.00  0.00     0.009 C 
HETATM   21  C   UNL     1     -45.432 -51.218  13.369  1.00  0.00     0.007 C 
HETATM   22  C   UNL     1     -46.784 -51.547  14.037  1.00  0.00     0.001 C 
HETATM   23  C   UNL     1     -45.976 -52.186  15.185  1.00  0.00     0.007 C 
ENDBRANCH   8  20
TORSDOF 4
ENDMDL
MODEL 8
REMARK VINA RESULT:      -5.3      3.002      3.725
REMARK  4 active torsions:
REMARK  status: ('A' for Active; 'I' for Inactive)
REMARK    1  A    between atoms: C_2  and  C_3 
REMARK    2  A    between atoms: C_2  and  N_11 
REMARK    3  A    between atoms: C_3  and  N_4 
REMARK       I    between atoms: N_11  and  C_12 
REMARK       I    between atoms: C_12  and  N_14 
REMARK    4  A    between atoms: C_18  and  C_19 
ROOT
HETATM    1  N   UNL     1     -41.708 -50.297  14.254  1.00  0.00    -0.337 N 
HETATM    2  C   UNL     1     -43.068 -50.334  14.394  1.00  0.00     0.319 C 
HETATM    3  O   UNL     1     -43.692 -49.410  14.906  1.00  0.00    -0.247 OA
HETATM    4  N   UNL     1     -43.688 -51.440  13.866  1.00  0.00    -0.329 N 
HETATM    5  C   UNL     1     -45.130 -51.434  13.681  1.00  0.00     0.128 C 
HETATM    6  C   UNL     1     -45.448 -52.676  12.852  1.00  0.00     0.022 C 
HETATM    7  C   UNL     1     -44.087 -53.245  12.447  1.00  0.00     0.027 C 
HETATM    8  C   UNL     1     -43.135 -52.750  13.534  1.00  0.00     0.093 C 
HETATM    9  H   UNL     1     -41.322 -50.889  13.536  1.00  0.00     0.164 HD
ENDROOT
BRANCH   1  10
HETATM   10  C   UNL     1     -40.904 -49.152  14.702  1.00  0.00     0.100 C 
HETATM   11  C   UNL     1     -39.707 -49.683  15.497  1.00  0.00     0.034 C 
BRANCH  10  12
HETATM   12  C   UNL     1     -40.450 -48.245  13.533  1.00  0.00     0.155 C 
BRANCH  12  13
HETATM   13  N   UNL     1     -40.153 -48.961  12.312  1.00  0.00    -0.335 N 
HETATM   14  C   UNL     1     -38.952 -49.482  11.942  1.00  0.00     0.200 A 
HETATM   15  N   UNL     1     -39.067 -50.036  10.755  1.00  0.00    -0.295 N 
HETATM   16  N   UNL     1     -40.364 -49.851  10.331  1.00  0.00    -0.295 N 
ATOM     17  HN  UNL     1     -38.329 -50.516  10.242  1.00  0.00     0.187 HD
HETATM   18  C   UNL     1     -40.998 -49.188  11.271  1.00  0.00     0.200 A 
ATOM     19  HN  UNL     1     -40.761 -50.171   9.448  1.00  0.00     0.187 HD
ENDBRANCH  12  13
ENDBRANCH  10  12
ENDBRANCH   1  10
BRANCH   8  20
HETATM   20  C   UNL     1     -43.240 -53.621  14.788  1.00  0.00     0.009 C 
HETATM   21  C   UNL     1     -41.929 -54.103  15.467  1.00  0.00     0.007 C 
HETATM   22  C   UNL     1     -42.661 -55.426  15.772  1.00  0.00     0.001 C 
HETATM   23  C   UNL     1     -43.558 -55.124  14.554  1.00  0.00     0.007 C 
ENDBRANCH   8  20
TORSDOF 4
ENDMDL
MODEL 9
REMARK VINA RESULT:      -5.2      1.942      2.801
REMARK  4 active torsions:
REMARK  status: ('A' for Active; 'I' for Inactive)
REMARK    1  A    between atoms: C_2  and  C_3 
REMARK    2  A    between atoms: C_2  and  N_11 
REMARK    3  A    between atoms: C_3  and  N_4 
REMARK       I    between atoms: N_11  and  C_12 
REMARK       I    between atoms: C_12  and  N_14 
REMARK    4  A    between atoms: C_18  and  C_19 
ROOT
HETATM    1  N   UNL     1     -42.681 -49.166  14.106  1.00  0.00    -0.337 N 
HETATM    2  C   UNL     1     -43.471 -49.622  15.124  1.00  0.00     0.319 C 
HETATM    3  O   UNL     1     -43.351 -49.208  16.272  1.00  0.00    -0.247 OA
HETATM    4  N   UNL     1     -44.442 -50.523  14.761  1.00  0.00    -0.329 N 
HETATM    5  C   UNL     1     -45.520 -50.827  15.689  1.00  0.00     0.128 C 
HETATM    6  C   UNL     1     -46.540 -51.637  14.891  1.00  0.00     0.022 C 
HETATM    7  C   UNL     1     -46.041 -51.591  13.445  1.00  0.00     0.027 C 
HETATM    8  C   UNL     1     -44.536 -51.366  13.574  1.00  0.00     0.093 C 
HETATM    9  H   UNL     1     -43.055 -49.270  13.176  1.00  0.00     0.164 HD
ENDROOT
BRANCH   1  10
HETATM   10  C   UNL     1     -41.642 -48.148  14.314  1.00  0.00     0.100 C 
HETATM   11  C   UNL     1     -40.292 -48.858  14.460  1.00  0.00     0.034 C 
BRANCH  10  12
HETATM   12  C   UNL     1     -41.605 -47.088  13.187  1.00  0.00     0.155 C 
BRANCH  12  13
HETATM   13  N   UNL     1     -41.884 -47.618  11.871  1.00  0.00    -0.335 N 
HETATM   14  C   UNL     1     -40.992 -48.185  11.013  1.00  0.00     0.200 A 
HETATM   15  N   UNL     1     -41.612 -48.522   9.904  1.00  0.00    -0.295 N 
HETATM   16  N   UNL     1     -42.930 -48.144  10.030  1.00  0.00    -0.295 N 
ATOM     17  HN  UNL     1     -41.192 -48.980   9.096  1.00  0.00     0.187 HD
HETATM   18  C   UNL     1     -43.072 -47.587  11.210  1.00  0.00     0.200 A 
ATOM     19  HN  UNL     1     -43.663 -48.274   9.333  1.00  0.00     0.187 HD
ENDBRANCH  12  13
ENDBRANCH  10  12
ENDBRANCH   1  10
BRANCH   8  20
HETATM   20  C   UNL     1     -43.815 -52.679  13.889  1.00  0.00     0.009 C 
HETATM   21  C   UNL     1     -42.276 -52.746  13.686  1.00  0.00     0.007 C 
HETATM   22  C   UNL     1     -42.477 -54.199  13.208  1.00  0.00     0.001 C 
HETATM   23  C   UNL     1     -43.909 -53.790  12.806  1.00  0.00     0.007 C 
ENDBRANCH   8  20
TORSDOF 4
ENDMDL
