MODEL 1
REMARK VINA RESULT:      -5.5      0.000      0.000
REMARK  5 active torsions:
REMARK  status: ('A' for Active; 'I' for Inactive)
REMARK    1  A    between atoms: C_2  and  N_3 
REMARK    2  A    between atoms: C_7  and  N_9 
REMARK    3  A    between atoms: N_9  and  S_10 
REMARK    4  A    between atoms: S_10  and  C_13 
REMARK    5  A    between atoms: C_13  and  C_14 
ROOT
HETATM    1  N   UNL     1     -39.344 -51.924  12.466  1.00  0.00    -0.213 NA
HETATM    2  H   UNL     1     -39.798 -51.552  11.623  1.00  0.00     0.140 HD
ENDROOT
BRANCH   1   3
HETATM    3  C   UNL     1     -40.321 -52.075  13.582  1.00  0.00     0.105 C 
HETATM    4  C   UNL     1     -40.471 -53.540  14.044  1.00  0.00     0.030 C 
HETATM    5  C   UNL     1     -41.693 -54.094  13.294  1.00  0.00     0.278 C 
HETATM    6  C   UNL     1     -39.263 -54.460  13.956  1.00  0.00     0.013 C 
HETATM    7  N   UNL     1     -42.251 -52.972  12.538  1.00  0.00     0.090 N 
HETATM    8  C   UNL     1     -41.765 -51.745  13.188  1.00  0.00     0.293 C 
BRANCH   7   9
HETATM    9  C   UNL     1     -43.717 -52.968  12.465  1.00  0.00     0.268 C 
HETATM   10  C   UNL     1     -44.358 -54.196  13.096  1.00  0.00     0.037 C 
ENDBRANCH   7   9
ENDBRANCH   1   3
BRANCH   1  11
HETATM   11  S   UNL     1     -37.904 -51.050  12.717  1.00  0.00     0.215 S 
HETATM   12  O   UNL     1     -37.970 -50.601  14.091  1.00  0.00    -0.211 OA
HETATM   13  O   UNL     1     -36.809 -51.883  12.274  1.00  0.00    -0.211 OA
BRANCH  11  14
HETATM   14  C   UNL     1     -38.046 -49.613  11.638  1.00  0.00     0.216 C 
BRANCH  14  15
HETATM   15  C   UNL     1     -39.454 -49.139  11.532  1.00  0.00     0.049 A 
HETATM   16  C   UNL     1     -40.153 -48.204  12.331  1.00  0.00     0.054 A 
HETATM   17  C   UNL     1     -41.411 -48.166  11.795  1.00  0.00     0.169 A 
HETATM   18  O   UNL     1     -41.484 -49.033  10.756  1.00  0.00    -0.250 OA
HETATM   19  N   UNL     1     -40.261 -49.659  10.594  1.00  0.00    -0.265 N 
ATOM     20  HN  UNL     1     -40.021 -50.370   9.903  1.00  0.00     0.194 HD
ENDBRANCH  14  15
ENDBRANCH  11  14
ENDBRANCH   1  11
TORSDOF 5
ENDMDL
MODEL 2
REMARK VINA RESULT:      -5.2      3.694      5.212
REMARK  5 active torsions:
REMARK  status: ('A' for Active; 'I' for Inactive)
REMARK    1  A    between atoms: C_2  and  N_3 
REMARK    2  A    between atoms: C_7  and  N_9 
REMARK    3  A    between atoms: N_9  and  S_10 
REMARK    4  A    between atoms: S_10  and  C_13 
REMARK    5  A    between atoms: C_13  and  C_14 
ROOT
HETATM    1  N   UNL     1     -41.866 -49.008  10.779  1.00  0.00    -0.213 NA
HETATM    2  H   UNL     1     -42.420 -49.695  10.253  1.00  0.00     0.140 HD
ENDROOT
BRANCH   1   3
HETATM    3  C   UNL     1     -41.698 -49.428  12.200  1.00  0.00     0.105 C 
HETATM    4  C   UNL     1     -40.240 -49.810  12.536  1.00  0.00     0.030 C 
HETATM    5  C   UNL     1     -40.161 -51.337  12.386  1.00  0.00     0.278 C 
HETATM    6  C   UNL     1     -39.112 -49.090  11.811  1.00  0.00     0.013 C 
HETATM    7  N   UNL     1     -41.520 -51.788  12.084  1.00  0.00     0.090 N 
HETATM    8  C   UNL     1     -42.427 -50.728  12.551  1.00  0.00     0.293 C 
BRANCH   7   9
HETATM    9  C   UNL     1     -41.875 -53.074  12.697  1.00  0.00     0.268 C 
HETATM   10  C   UNL     1     -40.681 -53.815  13.284  1.00  0.00     0.037 C 
ENDBRANCH   7   9
ENDBRANCH   1   3
BRANCH   1  11
HETATM   11  S   UNL     1     -42.475 -47.457  10.423  1.00  0.00     0.215 S 
HETATM   12  O   UNL     1     -43.495 -47.214  11.421  1.00  0.00    -0.211 OA
HETATM   13  O   UNL     1     -41.344 -46.565  10.305  1.00  0.00    -0.211 OA
BRANCH  11  14
HETATM   14  C   UNL     1     -43.274 -47.636   8.818  1.00  0.00     0.216 C 
BRANCH  14  15
HETATM   15  C   UNL     1     -44.723 -47.297   8.881  1.00  0.00     0.049 A 
HETATM   16  C   UNL     1     -45.847 -48.153   8.941  1.00  0.00     0.054 A 
HETATM   17  C   UNL     1     -46.922 -47.307   8.965  1.00  0.00     0.169 A 
HETATM   18  O   UNL     1     -46.488 -46.026   8.901  1.00  0.00    -0.250 OA
HETATM   19  N   UNL     1     -45.106 -46.012   8.834  1.00  0.00    -0.265 N 
ATOM     20  HN  UNL     1     -44.503 -45.193   8.763  1.00  0.00     0.194 HD
ENDBRANCH  14  15
ENDBRANCH  11  14
ENDBRANCH   1  11
TORSDOF 5
ENDMDL
MODEL 3
REMARK VINA RESULT:      -5.1      2.383      3.148
REMARK  5 active torsions:
REMARK  status: ('A' for Active; 'I' for Inactive)
REMARK    1  A    between atoms: C_2  and  N_3 
REMARK    2  A    between atoms: C_7  and  N_9 
REMARK    3  A    between atoms: N_9  and  S_10 
REMARK    4  A    between atoms: S_10  and  C_13 
REMARK    5  A    between atoms: C_13  and  C_14 
ROOT
HETATM    1  N   UNL     1     -42.268 -50.762  12.050  1.00  0.00    -0.213 NA
HETATM    2  H   UNL     1     -43.010 -50.321  11.494  1.00  0.00     0.140 HD
ENDROOT
BRANCH   1   3
HETATM    3  C   UNL     1     -42.794 -51.262  13.353  1.00  0.00     0.105 C 
HETATM    4  C   UNL     1     -42.667 -52.793  13.495  1.00  0.00     0.030 C 
HETATM    5  C   UNL     1     -44.026 -53.370  13.063  1.00  0.00     0.278 C 
HETATM    6  C   UNL     1     -41.494 -53.494  12.824  1.00  0.00     0.013 C 
HETATM    7  N   UNL     1     -44.890 -52.218  12.795  1.00  0.00     0.090 N 
HETATM    8  C   UNL     1     -44.306 -51.078  13.519  1.00  0.00     0.293 C 
BRANCH   7   9
HETATM    9  C   UNL     1     -46.289 -52.415  13.191  1.00  0.00     0.268 C 
HETATM   10  C   UNL     1     -46.750 -51.461  14.285  1.00  0.00     0.037 C 
ENDBRANCH   7   9
ENDBRANCH   1   3
BRANCH   1  11
HETATM   11  S   UNL     1     -40.910 -49.733  12.027  1.00  0.00     0.215 S 
HETATM   12  O   UNL     1     -40.279 -49.912  13.317  1.00  0.00    -0.211 OA
HETATM   13  O   UNL     1     -40.177 -50.010  10.813  1.00  0.00    -0.211 OA
BRANCH  11  14
HETATM   14  C   UNL     1     -41.599 -48.069  11.952  1.00  0.00     0.216 C 
BRANCH  14  15
HETATM   15  C   UNL     1     -42.468 -47.884  10.757  1.00  0.00     0.049 A 
HETATM   16  C   UNL     1     -43.825 -47.492  10.681  1.00  0.00     0.054 A 
HETATM   17  C   UNL     1     -44.111 -47.503   9.343  1.00  0.00     0.169 A 
HETATM   18  O   UNL     1     -43.015 -47.895   8.651  1.00  0.00    -0.250 OA
HETATM   19  N   UNL     1     -41.981 -48.149   9.535  1.00  0.00    -0.265 N 
ATOM     20  HN  UNL     1     -41.041 -48.473   9.304  1.00  0.00     0.194 HD
ENDBRANCH  14  15
ENDBRANCH  11  14
ENDBRANCH   1  11
TORSDOF 5
ENDMDL
MODEL 4
REMARK VINA RESULT:      -5.0      3.134      4.023
REMARK  5 active torsions:
REMARK  status: ('A' for Active; 'I' for Inactive)
REMARK    1  A    between atoms: C_2  and  N_3 
REMARK    2  A    between atoms: C_7  and  N_9 
REMARK    3  A    between atoms: N_9  and  S_10 
REMARK    4  A    between atoms: S_10  and  C_13 
REMARK    5  A    between atoms: C_13  and  C_14 
ROOT
HETATM    1  N   UNL     1     -43.254 -49.971  12.289  1.00  0.00    -0.213 NA
HETATM    2  H   UNL     1     -44.231 -49.695  12.138  1.00  0.00     0.140 HD
ENDROOT
BRANCH   1   3
HETATM    3  C   UNL     1     -43.138 -50.964  13.396  1.00  0.00     0.105 C 
HETATM    4  C   UNL     1     -42.470 -52.279  12.944  1.00  0.00     0.030 C 
HETATM    5  C   UNL     1     -43.620 -53.239  12.600  1.00  0.00     0.278 C 
HETATM    6  C   UNL     1     -41.410 -52.222  11.853  1.00  0.00     0.013 C 
HETATM    7  N   UNL     1     -44.856 -52.531  12.940  1.00  0.00     0.090 N 
HETATM    8  C   UNL     1     -44.487 -51.482  13.903  1.00  0.00     0.293 C 
BRANCH   7   9
HETATM    9  C   UNL     1     -45.905 -53.393  13.498  1.00  0.00     0.268 C 
HETATM   10  C   UNL     1     -45.415 -54.788  13.861  1.00  0.00     0.037 C 
ENDBRANCH   7   9
ENDBRANCH   1   3
BRANCH   1  11
HETATM   11  S   UNL     1     -42.307 -48.554  12.323  1.00  0.00     0.215 S 
HETATM   12  O   UNL     1     -43.175 -47.534  12.872  1.00  0.00    -0.211 OA
HETATM   13  O   UNL     1     -41.062 -48.881  12.980  1.00  0.00    -0.211 OA
BRANCH  11  14
HETATM   14  C   UNL     1     -41.995 -48.170  10.591  1.00  0.00     0.216 C 
BRANCH  14  15
HETATM   15  C   UNL     1     -43.164 -47.504   9.953  1.00  0.00     0.049 A 
HETATM   16  C   UNL     1     -43.210 -46.348   9.139  1.00  0.00     0.054 A 
HETATM   17  C   UNL     1     -44.537 -46.184   8.849  1.00  0.00     0.169 A 
HETATM   18  O   UNL     1     -45.255 -47.156   9.461  1.00  0.00    -0.250 OA
HETATM   19  N   UNL     1     -44.400 -47.983  10.168  1.00  0.00    -0.265 N 
ATOM     20  HN  UNL     1     -44.656 -48.790  10.737  1.00  0.00     0.194 HD
ENDBRANCH  14  15
ENDBRANCH  11  14
ENDBRANCH   1  11
TORSDOF 5
ENDMDL
MODEL 5
REMARK VINA RESULT:      -4.9      4.327      6.148
REMARK  5 active torsions:
REMARK  status: ('A' for Active; 'I' for Inactive)
REMARK    1  A    between atoms: C_2  and  N_3 
REMARK    2  A    between atoms: C_7  and  N_9 
REMARK    3  A    between atoms: N_9  and  S_10 
REMARK    4  A    between atoms: S_10  and  C_13 
REMARK    5  A    between atoms: C_13  and  C_14 
ROOT
HETATM    1  N   UNL     1     -44.367 -52.928  14.502  1.00  0.00    -0.213 NA
HETATM    2  H   UNL     1     -43.776 -52.776  15.328  1.00  0.00     0.140 HD
ENDROOT
BRANCH   1   3
HETATM    3  C   UNL     1     -45.755 -53.304  14.893  1.00  0.00     0.105 C 
HETATM    4  C   UNL     1     -46.804 -52.276  14.419  1.00  0.00     0.030 C 
HETATM    5  C   UNL     1     -47.040 -51.335  15.612  1.00  0.00     0.278 C 
HETATM    6  C   UNL     1     -46.552 -51.523  13.121  1.00  0.00     0.013 C 
HETATM    7  N   UNL     1     -46.244 -51.873  16.718  1.00  0.00     0.090 N 
HETATM    8  C   UNL     1     -45.996 -53.289  16.406  1.00  0.00     0.293 C 
BRANCH   7   9
HETATM    9  C   UNL     1     -46.882 -51.742  18.033  1.00  0.00     0.268 C 
HETATM   10  C   UNL     1     -48.241 -51.057  17.982  1.00  0.00     0.037 C 
ENDBRANCH   7   9
ENDBRANCH   1   3
BRANCH   1  11
HETATM   11  S   UNL     1     -43.501 -53.909  13.411  1.00  0.00     0.215 S 
HETATM   12  O   UNL     1     -42.806 -54.871  14.239  1.00  0.00    -0.211 OA
HETATM   13  O   UNL     1     -44.432 -54.357  12.399  1.00  0.00    -0.211 OA
BRANCH  11  14
HETATM   14  C   UNL     1     -42.285 -52.807  12.668  1.00  0.00     0.216 C 
BRANCH  14  15
HETATM   15  C   UNL     1     -40.915 -53.059  13.197  1.00  0.00     0.049 A 
HETATM   16  C   UNL     1     -40.058 -52.202  13.926  1.00  0.00     0.054 A 
HETATM   17  C   UNL     1     -38.927 -52.943  14.133  1.00  0.00     0.169 A 
HETATM   18  O   UNL     1     -39.072 -54.158  13.552  1.00  0.00    -0.250 OA
HETATM   19  N   UNL     1     -40.314 -54.234  12.949  1.00  0.00    -0.265 N 
ATOM     20  HN  UNL     1     -40.696 -55.020  12.424  1.00  0.00     0.194 HD
ENDBRANCH  14  15
ENDBRANCH  11  14
ENDBRANCH   1  11
TORSDOF 5
ENDMDL
MODEL 6
REMARK VINA RESULT:      -4.7      2.444      3.594
REMARK  5 active torsions:
REMARK  status: ('A' for Active; 'I' for Inactive)
REMARK    1  A    between atoms: C_2  and  N_3 
REMARK    2  A    between atoms: C_7  and  N_9 
REMARK    3  A    between atoms: N_9  and  S_10 
REMARK    4  A    between atoms: S_10  and  C_13 
REMARK    5  A    between atoms: C_13  and  C_14 
ROOT
HETATM    1  N   UNL     1     -41.736 -52.067  13.935  1.00  0.00    -0.213 NA
HETATM    2  H   UNL     1     -41.950 -52.163  14.935  1.00  0.00     0.140 HD
ENDROOT
BRANCH   1   3
HETATM    3  C   UNL     1     -42.974 -52.155  13.107  1.00  0.00     0.105 C 
HETATM    4  C   UNL     1     -44.003 -51.061  13.463  1.00  0.00     0.030 C 
HETATM    5  C   UNL     1     -44.978 -51.709  14.459  1.00  0.00     0.278 C 
HETATM    6  C   UNL     1     -43.495 -49.707  13.938  1.00  0.00     0.013 C 
HETATM    7  N   UNL     1     -44.574 -53.112  14.571  1.00  0.00     0.090 N 
HETATM    8  C   UNL     1     -43.797 -53.422  13.361  1.00  0.00     0.293 C 
BRANCH   7   9
HETATM    9  C   UNL     1     -45.695 -54.048  14.715  1.00  0.00     0.268 C 
HETATM   10  C   UNL     1     -45.579 -55.275  13.820  1.00  0.00     0.037 C 
ENDBRANCH   7   9
ENDBRANCH   1   3
BRANCH   1  11
HETATM   11  S   UNL     1     -40.411 -53.077  13.581  1.00  0.00     0.215 S 
HETATM   12  O   UNL     1     -40.525 -54.186  14.504  1.00  0.00    -0.211 OA
HETATM   13  O   UNL     1     -40.415 -53.314  12.155  1.00  0.00    -0.211 OA
BRANCH  11  14
HETATM   14  C   UNL     1     -38.962 -52.105  14.029  1.00  0.00     0.216 C 
BRANCH  14  15
HETATM   15  C   UNL     1     -38.587 -51.144  12.955  1.00  0.00     0.049 A 
HETATM   16  C   UNL     1     -37.314 -50.852  12.411  1.00  0.00     0.054 A 
HETATM   17  C   UNL     1     -37.556 -49.886  11.472  1.00  0.00     0.169 A 
HETATM   18  O   UNL     1     -38.878 -49.592  11.459  1.00  0.00    -0.250 OA
HETATM   19  N   UNL     1     -39.531 -50.370  12.398  1.00  0.00    -0.265 N 
ATOM     20  HN  UNL     1     -40.526 -50.357  12.622  1.00  0.00     0.194 HD
ENDBRANCH  14  15
ENDBRANCH  11  14
ENDBRANCH   1  11
TORSDOF 5
ENDMDL
MODEL 7
REMARK VINA RESULT:      -4.7      2.164      5.240
REMARK  5 active torsions:
REMARK  status: ('A' for Active; 'I' for Inactive)
REMARK    1  A    between atoms: C_2  and  N_3 
REMARK    2  A    between atoms: C_7  and  N_9 
REMARK    3  A    between atoms: N_9  and  S_10 
REMARK    4  A    between atoms: S_10  and  C_13 
REMARK    5  A    between atoms: C_13  and  C_14 
ROOT
HETATM    1  N   UNL     1     -40.346 -50.774  12.949  1.00  0.00    -0.213 NA
HETATM    2  H   UNL     1     -41.321 -50.504  13.126  1.00  0.00     0.140 HD
ENDROOT
BRANCH   1   3
HETATM    3  C   UNL     1     -39.832 -50.149  11.696  1.00  0.00     0.105 C 
HETATM    4  C   UNL     1     -38.798 -49.037  11.969  1.00  0.00     0.030 C 
HETATM    5  C   UNL     1     -39.585 -47.717  11.954  1.00  0.00     0.278 C 
HETATM    6  C   UNL     1     -37.894 -49.165  13.187  1.00  0.00     0.013 C 
HETATM    7  N   UNL     1     -40.960 -48.067  11.591  1.00  0.00     0.090 N 
HETATM    8  C   UNL     1     -40.896 -49.371  10.913  1.00  0.00     0.293 C 
BRANCH   7   9
HETATM    9  C   UNL     1     -41.624 -47.077  10.734  1.00  0.00     0.268 C 
HETATM   10  C   UNL     1     -42.668 -47.681   9.805  1.00  0.00     0.037 C 
ENDBRANCH   7   9
ENDBRANCH   1   3
BRANCH   1  11
HETATM   11  S   UNL     1     -40.220 -52.459  13.164  1.00  0.00     0.215 S 
HETATM   12  O   UNL     1     -40.571 -53.031  11.882  1.00  0.00    -0.211 OA
HETATM   13  O   UNL     1     -38.926 -52.725  13.751  1.00  0.00    -0.211 OA
BRANCH  11  14
HETATM   14  C   UNL     1     -41.516 -52.867  14.348  1.00  0.00     0.216 C 
BRANCH  14  15
HETATM   15  C   UNL     1     -42.791 -53.229  13.668  1.00  0.00     0.049 A 
HETATM   16  C   UNL     1     -43.666 -54.313  13.911  1.00  0.00     0.054 A 
HETATM   17  C   UNL     1     -44.664 -54.163  12.987  1.00  0.00     0.169 A 
HETATM   18  O   UNL     1     -44.406 -53.077  12.218  1.00  0.00    -0.250 OA
HETATM   19  N   UNL     1     -43.222 -52.492  12.632  1.00  0.00    -0.265 N 
ATOM     20  HN  UNL     1     -42.770 -51.671  12.231  1.00  0.00     0.194 HD
ENDBRANCH  14  15
ENDBRANCH  11  14
ENDBRANCH   1  11
TORSDOF 5
ENDMDL
MODEL 8
REMARK VINA RESULT:      -4.7      3.171      4.850
REMARK  5 active torsions:
REMARK  status: ('A' for Active; 'I' for Inactive)
REMARK    1  A    between atoms: C_2  and  N_3 
REMARK    2  A    between atoms: C_7  and  N_9 
REMARK    3  A    between atoms: N_9  and  S_10 
REMARK    4  A    between atoms: S_10  and  C_13 
REMARK    5  A    between atoms: C_13  and  C_14 
ROOT
HETATM    1  N   UNL     1     -42.106 -53.304  13.568  1.00  0.00    -0.213 NA
HETATM    2  H   UNL     1     -42.700 -53.668  12.813  1.00  0.00     0.140 HD
ENDROOT
BRANCH   1   3
HETATM    3  C   UNL     1     -42.926 -52.843  14.725  1.00  0.00     0.105 C 
HETATM    4  C   UNL     1     -43.481 -54.016  15.562  1.00  0.00     0.030 C 
HETATM    5  C   UNL     1     -44.902 -54.272  15.036  1.00  0.00     0.278 C 
HETATM    6  C   UNL     1     -42.656 -55.291  15.667  1.00  0.00     0.013 C 
HETATM    7  N   UNL     1     -45.159 -53.235  14.035  1.00  0.00     0.090 N 
HETATM    8  C   UNL     1     -44.223 -52.137  14.319  1.00  0.00     0.293 C 
BRANCH   7   9
HETATM    9  C   UNL     1     -46.542 -52.742  14.026  1.00  0.00     0.268 C 
HETATM   10  C   UNL     1     -46.751 -51.509  14.895  1.00  0.00     0.037 C 
ENDBRANCH   7   9
ENDBRANCH   1   3
BRANCH   1  11
HETATM   11  S   UNL     1     -40.959 -52.252  12.874  1.00  0.00     0.215 S 
HETATM   12  O   UNL     1     -40.499 -52.929  11.680  1.00  0.00    -0.211 OA
HETATM   13  O   UNL     1     -41.570 -50.946  12.781  1.00  0.00    -0.211 OA
BRANCH  11  14
HETATM   14  C   UNL     1     -39.605 -52.203  14.062  1.00  0.00     0.216 C 
BRANCH  14  15
HETATM   15  C   UNL     1     -39.299 -53.555  14.607  1.00  0.00     0.049 A 
HETATM   16  C   UNL     1     -39.153 -53.974  15.950  1.00  0.00     0.054 A 
HETATM   17  C   UNL     1     -38.861 -55.308  15.865  1.00  0.00     0.169 A 
HETATM   18  O   UNL     1     -38.808 -55.674  14.561  1.00  0.00    -0.250 OA
HETATM   19  N   UNL     1     -39.069 -54.574  13.764  1.00  0.00    -0.265 N 
ATOM     20  HN  UNL     1     -39.084 -54.544  12.745  1.00  0.00     0.194 HD
ENDBRANCH  14  15
ENDBRANCH  11  14
ENDBRANCH   1  11
TORSDOF 5
ENDMDL
MODEL 9
REMARK VINA RESULT:      -4.6      2.432      5.405
REMARK  5 active torsions:
REMARK  status: ('A' for Active; 'I' for Inactive)
REMARK    1  A    between atoms: C_2  and  N_3 
REMARK    2  A    between atoms: C_7  and  N_9 
REMARK    3  A    between atoms: N_9  and  S_10 
REMARK    4  A    between atoms: S_10  and  C_13 
REMARK    5  A    between atoms: C_13  and  C_14 
ROOT
HETATM    1  N   UNL     1     -41.418 -51.414  12.731  1.00  0.00    -0.213 NA
HETATM    2  H   UNL     1     -41.059 -51.491  11.771  1.00  0.00     0.140 HD
ENDROOT
BRANCH   1   3
HETATM    3  C   UNL     1     -41.432 -49.995  13.189  1.00  0.00     0.105 C 
HETATM    4  C   UNL     1     -42.863 -49.455  13.399  1.00  0.00     0.030 C 
HETATM    5  C   UNL     1     -43.233 -48.728  12.096  1.00  0.00     0.278 C 
HETATM    6  C   UNL     1     -43.946 -50.419  13.860  1.00  0.00     0.013 C 
HETATM    7  N   UNL     1     -42.039 -48.774  11.251  1.00  0.00     0.090 N 
HETATM    8  C   UNL     1     -40.897 -49.006  12.149  1.00  0.00     0.293 C 
BRANCH   7   9
HETATM    9  C   UNL     1     -41.824 -47.561  10.451  1.00  0.00     0.268 C 
HETATM   10  C   UNL     1     -42.332 -46.294  11.124  1.00  0.00     0.037 C 
ENDBRANCH   7   9
ENDBRANCH   1   3
BRANCH   1  11
HETATM   11  S   UNL     1     -40.643 -52.600  13.678  1.00  0.00     0.215 S 
HETATM   12  O   UNL     1     -39.268 -52.603  13.228  1.00  0.00    -0.211 OA
HETATM   13  O   UNL     1     -40.956 -52.321  15.062  1.00  0.00    -0.211 OA
BRANCH  11  14
HETATM   14  C   UNL     1     -41.411 -54.154  13.186  1.00  0.00     0.216 C 
BRANCH  14  15
HETATM   15  C   UNL     1     -42.897 -54.050  13.154  1.00  0.00     0.049 A 
HETATM   16  C   UNL     1     -43.850 -54.466  14.112  1.00  0.00     0.054 A 
HETATM   17  C   UNL     1     -45.058 -54.142  13.558  1.00  0.00     0.169 A 
HETATM   18  O   UNL     1     -44.859 -53.587  12.338  1.00  0.00    -0.250 OA
HETATM   19  N   UNL     1     -43.503 -53.539  12.070  1.00  0.00    -0.265 N 
ATOM     20  HN  UNL     1     -43.055 -53.188  11.224  1.00  0.00     0.194 HD
ENDBRANCH  14  15
ENDBRANCH  11  14
ENDBRANCH   1  11
TORSDOF 5
ENDMDL
