MODEL 1
REMARK VINA RESULT:      -6.2      0.000      0.000
REMARK  5 active torsions:
REMARK  status: ('A' for Active; 'I' for Inactive)
REMARK    1  A    between atoms: C_2  and  C_3 
REMARK    2  A    between atoms: C_2  and  N_5 
REMARK    3  A    between atoms: C_2  and  C_16 
REMARK    4  A    between atoms: C_3  and  O_4 
REMARK       I    between atoms: N_5  and  C_6 
REMARK       I    between atoms: C_6  and  N_8 
REMARK    5  A    between atoms: N_8  and  C_9 
ROOT
HETATM    1  N   UNL     1     -44.154 -50.784  12.711  1.00  0.00    -0.331 N 
HETATM    2  C   UNL     1     -42.792 -50.873  12.516  1.00  0.00     0.322 C 
HETATM    3  O   UNL     1     -42.125 -51.804  12.937  1.00  0.00    -0.247 OA
HETATM    4  N   UNL     1     -42.301 -49.806  11.806  1.00  0.00    -0.288 N 
HETATM    5  H   UNL     1     -44.582 -49.876  12.622  1.00  0.00     0.165 HD
HETATM    6  H   UNL     1     -42.916 -49.250  11.237  1.00  0.00     0.172 HD
ENDROOT
BRANCH   1   7
HETATM    7  C   UNL     1     -44.912 -51.818  13.483  1.00  0.00     0.055 C 
HETATM    8  C   UNL     1     -46.416 -51.521  13.297  1.00  0.00     0.041 C 
BRANCH   7   9
HETATM    9  C   UNL     1     -44.666 -53.224  12.829  1.00  0.00     0.195 C 
BRANCH   9  10
HETATM   10  O   UNL     1     -45.882 -53.980  12.742  1.00  0.00    -0.398 OA
HETATM   11  H   UNL     1     -45.674 -54.814  12.289  1.00  0.00     0.209 HD
ENDBRANCH   9  10
ENDBRANCH   7   9
BRANCH   7  12
HETATM   12  C   UNL     1     -44.439 -51.816  15.001  1.00  0.00     0.015 C 
HETATM   13  C   UNL     1     -44.453 -53.159  15.754  1.00  0.00     0.007 C 
HETATM   14  C   UNL     1     -45.797 -53.566  16.348  1.00  0.00     0.000 C 
HETATM   15  C   UNL     1     -46.523 -52.451  17.093  1.00  0.00     0.000 C 
HETATM   16  C   UNL     1     -46.461 -51.081  16.429  1.00  0.00     0.000 C 
HETATM   17  C   UNL     1     -45.076 -50.735  15.902  1.00  0.00     0.007 C 
ENDBRANCH   7  12
ENDBRANCH   1   7
BRANCH   4  18
HETATM   18  C   UNL     1     -40.949 -49.702  11.589  1.00  0.00     0.168 A 
HETATM   19  N   UNL     1     -40.215 -50.214  10.629  1.00  0.00    -0.279 N 
HETATM   20  N   UNL     1     -38.885 -49.867  10.750  1.00  0.00    -0.303 N 
ATOM     21  HN  UNL     1     -40.585 -50.801   9.881  1.00  0.00     0.189 HD
HETATM   22  C   UNL     1     -38.680 -49.114  11.810  1.00  0.00     0.160 A 
ATOM     23  HN  UNL     1     -38.154 -50.156  10.100  1.00  0.00     0.186 HD
HETATM   24  S   UNL     1     -40.083 -48.806  12.753  1.00  0.00    -0.046 SA
ENDBRANCH   4  18
TORSDOF 5
ENDMDL
MODEL 2
REMARK VINA RESULT:      -6.1      4.182      5.988
REMARK  5 active torsions:
REMARK  status: ('A' for Active; 'I' for Inactive)
REMARK    1  A    between atoms: C_2  and  C_3 
REMARK    2  A    between atoms: C_2  and  N_5 
REMARK    3  A    between atoms: C_2  and  C_16 
REMARK    4  A    between atoms: C_3  and  O_4 
REMARK       I    between atoms: N_5  and  C_6 
REMARK       I    between atoms: C_6  and  N_8 
REMARK    5  A    between atoms: N_8  and  C_9 
ROOT
HETATM    1  N   UNL     1     -40.744 -49.999  11.128  1.00  0.00    -0.331 N 
HETATM    2  C   UNL     1     -41.689 -48.995  11.113  1.00  0.00     0.322 C 
HETATM    3  O   UNL     1     -42.445 -48.786  12.047  1.00  0.00    -0.247 OA
HETATM    4  N   UNL     1     -41.666 -48.283   9.940  1.00  0.00    -0.288 N 
HETATM    5  H   UNL     1     -40.380 -50.314  10.243  1.00  0.00     0.165 HD
HETATM    6  H   UNL     1     -40.849 -48.295   9.355  1.00  0.00     0.172 HD
ENDROOT
BRANCH   1   7
HETATM    7  C   UNL     1     -40.596 -50.929  12.291  1.00  0.00     0.055 C 
HETATM    8  C   UNL     1     -41.273 -50.259  13.506  1.00  0.00     0.041 C 
BRANCH   7   9
HETATM    9  C   UNL     1     -41.415 -52.237  12.006  1.00  0.00     0.195 C 
BRANCH   9  10
HETATM   10  O   UNL     1     -40.597 -53.243  11.392  1.00  0.00    -0.398 OA
HETATM   11  H   UNL     1     -40.370 -53.892  12.078  1.00  0.00     0.209 HD
ENDBRANCH   9  10
ENDBRANCH   7   9
BRANCH   7  12
HETATM   12  C   UNL     1     -39.059 -51.270  12.519  1.00  0.00     0.015 C 
HETATM   13  C   UNL     1     -38.643 -51.796  13.905  1.00  0.00     0.007 C 
HETATM   14  C   UNL     1     -38.391 -50.729  14.964  1.00  0.00     0.000 C 
HETATM   15  C   UNL     1     -37.544 -49.553  14.488  1.00  0.00     0.000 C 
HETATM   16  C   UNL     1     -37.861 -49.054  13.084  1.00  0.00     0.000 C 
HETATM   17  C   UNL     1     -38.056 -50.180  12.081  1.00  0.00     0.007 C 
ENDBRANCH   7  12
ENDBRANCH   1   7
BRANCH   4  18
HETATM   18  C   UNL     1     -42.596 -47.293   9.731  1.00  0.00     0.168 A 
HETATM   19  N   UNL     1     -42.833 -46.208  10.431  1.00  0.00    -0.279 N 
HETATM   20  N   UNL     1     -43.848 -45.449   9.885  1.00  0.00    -0.303 N 
ATOM     21  HN  UNL     1     -42.326 -45.956  11.279  1.00  0.00     0.189 HD
HETATM   22  C   UNL     1     -44.336 -46.011   8.800  1.00  0.00     0.160 A 
ATOM     23  HN  UNL     1     -44.177 -44.565  10.273  1.00  0.00     0.186 HD
HETATM   24  S   UNL     1     -43.621 -47.518   8.387  1.00  0.00    -0.046 SA
ENDBRANCH   4  18
TORSDOF 5
ENDMDL
MODEL 3
REMARK VINA RESULT:      -6.0      1.706      2.256
REMARK  5 active torsions:
REMARK  status: ('A' for Active; 'I' for Inactive)
REMARK    1  A    between atoms: C_2  and  C_3 
REMARK    2  A    between atoms: C_2  and  N_5 
REMARK    3  A    between atoms: C_2  and  C_16 
REMARK    4  A    between atoms: C_3  and  O_4 
REMARK       I    between atoms: N_5  and  C_6 
REMARK       I    between atoms: C_6  and  N_8 
REMARK    5  A    between atoms: N_8  and  C_9 
ROOT
HETATM    1  N   UNL     1     -42.165 -52.871  13.876  1.00  0.00    -0.331 N 
HETATM    2  C   UNL     1     -41.541 -51.910  13.108  1.00  0.00     0.322 C 
HETATM    3  O   UNL     1     -42.158 -51.088  12.451  1.00  0.00    -0.247 OA
HETATM    4  N   UNL     1     -40.173 -52.000  13.180  1.00  0.00    -0.288 N 
HETATM    5  H   UNL     1     -41.631 -53.686  14.132  1.00  0.00     0.165 HD
HETATM    6  H   UNL     1     -39.736 -52.476  13.949  1.00  0.00     0.172 HD
ENDROOT
BRANCH   1   7
HETATM    7  C   UNL     1     -43.655 -52.990  13.936  1.00  0.00     0.055 C 
HETATM    8  C   UNL     1     -44.110 -53.743  12.668  1.00  0.00     0.041 C 
BRANCH   7   9
HETATM    9  C   UNL     1     -44.044 -53.910  15.147  1.00  0.00     0.195 C 
BRANCH   9  10
HETATM   10  O   UNL     1     -45.077 -54.839  14.787  1.00  0.00    -0.398 OA
HETATM   11  H   UNL     1     -44.691 -55.730  14.822  1.00  0.00     0.209 HD
ENDBRANCH   9  10
ENDBRANCH   7   9
BRANCH   7  12
HETATM   12  C   UNL     1     -44.308 -51.549  14.097  1.00  0.00     0.015 C 
HETATM   13  C   UNL     1     -44.562 -51.037  15.526  1.00  0.00     0.007 C 
HETATM   14  C   UNL     1     -45.858 -51.512  16.174  1.00  0.00     0.000 C 
HETATM   15  C   UNL     1     -47.086 -51.419  15.275  1.00  0.00     0.000 C 
HETATM   16  C   UNL     1     -46.860 -51.833  13.827  1.00  0.00     0.000 C 
HETATM   17  C   UNL     1     -45.568 -51.283  13.243  1.00  0.00     0.007 C 
ENDBRANCH   7  12
ENDBRANCH   1   7
BRANCH   4  18
HETATM   18  C   UNL     1     -39.399 -51.162  12.413  1.00  0.00     0.168 A 
HETATM   19  N   UNL     1     -39.668 -50.598  11.260  1.00  0.00    -0.279 N 
HETATM   20  N   UNL     1     -38.631 -49.806  10.814  1.00  0.00    -0.303 N 
ATOM     21  HN  UNL     1     -40.543 -50.730  10.752  1.00  0.00     0.189 HD
HETATM   22  C   UNL     1     -37.619 -49.823  11.655  1.00  0.00     0.160 A 
ATOM     23  HN  UNL     1     -38.646 -49.275   9.943  1.00  0.00     0.186 HD
HETATM   24  S   UNL     1     -37.844 -50.831  13.028  1.00  0.00    -0.046 SA
ENDBRANCH   4  18
TORSDOF 5
ENDMDL
MODEL 4
REMARK VINA RESULT:      -6.0      1.177      2.006
REMARK  5 active torsions:
REMARK  status: ('A' for Active; 'I' for Inactive)
REMARK    1  A    between atoms: C_2  and  C_3 
REMARK    2  A    between atoms: C_2  and  N_5 
REMARK    3  A    between atoms: C_2  and  C_16 
REMARK    4  A    between atoms: C_3  and  O_4 
REMARK       I    between atoms: N_5  and  C_6 
REMARK       I    between atoms: C_6  and  N_8 
REMARK    5  A    between atoms: N_8  and  C_9 
ROOT
HETATM    1  N   UNL     1     -43.877 -51.734  12.819  1.00  0.00    -0.331 N 
HETATM    2  C   UNL     1     -42.535 -51.570  12.548  1.00  0.00     0.322 C 
HETATM    3  O   UNL     1     -41.702 -52.424  12.799  1.00  0.00    -0.247 OA
HETATM    4  N   UNL     1     -42.270 -50.351  11.975  1.00  0.00    -0.288 N 
HETATM    5  H   UNL     1     -44.448 -50.906  12.881  1.00  0.00     0.165 HD
HETATM    6  H   UNL     1     -43.004 -49.833  11.522  1.00  0.00     0.172 HD
ENDROOT
BRANCH   1   7
HETATM    7  C   UNL     1     -44.407 -52.973  13.470  1.00  0.00     0.055 C 
HETATM    8  C   UNL     1     -44.096 -54.157  12.530  1.00  0.00     0.041 C 
BRANCH   7   9
HETATM    9  C   UNL     1     -43.596 -53.243  14.787  1.00  0.00     0.195 C 
BRANCH   9  10
HETATM   10  O   UNL     1     -42.809 -54.438  14.680  1.00  0.00    -0.398 OA
HETATM   11  H   UNL     1     -42.880 -54.752  13.763  1.00  0.00     0.209 HD
ENDBRANCH   9  10
ENDBRANCH   7   9
BRANCH   7  12
HETATM   12  C   UNL     1     -45.954 -52.796  13.792  1.00  0.00     0.015 C 
HETATM   13  C   UNL     1     -46.434 -51.404  14.241  1.00  0.00     0.007 C 
HETATM   14  C   UNL     1     -46.262 -51.096  15.724  1.00  0.00     0.000 C 
HETATM   15  C   UNL     1     -46.706 -52.216  16.660  1.00  0.00     0.000 C 
HETATM   16  C   UNL     1     -46.329 -53.621  16.210  1.00  0.00     0.000 C 
HETATM   17  C   UNL     1     -46.572 -53.859  14.728  1.00  0.00     0.007 C 
ENDBRANCH   7  12
ENDBRANCH   1   7
BRANCH   4  18
HETATM   18  C   UNL     1     -40.969 -49.996  11.710  1.00  0.00     0.168 A 
HETATM   19  N   UNL     1     -40.190 -50.358  10.718  1.00  0.00    -0.279 N 
HETATM   20  N   UNL     1     -38.945 -49.770  10.795  1.00  0.00    -0.303 N 
ATOM     21  HN  UNL     1     -40.473 -50.999   9.977  1.00  0.00     0.189 HD
HETATM   22  C   UNL     1     -38.843 -48.998  11.856  1.00  0.00     0.160 A 
ATOM     23  HN  UNL     1     -38.198 -49.915  10.115  1.00  0.00     0.186 HD
HETATM   24  S   UNL     1     -40.241 -48.961  12.853  1.00  0.00    -0.046 SA
ENDBRANCH   4  18
TORSDOF 5
ENDMDL
MODEL 5
REMARK VINA RESULT:      -5.9      4.384      7.074
REMARK  5 active torsions:
REMARK  status: ('A' for Active; 'I' for Inactive)
REMARK    1  A    between atoms: C_2  and  C_3 
REMARK    2  A    between atoms: C_2  and  N_5 
REMARK    3  A    between atoms: C_2  and  C_16 
REMARK    4  A    between atoms: C_3  and  O_4 
REMARK       I    between atoms: N_5  and  C_6 
REMARK       I    between atoms: C_6  and  N_8 
REMARK    5  A    between atoms: N_8  and  C_9 
ROOT
HETATM    1  N   UNL     1     -40.114 -47.984  11.042  1.00  0.00    -0.331 N 
HETATM    2  C   UNL     1     -40.752 -49.123  11.487  1.00  0.00     0.322 C 
HETATM    3  O   UNL     1     -41.880 -49.109  11.949  1.00  0.00    -0.247 OA
HETATM    4  N   UNL     1     -39.969 -50.242  11.345  1.00  0.00    -0.288 N 
HETATM    5  H   UNL     1     -39.109 -48.008  10.970  1.00  0.00     0.165 HD
HETATM    6  H   UNL     1     -39.201 -50.244  10.697  1.00  0.00     0.172 HD
ENDROOT
BRANCH   1   7
HETATM    7  C   UNL     1     -40.756 -46.636  11.120  1.00  0.00     0.055 C 
HETATM    8  C   UNL     1     -39.837 -45.643  10.377  1.00  0.00     0.041 C 
BRANCH   7   9
HETATM    9  C   UNL     1     -42.102 -46.665  10.314  1.00  0.00     0.195 C 
BRANCH   9  10
HETATM   10  O   UNL     1     -42.047 -45.796   9.173  1.00  0.00    -0.398 OA
HETATM   11  H   UNL     1     -41.276 -45.216   9.287  1.00  0.00     0.209 HD
ENDBRANCH   9  10
ENDBRANCH   7   9
BRANCH   7  12
HETATM   12  C   UNL     1     -41.023 -46.250  12.640  1.00  0.00     0.015 C 
HETATM   13  C   UNL     1     -41.967 -45.066  12.920  1.00  0.00     0.007 C 
HETATM   14  C   UNL     1     -41.325 -43.685  12.857  1.00  0.00     0.000 C 
HETATM   15  C   UNL     1     -39.989 -43.574  13.584  1.00  0.00     0.000 C 
HETATM   16  C   UNL     1     -39.056 -44.765  13.407  1.00  0.00     0.000 C 
HETATM   17  C   UNL     1     -39.768 -46.104  13.527  1.00  0.00     0.007 C 
ENDBRANCH   7  12
ENDBRANCH   1   7
BRANCH   4  18
HETATM   18  C   UNL     1     -40.427 -51.451  11.809  1.00  0.00     0.168 A 
HETATM   19  N   UNL     1     -41.242 -52.310  11.243  1.00  0.00    -0.279 N 
HETATM   20  N   UNL     1     -41.449 -53.425  12.028  1.00  0.00    -0.303 N 
ATOM     21  HN  UNL     1     -41.672 -52.168  10.329  1.00  0.00     0.189 HD
HETATM   22  C   UNL     1     -40.784 -53.345  13.160  1.00  0.00     0.160 A 
ATOM     23  HN  UNL     1     -42.042 -54.212  11.764  1.00  0.00     0.186 HD
HETATM   24  S   UNL     1     -39.889 -51.893  13.366  1.00  0.00    -0.046 SA
ENDBRANCH   4  18
TORSDOF 5
ENDMDL
MODEL 6
REMARK VINA RESULT:      -5.8      3.172      6.597
REMARK  5 active torsions:
REMARK  status: ('A' for Active; 'I' for Inactive)
REMARK    1  A    between atoms: C_2  and  C_3 
REMARK    2  A    between atoms: C_2  and  N_5 
REMARK    3  A    between atoms: C_2  and  C_16 
REMARK    4  A    between atoms: C_3  and  O_4 
REMARK       I    between atoms: N_5  and  C_6 
REMARK       I    between atoms: C_6  and  N_8 
REMARK    5  A    between atoms: N_8  and  C_9 
ROOT
HETATM    1  N   UNL     1     -42.392 -50.655  12.004  1.00  0.00    -0.331 N 
HETATM    2  C   UNL     1     -43.451 -51.169  12.722  1.00  0.00     0.322 C 
HETATM    3  O   UNL     1     -44.034 -50.534  13.584  1.00  0.00    -0.247 OA
HETATM    4  N   UNL     1     -43.753 -52.455  12.348  1.00  0.00    -0.288 N 
HETATM    5  H   UNL     1     -41.774 -51.308  11.549  1.00  0.00     0.165 HD
HETATM    6  H   UNL     1     -43.456 -52.806  11.454  1.00  0.00     0.172 HD
ENDROOT
BRANCH   1   7
HETATM    7  C   UNL     1     -41.862 -49.278  12.252  1.00  0.00     0.055 C 
HETATM    8  C   UNL     1     -41.226 -49.275  13.658  1.00  0.00     0.041 C 
BRANCH   7   9
HETATM    9  C   UNL     1     -40.690 -48.995  11.247  1.00  0.00     0.195 C 
BRANCH   9  10
HETATM   10  O   UNL     1     -40.563 -50.049  10.281  1.00  0.00    -0.398 OA
HETATM   11  H   UNL     1     -40.702 -49.657   9.403  1.00  0.00     0.209 HD
ENDBRANCH   9  10
ENDBRANCH   7   9
BRANCH   7  12
HETATM   12  C   UNL     1     -43.025 -48.210  12.070  1.00  0.00     0.015 C 
HETATM   13  C   UNL     1     -43.339 -47.733  10.640  1.00  0.00     0.007 C 
HETATM   14  C   UNL     1     -42.453 -46.611  10.112  1.00  0.00     0.000 C 
HETATM   15  C   UNL     1     -42.232 -45.464  11.092  1.00  0.00     0.000 C 
HETATM   16  C   UNL     1     -42.005 -45.884  12.539  1.00  0.00     0.000 C 
HETATM   17  C   UNL     1     -42.958 -46.977  12.999  1.00  0.00     0.007 C 
ENDBRANCH   7  12
ENDBRANCH   1   7
BRANCH   4  18
HETATM   18  C   UNL     1     -44.735 -53.142  13.019  1.00  0.00     0.168 A 
HETATM   19  N   UNL     1     -46.032 -52.941  13.037  1.00  0.00    -0.279 N 
HETATM   20  N   UNL     1     -46.690 -53.861  13.826  1.00  0.00    -0.303 N 
ATOM     21  HN  UNL     1     -46.498 -52.191  12.527  1.00  0.00     0.189 HD
HETATM   22  C   UNL     1     -45.848 -54.709  14.378  1.00  0.00     0.160 A 
ATOM     23  HN  UNL     1     -47.701 -53.882  13.965  1.00  0.00     0.186 HD
HETATM   24  S   UNL     1     -44.195 -54.425  14.004  1.00  0.00    -0.046 SA
ENDBRANCH   4  18
TORSDOF 5
ENDMDL
MODEL 7
REMARK VINA RESULT:      -5.8      2.297      3.143
REMARK  5 active torsions:
REMARK  status: ('A' for Active; 'I' for Inactive)
REMARK    1  A    between atoms: C_2  and  C_3 
REMARK    2  A    between atoms: C_2  and  N_5 
REMARK    3  A    between atoms: C_2  and  C_16 
REMARK    4  A    between atoms: C_3  and  O_4 
REMARK       I    between atoms: N_5  and  C_6 
REMARK       I    between atoms: C_6  and  N_8 
REMARK    5  A    between atoms: N_8  and  C_9 
ROOT
HETATM    1  N   UNL     1     -42.891 -51.247  12.535  1.00  0.00    -0.331 N 
HETATM    2  C   UNL     1     -41.992 -50.233  12.284  1.00  0.00     0.322 C 
HETATM    3  O   UNL     1     -40.890 -50.184  12.805  1.00  0.00    -0.247 OA
HETATM    4  N   UNL     1     -42.487 -49.311  11.396  1.00  0.00    -0.288 N 
HETATM    5  H   UNL     1     -43.863 -51.073  12.332  1.00  0.00     0.165 HD
HETATM    6  H   UNL     1     -43.246 -49.555  10.783  1.00  0.00     0.172 HD
ENDROOT
BRANCH   1   7
HETATM    7  C   UNL     1     -42.587 -52.355  13.493  1.00  0.00     0.055 C 
HETATM    8  C   UNL     1     -41.575 -53.296  12.805  1.00  0.00     0.041 C 
BRANCH   7   9
HETATM    9  C   UNL     1     -41.845 -51.761  14.742  1.00  0.00     0.195 C 
BRANCH   9  10
HETATM   10  O   UNL     1     -40.506 -52.270  14.845  1.00  0.00    -0.398 OA
HETATM   11  H   UNL     1     -40.568 -53.237  14.913  1.00  0.00     0.209 HD
ENDBRANCH   9  10
ENDBRANCH   7   9
BRANCH   7  12
HETATM   12  C   UNL     1     -43.935 -53.075  13.935  1.00  0.00     0.015 C 
HETATM   13  C   UNL     1     -44.987 -53.349  12.845  1.00  0.00     0.007 C 
HETATM   14  C   UNL     1     -45.913 -52.183  12.517  1.00  0.00     0.000 C 
HETATM   15  C   UNL     1     -46.484 -51.466  13.736  1.00  0.00     0.000 C 
HETATM   16  C   UNL     1     -45.500 -51.251  14.879  1.00  0.00     0.000 C 
HETATM   17  C   UNL     1     -44.645 -52.475  15.169  1.00  0.00     0.007 C 
ENDBRANCH   7  12
ENDBRANCH   1   7
BRANCH   4  18
HETATM   18  C   UNL     1     -41.745 -48.195  11.095  1.00  0.00     0.168 A 
HETATM   19  N   UNL     1     -40.454 -48.079  10.891  1.00  0.00    -0.279 N 
HETATM   20  N   UNL     1     -40.088 -46.783  10.595  1.00  0.00    -0.303 N 
ATOM     21  HN  UNL     1     -39.798 -48.858  10.945  1.00  0.00     0.189 HD
HETATM   22  C   UNL     1     -41.129 -45.977  10.603  1.00  0.00     0.160 A 
ATOM     23  HN  UNL     1     -39.133 -46.486  10.396  1.00  0.00     0.186 HD
HETATM   24  S   UNL     1     -42.619 -46.733  11.005  1.00  0.00    -0.046 SA
ENDBRANCH   4  18
TORSDOF 5
ENDMDL
MODEL 8
REMARK VINA RESULT:      -5.7      3.138      6.758
REMARK  5 active torsions:
REMARK  status: ('A' for Active; 'I' for Inactive)
REMARK    1  A    between atoms: C_2  and  C_3 
REMARK    2  A    between atoms: C_2  and  N_5 
REMARK    3  A    between atoms: C_2  and  C_16 
REMARK    4  A    between atoms: C_3  and  O_4 
REMARK       I    between atoms: N_5  and  C_6 
REMARK       I    between atoms: C_6  and  N_8 
REMARK    5  A    between atoms: N_8  and  C_9 
ROOT
HETATM    1  N   UNL     1     -40.259 -51.604  12.195  1.00  0.00    -0.331 N 
HETATM    2  C   UNL     1     -41.604 -51.701  12.485  1.00  0.00     0.322 C 
HETATM    3  O   UNL     1     -42.270 -50.747  12.850  1.00  0.00    -0.247 OA
HETATM    4  N   UNL     1     -42.079 -52.977  12.314  1.00  0.00    -0.288 N 
HETATM    5  H   UNL     1     -39.715 -52.452  12.206  1.00  0.00     0.165 HD
HETATM    6  H   UNL     1     -41.579 -53.631  11.735  1.00  0.00     0.172 HD
ENDROOT
BRANCH   1   7
HETATM    7  C   UNL     1     -39.510 -50.317  12.334  1.00  0.00     0.055 C 
HETATM    8  C   UNL     1     -38.063 -50.571  11.861  1.00  0.00     0.041 C 
BRANCH   7   9
HETATM    9  C   UNL     1     -40.113 -49.266  11.336  1.00  0.00     0.195 C 
BRANCH   9  10
HETATM   10  O   UNL     1     -40.544 -49.891  10.117  1.00  0.00    -0.398 OA
HETATM   11  H   UNL     1     -40.543 -49.208   9.425  1.00  0.00     0.209 HD
ENDBRANCH   9  10
ENDBRANCH   7   9
BRANCH   7  12
HETATM   12  C   UNL     1     -39.614 -49.789  13.830  1.00  0.00     0.015 C 
HETATM   13  C   UNL     1     -39.564 -48.266  14.055  1.00  0.00     0.007 C 
HETATM   14  C   UNL     1     -38.168 -47.656  14.113  1.00  0.00     0.000 C 
HETATM   15  C   UNL     1     -37.177 -48.424  14.980  1.00  0.00     0.000 C 
HETATM   16  C   UNL     1     -37.249 -49.940  14.858  1.00  0.00     0.000 C 
HETATM   17  C   UNL     1     -38.675 -50.471  14.851  1.00  0.00     0.007 C 
ENDBRANCH   7  12
ENDBRANCH   1   7
BRANCH   4  18
HETATM   18  C   UNL     1     -43.384 -53.262  12.633  1.00  0.00     0.168 A 
HETATM   19  N   UNL     1     -44.493 -52.813  12.094  1.00  0.00    -0.279 N 
HETATM   20  N   UNL     1     -45.615 -53.352  12.689  1.00  0.00    -0.303 N 
ATOM     21  HN  UNL     1     -44.522 -52.143  11.326  1.00  0.00     0.189 HD
HETATM   22  C   UNL     1     -45.293 -54.178  13.661  1.00  0.00     0.160 A 
ATOM     23  HN  UNL     1     -46.573 -53.138  12.410  1.00  0.00     0.186 HD
HETATM   24  S   UNL     1     -43.605 -54.330  13.944  1.00  0.00    -0.046 SA
ENDBRANCH   4  18
TORSDOF 5
ENDMDL
MODEL 9
REMARK VINA RESULT:      -5.4      1.983      2.591
REMARK  5 active torsions:
REMARK  status: ('A' for Active; 'I' for Inactive)
REMARK    1  A    between atoms: C_2  and  C_3 
REMARK    2  A    between atoms: C_2  and  N_5 
REMARK    3  A    between atoms: C_2  and  C_16 
REMARK    4  A    between atoms: C_3  and  O_4 
REMARK       I    between atoms: N_5  and  C_6 
REMARK       I    between atoms: C_6  and  N_8 
REMARK    5  A    between atoms: N_8  and  C_9 
ROOT
HETATM    1  N   UNL     1     -42.757 -51.619  12.242  1.00  0.00    -0.331 N 
HETATM    2  C   UNL     1     -42.402 -50.287  12.232  1.00  0.00     0.322 C 
HETATM    3  O   UNL     1     -42.874 -49.473  13.008  1.00  0.00    -0.247 OA
HETATM    4  N   UNL     1     -41.474 -50.006  11.261  1.00  0.00    -0.288 N 
HETATM    5  H   UNL     1     -42.580 -52.157  11.408  1.00  0.00     0.165 HD
HETATM    6  H   UNL     1     -40.909 -50.742  10.872  1.00  0.00     0.172 HD
ENDROOT
BRANCH   1   7
HETATM    7  C   UNL     1     -43.774 -52.160  13.196  1.00  0.00     0.055 C 
HETATM    8  C   UNL     1     -44.984 -51.202  13.172  1.00  0.00     0.041 C 
BRANCH   7   9
HETATM    9  C   UNL     1     -44.302 -53.535  12.652  1.00  0.00     0.195 C 
BRANCH   9  10
HETATM   10  O   UNL     1     -45.731 -53.532  12.523  1.00  0.00    -0.398 OA
HETATM   11  H   UNL     1     -46.103 -53.715  13.403  1.00  0.00     0.209 HD
ENDBRANCH   9  10
ENDBRANCH   7   9
BRANCH   7  12
HETATM   12  C   UNL     1     -43.125 -52.340  14.636  1.00  0.00     0.015 C 
HETATM   13  C   UNL     1     -41.717 -52.959  14.711  1.00  0.00     0.007 C 
HETATM   14  C   UNL     1     -41.665 -54.482  14.681  1.00  0.00     0.000 C 
HETATM   15  C   UNL     1     -42.672 -55.167  15.599  1.00  0.00     0.000 C 
HETATM   16  C   UNL     1     -44.058 -54.536  15.625  1.00  0.00     0.000 C 
HETATM   17  C   UNL     1     -44.020 -53.016  15.698  1.00  0.00     0.007 C 
ENDBRANCH   7  12
ENDBRANCH   1   7
BRANCH   4  18
HETATM   18  C   UNL     1     -41.068 -48.708  11.066  1.00  0.00     0.168 A 
HETATM   19  N   UNL     1     -41.485 -47.825  10.189  1.00  0.00    -0.279 N 
HETATM   20  N   UNL     1     -40.837 -46.615  10.323  1.00  0.00    -0.303 N 
ATOM     21  HN  UNL     1     -42.203 -48.013   9.490  1.00  0.00     0.189 HD
HETATM   22  C   UNL     1     -39.950 -46.650  11.294  1.00  0.00     0.160 A 
ATOM     23  HN  UNL     1     -41.023 -45.796   9.743  1.00  0.00     0.186 HD
HETATM   24  S   UNL     1     -39.815 -48.167  12.088  1.00  0.00    -0.046 SA
ENDBRANCH   4  18
TORSDOF 5
ENDMDL
