MODEL 1
REMARK VINA RESULT:      -5.1      0.000      0.000
REMARK  4 active torsions:
REMARK  status: ('A' for Active; 'I' for Inactive)
REMARK    1  A    between atoms: C_8  and  C_9 
REMARK    2  A    between atoms: C_9  and  C_10 
REMARK    3  A    between atoms: C_10  and  N_11 
REMARK    4  A    between atoms: N_11  and  C_12 
ROOT
HETATM    1  C   UNL     1     -44.402 -51.098  13.387  1.00  0.00     0.069 C 
ENDROOT
BRANCH   1   2
HETATM    2  C   UNL     1     -45.088 -52.408  13.718  1.00  0.00    -0.048 A 
HETATM    3  C   UNL     1     -46.254 -52.497  14.501  1.00  0.00    -0.040 A 
HETATM    4  C   UNL     1     -46.931 -51.312  15.115  1.00  0.00     0.050 C 
HETATM    5  C   UNL     1     -46.797 -53.769  14.705  1.00  0.00     0.094 A 
HETATM    6  N   UNL     1     -46.285 -54.917  14.209  1.00  0.00    -0.375 N 
HETATM    7  C   UNL     1     -45.158 -54.803  13.484  1.00  0.00     0.088 A 
ATOM      8  HN  UNL     1     -46.729 -55.821  14.374  1.00  0.00     0.164 HD
HETATM    9  C   UNL     1     -44.536 -53.594  13.215  1.00  0.00     0.024 A 
ENDBRANCH   1   2
BRANCH   1  10
HETATM   10  C   UNL     1     -42.939 -51.223  12.923  1.00  0.00     0.274 C 
BRANCH  10  11
HETATM   11  N   UNL     1     -42.523 -50.163  12.000  1.00  0.00     0.089 N 
HETATM   12  H   UNL     1     -42.897 -50.341  11.069  1.00  0.00     0.316 HD
BRANCH  11  13
HETATM   13  C   UNL     1     -42.894 -48.803  12.438  1.00  0.00     0.229 C 
HETATM   14  C   UNL     1     -43.312 -47.976  11.206  1.00  0.00     0.037 C 
HETATM   15  C   UNL     1     -42.172 -47.727  10.215  1.00  0.00     0.012 C 
HETATM   16  C   UNL     1     -40.992 -46.967  10.814  1.00  0.00     0.074 C 
HETATM   17  S   UNL     1     -40.278 -47.760  12.281  1.00  0.00    -0.167 SA
HETATM   18  C   UNL     1     -41.814 -48.028  13.224  1.00  0.00     0.109 C 
ENDBRANCH  11  13
ENDBRANCH  10  11
ENDBRANCH   1  10
TORSDOF 4
ENDMDL
MODEL 2
REMARK VINA RESULT:      -5.0      1.363      2.233
REMARK  4 active torsions:
REMARK  status: ('A' for Active; 'I' for Inactive)
REMARK    1  A    between atoms: C_8  and  C_9 
REMARK    2  A    between atoms: C_9  and  C_10 
REMARK    3  A    between atoms: C_10  and  N_11 
REMARK    4  A    between atoms: N_11  and  C_12 
ROOT
HETATM    1  C   UNL     1     -44.252 -53.037  12.184  1.00  0.00     0.069 C 
ENDROOT
BRANCH   1   2
HETATM    2  C   UNL     1     -45.298 -52.844  13.263  1.00  0.00    -0.048 A 
HETATM    3  C   UNL     1     -45.840 -53.902  14.017  1.00  0.00    -0.040 A 
HETATM    4  C   UNL     1     -45.464 -55.336  13.820  1.00  0.00     0.050 C 
HETATM    5  C   UNL     1     -46.779 -53.577  15.001  1.00  0.00     0.094 A 
HETATM    6  N   UNL     1     -47.205 -52.324  15.279  1.00  0.00    -0.375 N 
HETATM    7  C   UNL     1     -46.686 -51.337  14.527  1.00  0.00     0.088 A 
ATOM      8  HN  UNL     1     -47.883 -52.138  16.019  1.00  0.00     0.164 HD
HETATM    9  C   UNL     1     -45.747 -51.543  13.529  1.00  0.00     0.024 A 
ENDBRANCH   1   2
BRANCH   1  10
HETATM   10  C   UNL     1     -42.809 -52.698  12.601  1.00  0.00     0.274 C 
BRANCH  10  11
HETATM   11  N   UNL     1     -42.312 -51.443  12.032  1.00  0.00     0.089 N 
HETATM   12  H   UNL     1     -42.936 -51.122  11.292  1.00  0.00     0.316 HD
BRANCH  11  13
HETATM   13  C   UNL     1     -42.117 -50.367  13.023  1.00  0.00     0.229 C 
HETATM   14  C   UNL     1     -42.956 -49.142  12.606  1.00  0.00     0.037 C 
HETATM   15  C   UNL     1     -42.497 -48.499  11.295  1.00  0.00     0.012 C 
HETATM   16  C   UNL     1     -41.058 -47.994  11.328  1.00  0.00     0.074 C 
HETATM   17  S   UNL     1     -39.844 -49.269  11.766  1.00  0.00    -0.167 SA
HETATM   18  C   UNL     1     -40.657 -49.923  13.258  1.00  0.00     0.109 C 
ENDBRANCH  11  13
ENDBRANCH  10  11
ENDBRANCH   1  10
TORSDOF 4
ENDMDL
MODEL 3
REMARK VINA RESULT:      -5.0      2.966      4.217
REMARK  4 active torsions:
REMARK  status: ('A' for Active; 'I' for Inactive)
REMARK    1  A    between atoms: C_8  and  C_9 
REMARK    2  A    between atoms: C_9  and  C_10 
REMARK    3  A    between atoms: C_10  and  N_11 
REMARK    4  A    between atoms: N_11  and  C_12 
ROOT
HETATM    1  C   UNL     1     -44.119 -51.493  13.412  1.00  0.00     0.069 C 
ENDROOT
BRANCH   1   2
HETATM    2  C   UNL     1     -44.992 -52.677  13.777  1.00  0.00    -0.048 A 
HETATM    3  C   UNL     1     -46.200 -52.560  14.490  1.00  0.00    -0.040 A 
HETATM    4  C   UNL     1     -46.744 -51.258  14.988  1.00  0.00     0.050 C 
HETATM    5  C   UNL     1     -46.919 -53.733  14.735  1.00  0.00     0.094 A 
HETATM    6  N   UNL     1     -46.540 -54.969  14.341  1.00  0.00    -0.375 N 
HETATM    7  C   UNL     1     -45.370 -55.052  13.682  1.00  0.00     0.088 A 
ATOM      8  HN  UNL     1     -47.110 -55.794  14.532  1.00  0.00     0.164 HD
HETATM    9  C   UNL     1     -44.578 -53.956  13.381  1.00  0.00     0.024 A 
ENDBRANCH   1   2
BRANCH   1  10
HETATM   10  C   UNL     1     -42.790 -51.847  12.720  1.00  0.00     0.274 C 
BRANCH  10  11
HETATM   11  N   UNL     1     -41.621 -51.724  13.595  1.00  0.00     0.089 N 
HETATM   12  H   UNL     1     -41.883 -51.922  14.559  1.00  0.00     0.316 HD
BRANCH  11  13
HETATM   13  C   UNL     1     -40.481 -52.575  13.199  1.00  0.00     0.229 C 
HETATM   14  C   UNL     1     -40.887 -54.055  13.344  1.00  0.00     0.037 C 
HETATM   15  C   UNL     1     -41.158 -54.481  14.789  1.00  0.00     0.012 C 
HETATM   16  C   UNL     1     -39.959 -54.312  15.716  1.00  0.00     0.074 C 
HETATM   17  S   UNL     1     -39.298 -52.623  15.759  1.00  0.00    -0.167 SA
HETATM   18  C   UNL     1     -39.162 -52.335  13.966  1.00  0.00     0.109 C 
ENDBRANCH  11  13
ENDBRANCH  10  11
ENDBRANCH   1  10
TORSDOF 4
ENDMDL
MODEL 4
REMARK VINA RESULT:      -5.0      3.276      6.715
REMARK  4 active torsions:
REMARK  status: ('A' for Active; 'I' for Inactive)
REMARK    1  A    between atoms: C_8  and  C_9 
REMARK    2  A    between atoms: C_9  and  C_10 
REMARK    3  A    between atoms: C_10  and  N_11 
REMARK    4  A    between atoms: N_11  and  C_12 
ROOT
HETATM    1  C   UNL     1     -41.791 -52.025  13.512  1.00  0.00     0.069 C 
ENDROOT
BRANCH   1   2
HETATM    2  C   UNL     1     -40.732 -51.254  12.751  1.00  0.00    -0.048 A 
HETATM    3  C   UNL     1     -39.351 -51.384  12.995  1.00  0.00    -0.040 A 
HETATM    4  C   UNL     1     -38.778 -52.277  14.049  1.00  0.00     0.050 C 
HETATM    5  C   UNL     1     -38.483 -50.632  12.199  1.00  0.00     0.094 A 
HETATM    6  N   UNL     1     -38.871 -49.788  11.215  1.00  0.00    -0.375 N 
HETATM    7  C   UNL     1     -40.196 -49.668  11.021  1.00  0.00     0.088 A 
ATOM      8  HN  UNL     1     -38.195 -49.272  10.651  1.00  0.00     0.164 HD
HETATM    9  C   UNL     1     -41.146 -50.368  11.748  1.00  0.00     0.024 A 
ENDBRANCH   1   2
BRANCH   1  10
HETATM   10  C   UNL     1     -42.930 -52.601  12.651  1.00  0.00     0.274 C 
BRANCH  10  11
HETATM   11  N   UNL     1     -44.199 -51.884  12.799  1.00  0.00     0.089 N 
HETATM   12  H   UNL     1     -44.239 -51.102  12.146  1.00  0.00     0.316 HD
BRANCH  11  13
HETATM   13  C   UNL     1     -45.394 -52.735  12.636  1.00  0.00     0.229 C 
HETATM   14  C   UNL     1     -46.653 -51.888  12.909  1.00  0.00     0.037 C 
HETATM   15  C   UNL     1     -46.765 -51.398  14.355  1.00  0.00     0.012 C 
HETATM   16  C   UNL     1     -46.821 -52.524  15.383  1.00  0.00     0.074 C 
HETATM   17  S   UNL     1     -45.412 -53.664  15.299  1.00  0.00    -0.167 SA
HETATM   18  C   UNL     1     -45.442 -54.006  13.511  1.00  0.00     0.109 C 
ENDBRANCH  11  13
ENDBRANCH  10  11
ENDBRANCH   1  10
TORSDOF 4
ENDMDL
MODEL 5
REMARK VINA RESULT:      -4.9      2.911      3.671
REMARK  4 active torsions:
REMARK  status: ('A' for Active; 'I' for Inactive)
REMARK    1  A    between atoms: C_8  and  C_9 
REMARK    2  A    between atoms: C_9  and  C_10 
REMARK    3  A    between atoms: C_10  and  N_11 
REMARK    4  A    between atoms: N_11  and  C_12 
ROOT
HETATM    1  C   UNL     1     -41.864 -53.256  12.929  1.00  0.00     0.069 C 
ENDROOT
BRANCH   1   2
HETATM    2  C   UNL     1     -43.316 -53.571  13.227  1.00  0.00    -0.048 A 
HETATM    3  C   UNL     1     -43.726 -54.460  14.239  1.00  0.00    -0.040 A 
HETATM    4  C   UNL     1     -42.773 -55.213  15.114  1.00  0.00     0.050 C 
HETATM    5  C   UNL     1     -45.099 -54.637  14.423  1.00  0.00     0.094 A 
HETATM    6  N   UNL     1     -46.063 -54.021  13.702  1.00  0.00    -0.375 N 
HETATM    7  C   UNL     1     -45.641 -53.195  12.728  1.00  0.00     0.088 A 
ATOM      8  HN  UNL     1     -47.054 -54.173  13.887  1.00  0.00     0.164 HD
HETATM    9  C   UNL     1     -44.305 -52.941  12.460  1.00  0.00     0.024 A 
ENDBRANCH   1   2
BRANCH   1  10
HETATM   10  C   UNL     1     -41.626 -51.970  12.116  1.00  0.00     0.274 C 
BRANCH  10  11
HETATM   11  N   UNL     1     -40.211 -51.695  11.854  1.00  0.00     0.089 N 
HETATM   12  H   UNL     1     -39.966 -51.986  10.909  1.00  0.00     0.316 HD
BRANCH  11  13
HETATM   13  C   UNL     1     -39.823 -50.285  12.061  1.00  0.00     0.229 C 
HETATM   14  C   UNL     1     -38.324 -50.125  11.737  1.00  0.00     0.037 C 
HETATM   15  C   UNL     1     -37.403 -50.886  12.693  1.00  0.00     0.012 C 
HETATM   16  C   UNL     1     -37.537 -50.455  14.151  1.00  0.00     0.074 C 
HETATM   17  S   UNL     1     -39.226 -50.583  14.801  1.00  0.00    -0.167 SA
HETATM   18  C   UNL     1     -40.102 -49.708  13.465  1.00  0.00     0.109 C 
ENDBRANCH  11  13
ENDBRANCH  10  11
ENDBRANCH   1  10
TORSDOF 4
ENDMDL
MODEL 6
REMARK VINA RESULT:      -4.9      3.113      4.987
REMARK  4 active torsions:
REMARK  status: ('A' for Active; 'I' for Inactive)
REMARK    1  A    between atoms: C_8  and  C_9 
REMARK    2  A    between atoms: C_9  and  C_10 
REMARK    3  A    between atoms: C_10  and  N_11 
REMARK    4  A    between atoms: N_11  and  C_12 
ROOT
HETATM    1  C   UNL     1     -43.953 -50.202  13.500  1.00  0.00     0.069 C 
ENDROOT
BRANCH   1   2
HETATM    2  C   UNL     1     -44.905 -50.922  14.433  1.00  0.00    -0.048 A 
HETATM    3  C   UNL     1     -46.055 -51.605  13.994  1.00  0.00    -0.040 A 
HETATM    4  C   UNL     1     -46.480 -51.674  12.561  1.00  0.00     0.050 C 
HETATM    5  C   UNL     1     -46.830 -52.249  14.962  1.00  0.00     0.094 A 
HETATM    6  N   UNL     1     -46.559 -52.263  16.287  1.00  0.00    -0.375 N 
HETATM    7  C   UNL     1     -45.467 -51.583  16.679  1.00  0.00     0.088 A 
ATOM      8  HN  UNL     1     -47.150 -52.762  16.952  1.00  0.00     0.164 HD
HETATM    9  C   UNL     1     -44.625 -50.912  15.806  1.00  0.00     0.024 A 
ENDBRANCH   1   2
BRANCH   1  10
HETATM   10  C   UNL     1     -42.849 -51.080  12.884  1.00  0.00     0.274 C 
BRANCH  10  11
HETATM   11  N   UNL     1     -42.314 -52.085  13.807  1.00  0.00     0.089 N 
HETATM   12  H   UNL     1     -42.893 -52.136  14.645  1.00  0.00     0.316 HD
BRANCH  11  13
HETATM   13  C   UNL     1     -42.171 -53.430  13.216  1.00  0.00     0.229 C 
HETATM   14  C   UNL     1     -43.468 -54.226  13.460  1.00  0.00     0.037 C 
HETATM   15  C   UNL     1     -43.743 -54.520  14.936  1.00  0.00     0.012 C 
HETATM   16  C   UNL     1     -42.649 -55.338  15.615  1.00  0.00     0.074 C 
HETATM   17  S   UNL     1     -40.999 -54.592  15.503  1.00  0.00    -0.167 SA
HETATM   18  C   UNL     1     -40.968 -54.261  13.713  1.00  0.00     0.109 C 
ENDBRANCH  11  13
ENDBRANCH  10  11
ENDBRANCH   1  10
TORSDOF 4
ENDMDL
MODEL 7
REMARK VINA RESULT:      -4.8      3.898      5.703
REMARK  4 active torsions:
REMARK  status: ('A' for Active; 'I' for Inactive)
REMARK    1  A    between atoms: C_8  and  C_9 
REMARK    2  A    between atoms: C_9  and  C_10 
REMARK    3  A    between atoms: C_10  and  N_11 
REMARK    4  A    between atoms: N_11  and  C_12 
ROOT
HETATM    1  C   UNL     1     -46.747 -51.729  14.587  1.00  0.00     0.069 C 
ENDROOT
BRANCH   1   2
HETATM    2  C   UNL     1     -46.762 -51.156  15.990  1.00  0.00    -0.048 A 
HETATM    3  C   UNL     1     -45.646 -50.544  16.591  1.00  0.00    -0.040 A 
HETATM    4  C   UNL     1     -44.314 -50.413  15.922  1.00  0.00     0.050 C 
HETATM    5  C   UNL     1     -45.808 -50.033  17.881  1.00  0.00     0.094 A 
HETATM    6  N   UNL     1     -46.955 -50.086  18.596  1.00  0.00    -0.375 N 
HETATM    7  C   UNL     1     -47.997 -50.698  18.004  1.00  0.00     0.088 A 
ATOM      8  HN  UNL     1     -47.026 -49.685  19.531  1.00  0.00     0.164 HD
HETATM    9  C   UNL     1     -47.951 -51.235  16.728  1.00  0.00     0.024 A 
ENDBRANCH   1   2
BRANCH   1  10
HETATM   10  C   UNL     1     -46.674 -53.265  14.507  1.00  0.00     0.274 C 
BRANCH  10  11
HETATM   11  N   UNL     1     -45.442 -53.825  15.069  1.00  0.00     0.089 N 
HETATM   12  H   UNL     1     -45.651 -54.352  15.916  1.00  0.00     0.316 HD
BRANCH  11  13
HETATM   13  C   UNL     1     -44.681 -54.670  14.128  1.00  0.00     0.229 C 
HETATM   14  C   UNL     1     -43.372 -55.122  14.807  1.00  0.00     0.037 C 
HETATM   15  C   UNL     1     -42.406 -53.974  15.109  1.00  0.00     0.012 C 
HETATM   16  C   UNL     1     -41.958 -53.205  13.870  1.00  0.00     0.074 C 
HETATM   17  S   UNL     1     -43.328 -52.525  12.894  1.00  0.00    -0.167 SA
HETATM   18  C   UNL     1     -44.347 -54.029  12.764  1.00  0.00     0.109 C 
ENDBRANCH  11  13
ENDBRANCH  10  11
ENDBRANCH   1  10
TORSDOF 4
ENDMDL
MODEL 8
REMARK VINA RESULT:      -4.8      1.971      3.040
REMARK  4 active torsions:
REMARK  status: ('A' for Active; 'I' for Inactive)
REMARK    1  A    between atoms: C_8  and  C_9 
REMARK    2  A    between atoms: C_9  and  C_10 
REMARK    3  A    between atoms: C_10  and  N_11 
REMARK    4  A    between atoms: N_11  and  C_12 
ROOT
HETATM    1  C   UNL     1     -45.023 -54.185  13.302  1.00  0.00     0.069 C 
ENDROOT
BRANCH   1   2
HETATM    2  C   UNL     1     -45.700 -53.300  14.328  1.00  0.00    -0.048 A 
HETATM    3  C   UNL     1     -46.412 -52.131  13.997  1.00  0.00    -0.040 A 
HETATM    4  C   UNL     1     -46.557 -51.619  12.598  1.00  0.00     0.050 C 
HETATM    5  C   UNL     1     -47.010 -51.423  15.042  1.00  0.00     0.094 A 
HETATM    6  N   UNL     1     -46.955 -51.775  16.346  1.00  0.00    -0.375 N 
HETATM    7  C   UNL     1     -46.249 -52.883  16.634  1.00  0.00     0.088 A 
ATOM      8  HN  UNL     1     -47.423 -51.231  17.071  1.00  0.00     0.164 HD
HETATM    9  C   UNL     1     -45.618 -53.664  15.679  1.00  0.00     0.024 A 
ENDBRANCH   1   2
BRANCH   1  10
HETATM   10  C   UNL     1     -43.490 -54.058  13.235  1.00  0.00     0.274 C 
BRANCH  10  11
HETATM   11  N   UNL     1     -43.029 -52.760  12.734  1.00  0.00     0.089 N 
HETATM   12  H   UNL     1     -43.821 -52.208  12.409  1.00  0.00     0.316 HD
BRANCH  11  13
HETATM   13  C   UNL     1     -42.244 -51.981  13.712  1.00  0.00     0.229 C 
HETATM   14  C   UNL     1     -43.049 -50.731  14.120  1.00  0.00     0.037 C 
HETATM   15  C   UNL     1     -43.268 -49.739  12.975  1.00  0.00     0.012 C 
HETATM   16  C   UNL     1     -41.973 -49.193  12.378  1.00  0.00     0.074 C 
HETATM   17  S   UNL     1     -40.843 -50.480  11.779  1.00  0.00    -0.167 SA
HETATM   18  C   UNL     1     -40.835 -51.547  13.254  1.00  0.00     0.109 C 
ENDBRANCH  11  13
ENDBRANCH  10  11
ENDBRANCH   1  10
TORSDOF 4
ENDMDL
MODEL 9
REMARK VINA RESULT:      -4.6      2.056      3.111
REMARK  4 active torsions:
REMARK  status: ('A' for Active; 'I' for Inactive)
REMARK    1  A    between atoms: C_8  and  C_9 
REMARK    2  A    between atoms: C_9  and  C_10 
REMARK    3  A    between atoms: C_10  and  N_11 
REMARK    4  A    between atoms: N_11  and  C_12 
ROOT
HETATM    1  C   UNL     1     -44.141 -50.675  13.335  1.00  0.00     0.069 C 
ENDROOT
BRANCH   1   2
HETATM    2  C   UNL     1     -45.097 -51.782  13.729  1.00  0.00    -0.048 A 
HETATM    3  C   UNL     1     -44.941 -53.123  13.329  1.00  0.00    -0.040 A 
HETATM    4  C   UNL     1     -43.829 -53.598  12.447  1.00  0.00     0.050 C 
HETATM    5  C   UNL     1     -45.884 -54.046  13.788  1.00  0.00     0.094 A 
HETATM    6  N   UNL     1     -46.934 -53.748  14.586  1.00  0.00    -0.375 N 
HETATM    7  C   UNL     1     -47.070 -52.456  14.934  1.00  0.00     0.088 A 
ATOM      8  HN  UNL     1     -47.587 -54.463  14.907  1.00  0.00     0.164 HD
HETATM    9  C   UNL     1     -46.194 -51.457  14.540  1.00  0.00     0.024 A 
ENDBRANCH   1   2
BRANCH   1  10
HETATM   10  C   UNL     1     -42.894 -50.536  14.227  1.00  0.00     0.274 C 
BRANCH  10  11
HETATM   11  N   UNL     1     -41.755 -49.908  13.552  1.00  0.00     0.089 N 
HETATM   12  H   UNL     1     -40.963 -49.842  14.189  1.00  0.00     0.316 HD
BRANCH  11  13
HETATM   13  C   UNL     1     -41.343 -50.587  12.308  1.00  0.00     0.229 C 
HETATM   14  C   UNL     1     -40.520 -51.840  12.670  1.00  0.00     0.037 C 
HETATM   15  C   UNL     1     -39.188 -51.525  13.356  1.00  0.00     0.012 C 
HETATM   16  C   UNL     1     -38.248 -50.670  12.511  1.00  0.00     0.074 C 
HETATM   17  S   UNL     1     -38.973 -49.095  11.975  1.00  0.00    -0.167 SA
HETATM   18  C   UNL     1     -40.543 -49.729  11.304  1.00  0.00     0.109 C 
ENDBRANCH  11  13
ENDBRANCH  10  11
ENDBRANCH   1  10
TORSDOF 4
ENDMDL
