MODEL 1
REMARK VINA RESULT:      -5.6      0.000      0.000
REMARK  7 active torsions:
REMARK  status: ('A' for Active; 'I' for Inactive)
REMARK    1  A    between atoms: O_2  and  C_3 
REMARK    2  A    between atoms: C_3  and  C_4 
REMARK    3  A    between atoms: C_4  and  O_5 
REMARK    4  A    between atoms: O_5  and  C_6 
REMARK    5  A    between atoms: C_9  and  C_10 
REMARK    6  A    between atoms: C_10  and  N_11 
REMARK    7  A    between atoms: N_11  and  C_12 
ROOT
HETATM    1  C   UNL     1     -41.597 -53.037  12.594  1.00  0.00     0.141 A 
HETATM    2  C   UNL     1     -41.639 -53.888  13.685  1.00  0.00     0.057 A 
HETATM    3  C   UNL     1     -42.873 -54.388  14.087  1.00  0.00     0.014 A 
HETATM    4  C   UNL     1     -44.026 -54.041  13.379  1.00  0.00    -0.015 A 
HETATM    5  C   UNL     1     -43.871 -53.173  12.300  1.00  0.00     0.099 A 
HETATM    6  N   UNL     1     -42.684 -52.656  11.892  1.00  0.00    -0.346 N 
ATOM      7  HN  UNL     1     -42.618 -52.017  11.099  1.00  0.00     0.167 HD
ENDROOT
BRANCH   4   8
HETATM    8  C   UNL     1     -45.361 -54.646  13.728  1.00  0.00     0.310 C 
BRANCH   8   9
HETATM    9  N   UNL     1     -46.415 -53.632  13.775  1.00  0.00     0.094 N 
HETATM   10  H   UNL     1     -47.302 -54.065  13.517  1.00  0.00     0.316 HD
BRANCH   9  11
HETATM   11  C   UNL     1     -46.541 -53.011  15.096  1.00  0.00     0.251 C 
HETATM   12  C   UNL     1     -45.864 -51.640  15.136  1.00  0.00     0.072 C 
HETATM   13  C   UNL     1     -45.314 -51.490  16.564  1.00  0.00     0.220 C 
HETATM   14  C   UNL     1     -45.676 -50.143  17.188  1.00  0.00     0.043 C 
HETATM   15  N   UNL     1     -45.696 -52.711  17.310  1.00  0.00     0.090 N 
HETATM   16  C   UNL     1     -46.891 -52.577  18.138  1.00  0.00     0.310 C 
HETATM   17  C   UNL     1     -45.869 -53.739  16.266  1.00  0.00     0.307 C 
ENDBRANCH   9  11
ENDBRANCH   8   9
ENDBRANCH   4   8
BRANCH   1  18
HETATM   18  O   UNL     1     -40.336 -52.674  12.178  1.00  0.00    -0.334 OA
BRANCH  18  19
HETATM   19  C   UNL     1     -39.993 -51.315  12.451  1.00  0.00     0.203 C 
BRANCH  19  20
HETATM   20  C   UNL     1     -38.673 -51.346  13.219  1.00  0.00     0.193 C 
BRANCH  20  21
HETATM   21  O   UNL     1     -37.561 -51.339  12.326  1.00  0.00    -0.394 OA
HETATM   22  C   UNL     1     -37.540 -50.148  11.547  1.00  0.00     0.201 C 
ENDBRANCH  20  21
ENDBRANCH  19  20
ENDBRANCH  18  19
ENDBRANCH   1  18
TORSDOF 7
ENDMDL
MODEL 2
REMARK VINA RESULT:      -5.4      4.095      5.953
REMARK  7 active torsions:
REMARK  status: ('A' for Active; 'I' for Inactive)
REMARK    1  A    between atoms: O_2  and  C_3 
REMARK    2  A    between atoms: C_3  and  C_4 
REMARK    3  A    between atoms: C_4  and  O_5 
REMARK    4  A    between atoms: O_5  and  C_6 
REMARK    5  A    between atoms: C_9  and  C_10 
REMARK    6  A    between atoms: C_10  and  N_11 
REMARK    7  A    between atoms: N_11  and  C_12 
ROOT
HETATM    1  C   UNL     1     -42.322 -48.205  10.770  1.00  0.00     0.141 A 
HETATM    2  C   UNL     1     -43.029 -48.601  11.893  1.00  0.00     0.057 A 
HETATM    3  C   UNL     1     -42.539 -49.664  12.643  1.00  0.00     0.014 A 
HETATM    4  C   UNL     1     -41.349 -50.290  12.265  1.00  0.00    -0.015 A 
HETATM    5  C   UNL     1     -40.721 -49.816  11.114  1.00  0.00     0.099 A 
HETATM    6  N   UNL     1     -41.180 -48.791  10.353  1.00  0.00    -0.346 N 
ATOM      7  HN  UNL     1     -40.691 -48.482   9.513  1.00  0.00     0.167 HD
ENDROOT
BRANCH   4   8
HETATM    8  C   UNL     1     -40.742 -51.376  13.113  1.00  0.00     0.310 C 
BRANCH   8   9
HETATM    9  N   UNL     1     -40.868 -52.688  12.478  1.00  0.00     0.094 N 
HETATM   10  H   UNL     1     -39.939 -53.097  12.378  1.00  0.00     0.316 HD
BRANCH   9  11
HETATM   11  C   UNL     1     -41.724 -53.603  13.239  1.00  0.00     0.251 C 
HETATM   12  C   UNL     1     -43.165 -53.572  12.729  1.00  0.00     0.072 C 
HETATM   13  C   UNL     1     -44.048 -53.807  13.966  1.00  0.00     0.220 C 
HETATM   14  C   UNL     1     -45.114 -54.874  13.726  1.00  0.00     0.043 C 
HETATM   15  N   UNL     1     -43.141 -53.996  15.121  1.00  0.00     0.090 N 
HETATM   16  C   UNL     1     -42.886 -55.388  15.480  1.00  0.00     0.310 C 
HETATM   17  C   UNL     1     -41.900 -53.299  14.731  1.00  0.00     0.307 C 
ENDBRANCH   9  11
ENDBRANCH   8   9
ENDBRANCH   4   8
BRANCH   1  18
HETATM   18  O   UNL     1     -42.796 -47.076  10.142  1.00  0.00    -0.334 OA
BRANCH  18  19
HETATM   19  C   UNL     1     -43.378 -47.314   8.861  1.00  0.00     0.203 C 
BRANCH  19  20
HETATM   20  C   UNL     1     -44.779 -46.705   8.900  1.00  0.00     0.193 C 
BRANCH  20  21
HETATM   21  O   UNL     1     -45.662 -47.502   9.686  1.00  0.00    -0.394 OA
HETATM   22  C   UNL     1     -46.568 -48.226   8.859  1.00  0.00     0.201 C 
ENDBRANCH  20  21
ENDBRANCH  19  20
ENDBRANCH  18  19
ENDBRANCH   1  18
TORSDOF 7
ENDMDL
MODEL 3
REMARK VINA RESULT:      -5.4      3.349      6.637
REMARK  7 active torsions:
REMARK  status: ('A' for Active; 'I' for Inactive)
REMARK    1  A    between atoms: O_2  and  C_3 
REMARK    2  A    between atoms: C_3  and  C_4 
REMARK    3  A    between atoms: C_4  and  O_5 
REMARK    4  A    between atoms: O_5  and  C_6 
REMARK    5  A    between atoms: C_9  and  C_10 
REMARK    6  A    between atoms: C_10  and  N_11 
REMARK    7  A    between atoms: N_11  and  C_12 
ROOT
HETATM    1  C   UNL     1     -41.923 -53.768  13.493  1.00  0.00     0.141 A 
HETATM    2  C   UNL     1     -40.835 -53.301  14.211  1.00  0.00     0.057 A 
HETATM    3  C   UNL     1     -40.083 -52.263  13.673  1.00  0.00     0.014 A 
HETATM    4  C   UNL     1     -40.448 -51.707  12.444  1.00  0.00    -0.015 A 
HETATM    5  C   UNL     1     -41.557 -52.256  11.803  1.00  0.00     0.099 A 
HETATM    6  N   UNL     1     -42.302 -53.278  12.295  1.00  0.00    -0.346 N 
ATOM      7  HN  UNL     1     -43.103 -53.655  11.786  1.00  0.00     0.167 HD
ENDROOT
BRANCH   4   8
HETATM    8  C   UNL     1     -39.714 -50.516  11.885  1.00  0.00     0.310 C 
BRANCH   8   9
HETATM    9  N   UNL     1     -40.397 -49.966  10.714  1.00  0.00     0.094 N 
HETATM   10  H   UNL     1     -41.189 -50.564  10.482  1.00  0.00     0.316 HD
BRANCH   9  11
HETATM   11  C   UNL     1     -40.868 -48.595  10.930  1.00  0.00     0.251 C 
HETATM   12  C   UNL     1     -40.155 -47.940  12.114  1.00  0.00     0.072 C 
HETATM   13  C   UNL     1     -41.192 -47.004  12.757  1.00  0.00     0.220 C 
HETATM   14  C   UNL     1     -40.630 -45.608  13.020  1.00  0.00     0.043 C 
HETATM   15  N   UNL     1     -42.429 -47.100  11.947  1.00  0.00     0.090 N 
HETATM   16  C   UNL     1     -42.603 -46.036  10.964  1.00  0.00     0.310 C 
HETATM   17  C   UNL     1     -42.345 -48.426  11.306  1.00  0.00     0.307 C 
ENDBRANCH   9  11
ENDBRANCH   8   9
ENDBRANCH   4   8
BRANCH   1  18
HETATM   18  O   UNL     1     -42.692 -54.713  14.135  1.00  0.00    -0.334 OA
BRANCH  18  19
HETATM   19  C   UNL     1     -43.924 -54.216  14.657  1.00  0.00     0.203 C 
BRANCH  19  20
HETATM   20  C   UNL     1     -45.037 -54.875  13.844  1.00  0.00     0.193 C 
BRANCH  20  21
HETATM   21  O   UNL     1     -45.260 -54.177  12.621  1.00  0.00    -0.394 OA
HETATM   22  C   UNL     1     -45.768 -52.869  12.865  1.00  0.00     0.201 C 
ENDBRANCH  20  21
ENDBRANCH  19  20
ENDBRANCH  18  19
ENDBRANCH   1  18
TORSDOF 7
ENDMDL
MODEL 4
REMARK VINA RESULT:      -5.4      3.925      7.224
REMARK  7 active torsions:
REMARK  status: ('A' for Active; 'I' for Inactive)
REMARK    1  A    between atoms: O_2  and  C_3 
REMARK    2  A    between atoms: C_3  and  C_4 
REMARK    3  A    between atoms: C_4  and  O_5 
REMARK    4  A    between atoms: O_5  and  C_6 
REMARK    5  A    between atoms: C_9  and  C_10 
REMARK    6  A    between atoms: C_10  and  N_11 
REMARK    7  A    between atoms: N_11  and  C_12 
ROOT
HETATM    1  C   UNL     1     -44.319 -53.076  12.740  1.00  0.00     0.141 A 
HETATM    2  C   UNL     1     -44.572 -51.805  13.229  1.00  0.00     0.057 A 
HETATM    3  C   UNL     1     -43.561 -50.854  13.154  1.00  0.00     0.014 A 
HETATM    4  C   UNL     1     -42.333 -51.190  12.578  1.00  0.00    -0.015 A 
HETATM    5  C   UNL     1     -42.183 -52.499  12.124  1.00  0.00     0.099 A 
HETATM    6  N   UNL     1     -43.145 -53.454  12.195  1.00  0.00    -0.346 N 
ATOM      7  HN  UNL     1     -42.988 -54.403  11.856  1.00  0.00     0.167 HD
ENDROOT
BRANCH   4   8
HETATM    8  C   UNL     1     -41.255 -50.154  12.393  1.00  0.00     0.310 C 
BRANCH   8   9
HETATM    9  N   UNL     1     -41.138 -49.745  10.993  1.00  0.00     0.094 N 
HETATM   10  H   UNL     1     -41.817 -50.267  10.438  1.00  0.00     0.316 HD
BRANCH   9  11
HETATM   11  C   UNL     1     -41.358 -48.308  10.806  1.00  0.00     0.251 C 
HETATM   12  C   UNL     1     -40.367 -47.481  11.626  1.00  0.00     0.072 C 
HETATM   13  C   UNL     1     -41.131 -46.213  12.043  1.00  0.00     0.220 C 
HETATM   14  C   UNL     1     -40.332 -44.939  11.776  1.00  0.00     0.043 C 
HETATM   15  N   UNL     1     -42.486 -46.305  11.453  1.00  0.00     0.090 N 
HETATM   16  C   UNL     1     -42.663 -45.570  10.205  1.00  0.00     0.310 C 
HETATM   17  C   UNL     1     -42.709 -47.752  11.270  1.00  0.00     0.307 C 
ENDBRANCH   9  11
ENDBRANCH   8   9
ENDBRANCH   4   8
BRANCH   1  18
HETATM   18  O   UNL     1     -45.397 -53.931  12.737  1.00  0.00    -0.334 OA
BRANCH  18  19
HETATM   19  C   UNL     1     -45.342 -54.954  13.731  1.00  0.00     0.203 C 
BRANCH  19  20
HETATM   20  C   UNL     1     -46.443 -54.638  14.741  1.00  0.00     0.193 C 
BRANCH  20  21
HETATM   21  O   UNL     1     -45.905 -54.474  16.051  1.00  0.00    -0.394 OA
HETATM   22  C   UNL     1     -45.857 -53.099  16.415  1.00  0.00     0.201 C 
ENDBRANCH  20  21
ENDBRANCH  19  20
ENDBRANCH  18  19
ENDBRANCH   1  18
TORSDOF 7
ENDMDL
MODEL 5
REMARK VINA RESULT:      -5.3      3.003      7.004
REMARK  7 active torsions:
REMARK  status: ('A' for Active; 'I' for Inactive)
REMARK    1  A    between atoms: O_2  and  C_3 
REMARK    2  A    between atoms: C_3  and  C_4 
REMARK    3  A    between atoms: C_4  and  O_5 
REMARK    4  A    between atoms: O_5  and  C_6 
REMARK    5  A    between atoms: C_9  and  C_10 
REMARK    6  A    between atoms: C_10  and  N_11 
REMARK    7  A    between atoms: N_11  and  C_12 
ROOT
HETATM    1  C   UNL     1     -44.321 -53.653  12.828  1.00  0.00     0.141 A 
HETATM    2  C   UNL     1     -43.888 -54.400  13.911  1.00  0.00     0.057 A 
HETATM    3  C   UNL     1     -42.530 -54.409  14.208  1.00  0.00     0.014 A 
HETATM    4  C   UNL     1     -41.644 -53.660  13.430  1.00  0.00    -0.015 A 
HETATM    5  C   UNL     1     -42.185 -52.949  12.360  1.00  0.00     0.099 A 
HETATM    6  N   UNL     1     -43.503 -52.930  12.035  1.00  0.00    -0.346 N 
ATOM      7  HN  UNL     1     -43.855 -52.401  11.237  1.00  0.00     0.167 HD
ENDROOT
BRANCH   4   8
HETATM    8  C   UNL     1     -40.184 -53.571  13.787  1.00  0.00     0.310 C 
BRANCH   8   9
HETATM    9  N   UNL     1     -39.950 -52.597  14.854  1.00  0.00     0.094 N 
HETATM   10  H   UNL     1     -39.322 -53.009  15.544  1.00  0.00     0.316 HD
BRANCH   9  11
HETATM   11  C   UNL     1     -39.374 -51.345  14.356  1.00  0.00     0.251 C 
HETATM   12  C   UNL     1     -38.793 -51.517  12.952  1.00  0.00     0.072 C 
HETATM   13  C   UNL     1     -37.579 -50.575  12.886  1.00  0.00     0.220 C 
HETATM   14  C   UNL     1     -37.578 -49.715  11.623  1.00  0.00     0.043 C 
HETATM   15  N   UNL     1     -37.500 -49.874  14.188  1.00  0.00     0.090 N 
HETATM   16  C   UNL     1     -38.087 -48.537  14.203  1.00  0.00     0.310 C 
HETATM   17  C   UNL     1     -38.180 -50.779  15.134  1.00  0.00     0.307 C 
ENDBRANCH   9  11
ENDBRANCH   8   9
ENDBRANCH   4   8
BRANCH   1  18
HETATM   18  O   UNL     1     -45.686 -53.592  12.662  1.00  0.00    -0.334 OA
BRANCH  18  19
HETATM   19  C   UNL     1     -46.188 -52.287  12.372  1.00  0.00     0.203 C 
BRANCH  19  20
HETATM   20  C   UNL     1     -46.416 -51.601  13.718  1.00  0.00     0.193 C 
BRANCH  20  21
HETATM   21  O   UNL     1     -47.045 -52.485  14.643  1.00  0.00    -0.394 OA
HETATM   22  C   UNL     1     -47.277 -51.838  15.890  1.00  0.00     0.201 C 
ENDBRANCH  20  21
ENDBRANCH  19  20
ENDBRANCH  18  19
ENDBRANCH   1  18
TORSDOF 7
ENDMDL
MODEL 6
REMARK VINA RESULT:      -5.3      2.975      6.475
REMARK  7 active torsions:
REMARK  status: ('A' for Active; 'I' for Inactive)
REMARK    1  A    between atoms: O_2  and  C_3 
REMARK    2  A    between atoms: C_3  and  C_4 
REMARK    3  A    between atoms: C_4  and  O_5 
REMARK    4  A    between atoms: O_5  and  C_6 
REMARK    5  A    between atoms: C_9  and  C_10 
REMARK    6  A    between atoms: C_10  and  N_11 
REMARK    7  A    between atoms: N_11  and  C_12 
ROOT
HETATM    1  C   UNL     1     -44.578 -54.533  14.209  1.00  0.00     0.141 A 
HETATM    2  C   UNL     1     -43.400 -54.860  14.859  1.00  0.00     0.057 A 
HETATM    3  C   UNL     1     -42.195 -54.484  14.275  1.00  0.00     0.014 A 
HETATM    4  C   UNL     1     -42.199 -53.776  13.071  1.00  0.00    -0.015 A 
HETATM    5  C   UNL     1     -43.441 -53.504  12.499  1.00  0.00     0.099 A 
HETATM    6  N   UNL     1     -44.633 -53.870  13.036  1.00  0.00    -0.346 N 
ATOM      7  HN  UNL     1     -45.519 -53.656  12.578  1.00  0.00     0.167 HD
ENDROOT
BRANCH   4   8
HETATM    8  C   UNL     1     -40.916 -53.267  12.467  1.00  0.00     0.310 C 
BRANCH   8   9
HETATM    9  N   UNL     1     -41.172 -52.361  11.347  1.00  0.00     0.094 N 
HETATM   10  H   UNL     1     -42.170 -52.371  11.135  1.00  0.00     0.316 HD
BRANCH   9  11
HETATM   11  C   UNL     1     -40.745 -50.987  11.625  1.00  0.00     0.251 C 
HETATM   12  C   UNL     1     -39.481 -50.959  12.486  1.00  0.00     0.072 C 
HETATM   13  C   UNL     1     -39.610 -49.708  13.370  1.00  0.00     0.220 C 
HETATM   14  C   UNL     1     -38.339 -48.860  13.366  1.00  0.00     0.043 C 
HETATM   15  N   UNL     1     -40.877 -49.038  12.999  1.00  0.00     0.090 N 
HETATM   16  C   UNL     1     -40.734 -47.927  12.064  1.00  0.00     0.310 C 
HETATM   17  C   UNL     1     -41.712 -50.118  12.438  1.00  0.00     0.307 C 
ENDBRANCH   9  11
ENDBRANCH   8   9
ENDBRANCH   4   8
BRANCH   1  18
HETATM   18  O   UNL     1     -45.733 -54.830  14.897  1.00  0.00    -0.334 OA
BRANCH  18  19
HETATM   19  C   UNL     1     -46.142 -53.825  15.824  1.00  0.00     0.203 C 
BRANCH  19  20
HETATM   20  C   UNL     1     -47.109 -52.911  15.075  1.00  0.00     0.193 C 
BRANCH  20  21
HETATM   21  O   UNL     1     -46.438 -51.759  14.570  1.00  0.00    -0.394 OA
HETATM   22  C   UNL     1     -45.576 -51.198  15.555  1.00  0.00     0.201 C 
ENDBRANCH  20  21
ENDBRANCH  19  20
ENDBRANCH  18  19
ENDBRANCH   1  18
TORSDOF 7
ENDMDL
MODEL 7
REMARK VINA RESULT:      -5.2      3.520      7.432
REMARK  7 active torsions:
REMARK  status: ('A' for Active; 'I' for Inactive)
REMARK    1  A    between atoms: O_2  and  C_3 
REMARK    2  A    between atoms: C_3  and  C_4 
REMARK    3  A    between atoms: C_4  and  O_5 
REMARK    4  A    between atoms: O_5  and  C_6 
REMARK    5  A    between atoms: C_9  and  C_10 
REMARK    6  A    between atoms: C_10  and  N_11 
REMARK    7  A    between atoms: N_11  and  C_12 
ROOT
HETATM    1  C   UNL     1     -46.910 -52.257  15.524  1.00  0.00     0.141 A 
HETATM    2  C   UNL     1     -46.700 -51.551  14.352  1.00  0.00     0.057 A 
HETATM    3  C   UNL     1     -45.781 -52.050  13.435  1.00  0.00     0.014 A 
HETATM    4  C   UNL     1     -45.113 -53.247  13.703  1.00  0.00    -0.015 A 
HETATM    5  C   UNL     1     -45.396 -53.874  14.915  1.00  0.00     0.099 A 
HETATM    6  N   UNL     1     -46.275 -53.406  15.837  1.00  0.00    -0.346 N 
ATOM      7  HN  UNL     1     -46.446 -53.894  16.716  1.00  0.00     0.167 HD
ENDROOT
BRANCH   4   8
HETATM    8  C   UNL     1     -44.189 -53.863  12.685  1.00  0.00     0.310 C 
BRANCH   8   9
HETATM    9  N   UNL     1     -43.409 -52.844  11.981  1.00  0.00     0.094 N 
HETATM   10  H   UNL     1     -43.859 -51.937  12.109  1.00  0.00     0.316 HD
BRANCH   9  11
HETATM   11  C   UNL     1     -42.023 -52.772  12.452  1.00  0.00     0.251 C 
HETATM   12  C   UNL     1     -41.568 -54.103  13.054  1.00  0.00     0.072 C 
HETATM   13  C   UNL     1     -40.592 -53.734  14.183  1.00  0.00     0.220 C 
HETATM   14  C   UNL     1     -39.297 -54.543  14.119  1.00  0.00     0.043 C 
HETATM   15  N   UNL     1     -40.474 -52.258  14.196  1.00  0.00     0.090 N 
HETATM   16  C   UNL     1     -39.306 -51.730  13.498  1.00  0.00     0.310 C 
HETATM   17  C   UNL     1     -41.732 -51.785  13.588  1.00  0.00     0.307 C 
ENDBRANCH   9  11
ENDBRANCH   8   9
ENDBRANCH   4   8
BRANCH   1  18
HETATM   18  O   UNL     1     -47.915 -51.774  16.332  1.00  0.00    -0.334 OA
BRANCH  18  19
HETATM   19  C   UNL     1     -47.467 -50.916  17.381  1.00  0.00     0.203 C 
BRANCH  19  20
HETATM   20  C   UNL     1     -47.698 -51.673  18.688  1.00  0.00     0.193 C 
BRANCH  20  21
HETATM   21  O   UNL     1     -49.086 -51.923  18.897  1.00  0.00    -0.394 OA
HETATM   22  C   UNL     1     -49.293 -52.706  20.068  1.00  0.00     0.201 C 
ENDBRANCH  20  21
ENDBRANCH  19  20
ENDBRANCH  18  19
ENDBRANCH   1  18
TORSDOF 7
ENDMDL
MODEL 8
REMARK VINA RESULT:      -5.1      3.166      6.599
REMARK  7 active torsions:
REMARK  status: ('A' for Active; 'I' for Inactive)
REMARK    1  A    between atoms: O_2  and  C_3 
REMARK    2  A    between atoms: C_3  and  C_4 
REMARK    3  A    between atoms: C_4  and  O_5 
REMARK    4  A    between atoms: O_5  and  C_6 
REMARK    5  A    between atoms: C_9  and  C_10 
REMARK    6  A    between atoms: C_10  and  N_11 
REMARK    7  A    between atoms: N_11  and  C_12 
ROOT
HETATM    1  C   UNL     1     -44.349 -54.618  14.216  1.00  0.00     0.141 A 
HETATM    2  C   UNL     1     -43.128 -54.867  14.821  1.00  0.00     0.057 A 
HETATM    3  C   UNL     1     -41.976 -54.388  14.208  1.00  0.00     0.014 A 
HETATM    4  C   UNL     1     -42.074 -53.658  13.021  1.00  0.00    -0.015 A 
HETATM    5  C   UNL     1     -43.351 -53.471  12.494  1.00  0.00     0.099 A 
HETATM    6  N   UNL     1     -44.492 -53.937  13.060  1.00  0.00    -0.346 N 
ATOM      7  HN  UNL     1     -45.407 -53.783  12.636  1.00  0.00     0.167 HD
ENDROOT
BRANCH   4   8
HETATM    8  C   UNL     1     -40.854 -53.041  12.388  1.00  0.00     0.310 C 
BRANCH   8   9
HETATM    9  N   UNL     1     -41.215 -51.979  11.448  1.00  0.00     0.094 N 
HETATM   10  H   UNL     1     -42.202 -52.071  11.209  1.00  0.00     0.316 HD
BRANCH   9  11
HETATM   11  C   UNL     1     -40.968 -50.640  11.991  1.00  0.00     0.251 C 
HETATM   12  C   UNL     1     -42.277 -49.932  12.345  1.00  0.00     0.072 C 
HETATM   13  C   UNL     1     -42.028 -48.439  12.072  1.00  0.00     0.220 C 
HETATM   14  C   UNL     1     -42.478 -47.553  13.232  1.00  0.00     0.043 C 
HETATM   15  N   UNL     1     -40.625 -48.306  11.616  1.00  0.00     0.090 N 
HETATM   16  C   UNL     1     -39.678 -47.909  12.653  1.00  0.00     0.310 C 
HETATM   17  C   UNL     1     -40.295 -49.630  11.055  1.00  0.00     0.307 C 
ENDBRANCH   9  11
ENDBRANCH   8   9
ENDBRANCH   4   8
BRANCH   1  18
HETATM   18  O   UNL     1     -45.454 -55.017  14.933  1.00  0.00    -0.334 OA
BRANCH  18  19
HETATM   19  C   UNL     1     -46.351 -53.958  15.270  1.00  0.00     0.203 C 
BRANCH  19  20
HETATM   20  C   UNL     1     -46.026 -53.555  16.708  1.00  0.00     0.193 C 
BRANCH  20  21
HETATM   21  O   UNL     1     -45.685 -54.694  17.494  1.00  0.00    -0.394 OA
HETATM   22  C   UNL     1     -44.549 -54.430  18.311  1.00  0.00     0.201 C 
ENDBRANCH  20  21
ENDBRANCH  19  20
ENDBRANCH  18  19
ENDBRANCH   1  18
TORSDOF 7
ENDMDL
MODEL 9
REMARK VINA RESULT:      -5.0      3.354      6.917
REMARK  7 active torsions:
REMARK  status: ('A' for Active; 'I' for Inactive)
REMARK    1  A    between atoms: O_2  and  C_3 
REMARK    2  A    between atoms: C_3  and  C_4 
REMARK    3  A    between atoms: C_4  and  O_5 
REMARK    4  A    between atoms: O_5  and  C_6 
REMARK    5  A    between atoms: C_9  and  C_10 
REMARK    6  A    between atoms: C_10  and  N_11 
REMARK    7  A    between atoms: N_11  and  C_12 
ROOT
HETATM    1  C   UNL     1     -43.766 -53.857  12.781  1.00  0.00     0.141 A 
HETATM    2  C   UNL     1     -42.976 -54.448  13.752  1.00  0.00     0.057 A 
HETATM    3  C   UNL     1     -41.688 -53.960  13.945  1.00  0.00     0.014 A 
HETATM    4  C   UNL     1     -41.232 -52.885  13.178  1.00  0.00    -0.015 A 
HETATM    5  C   UNL     1     -42.108 -52.369  12.224  1.00  0.00     0.099 A 
HETATM    6  N   UNL     1     -43.364 -52.832  12.002  1.00  0.00    -0.346 N 
ATOM      7  HN  UNL     1     -43.969 -52.429  11.286  1.00  0.00     0.167 HD
ENDROOT
BRANCH   4   8
HETATM    8  C   UNL     1     -39.881 -52.270  13.433  1.00  0.00     0.310 C 
BRANCH   8   9
HETATM    9  N   UNL     1     -39.500 -52.373  14.842  1.00  0.00     0.094 N 
HETATM   10  H   UNL     1     -38.776 -53.085  14.937  1.00  0.00     0.316 HD
BRANCH   9  11
HETATM   11  C   UNL     1     -39.010 -51.104  15.387  1.00  0.00     0.251 C 
HETATM   12  C   UNL     1     -38.363 -50.243  14.300  1.00  0.00     0.072 C 
HETATM   13  C   UNL     1     -37.230 -49.475  15.000  1.00  0.00     0.220 C 
HETATM   14  C   UNL     1     -37.250 -47.983  14.673  1.00  0.00     0.043 C 
HETATM   15  N   UNL     1     -37.258 -49.860  16.430  1.00  0.00     0.090 N 
HETATM   16  C   UNL     1     -37.953 -48.921  17.305  1.00  0.00     0.310 C 
HETATM   17  C   UNL     1     -37.898 -51.189  16.439  1.00  0.00     0.307 C 
ENDBRANCH   9  11
ENDBRANCH   8   9
ENDBRANCH   4   8
BRANCH   1  18
HETATM   18  O   UNL     1     -45.066 -54.309  12.723  1.00  0.00    -0.334 OA
BRANCH  18  19
HETATM   19  C   UNL     1     -45.453 -55.132  13.823  1.00  0.00     0.203 C 
BRANCH  19  20
HETATM   20  C   UNL     1     -46.307 -54.258  14.740  1.00  0.00     0.193 C 
BRANCH  20  21
HETATM   21  O   UNL     1     -46.005 -54.507  16.111  1.00  0.00    -0.394 OA
HETATM   22  C   UNL     1     -45.092 -53.538  16.617  1.00  0.00     0.201 C 
ENDBRANCH  20  21
ENDBRANCH  19  20
ENDBRANCH  18  19
ENDBRANCH   1  18
TORSDOF 7
ENDMDL
