MODEL 1
REMARK VINA RESULT:      -6.7      0.000      0.000
REMARK  4 active torsions:
REMARK  status: ('A' for Active; 'I' for Inactive)
REMARK    1  A    between atoms: C_2  and  C_3 
REMARK    2  A    between atoms: C_2  and  N_10 
REMARK    3  A    between atoms: C_3  and  N_4 
REMARK       I    between atoms: N_10  and  C_11 
REMARK       I    between atoms: C_11  and  N_13 
REMARK    4  A    between atoms: N_13  and  C_14 
ROOT
HETATM    1  N   UNL     1     -41.546 -53.158  12.064  1.00  0.00    -0.337 N 
HETATM    2  C   UNL     1     -41.662 -51.795  12.202  1.00  0.00     0.322 C 
HETATM    3  O   UNL     1     -42.283 -51.263  13.112  1.00  0.00    -0.247 OA
HETATM    4  N   UNL     1     -40.889 -51.157  11.261  1.00  0.00    -0.295 N 
HETATM    5  H   UNL     1     -41.619 -53.492  11.114  1.00  0.00     0.164 HD
HETATM    6  H   UNL     1     -40.067 -51.666  10.971  1.00  0.00     0.172 HD
ENDROOT
BRANCH   1   7
HETATM    7  C   UNL     1     -41.905 -54.076  13.142  1.00  0.00     0.110 C 
HETATM    8  C   UNL     1     -40.799 -54.103  14.196  1.00  0.00     0.034 C 
BRANCH   7   9
HETATM    9  C   UNL     1     -43.298 -53.759  13.784  1.00  0.00     0.297 C 
BRANCH   9  10
HETATM   10  N   UNL     1     -44.524 -54.150  13.043  1.00  0.00     0.090 N 
HETATM   11  C   UNL     1     -45.285 -52.960  12.609  1.00  0.00     0.272 C 
HETATM   12  C   UNL     1     -46.014 -52.226  13.743  1.00  0.00     0.030 C 
HETATM   13  C   UNL     1     -46.903 -53.169  14.546  1.00  0.00     0.003 C 
HETATM   14  C   UNL     1     -46.128 -54.408  14.970  1.00  0.00     0.030 C 
HETATM   15  C   UNL     1     -45.426 -55.054  13.772  1.00  0.00     0.272 C 
ENDBRANCH   9  10
ENDBRANCH   7   9
ENDBRANCH   1   7
BRANCH   4  16
HETATM   16  C   UNL     1     -40.689 -49.778  11.223  1.00  0.00     0.108 A 
HETATM   17  C   UNL     1     -39.555 -49.182  11.762  1.00  0.00     0.049 A 
HETATM   18  C   UNL     1     -39.457 -47.795  11.743  1.00  0.00     0.012 A 
HETATM   19  C   UNL     1     -40.477 -47.040  11.168  1.00  0.00    -0.046 A 
HETATM   20  C   UNL     1     -40.415 -45.546  11.121  1.00  0.00     0.049 C 
HETATM   21  C   UNL     1     -41.554 -47.729  10.621  1.00  0.00     0.096 A 
HETATM   22  N   UNL     1     -41.700 -49.074  10.670  1.00  0.00    -0.352 N 
ATOM     23  HN  UNL     1     -42.535 -49.533  10.306  1.00  0.00     0.166 HD
ENDBRANCH   4  16
TORSDOF 4
ENDMDL
MODEL 2
REMARK VINA RESULT:      -6.6      1.352      6.882
REMARK  4 active torsions:
REMARK  status: ('A' for Active; 'I' for Inactive)
REMARK    1  A    between atoms: C_2  and  C_3 
REMARK    2  A    between atoms: C_2  and  N_10 
REMARK    3  A    between atoms: C_3  and  N_4 
REMARK       I    between atoms: N_10  and  C_11 
REMARK       I    between atoms: C_11  and  N_13 
REMARK    4  A    between atoms: N_13  and  C_14 
ROOT
HETATM    1  N   UNL     1     -39.561 -51.142  11.789  1.00  0.00    -0.337 N 
HETATM    2  C   UNL     1     -40.526 -51.606  12.653  1.00  0.00     0.322 C 
HETATM    3  O   UNL     1     -40.789 -51.064  13.718  1.00  0.00    -0.247 OA
HETATM    4  N   UNL     1     -41.204 -52.657  12.083  1.00  0.00    -0.295 N 
HETATM    5  H   UNL     1     -39.001 -51.864  11.358  1.00  0.00     0.164 HD
HETATM    6  H   UNL     1     -41.258 -52.632  11.077  1.00  0.00     0.172 HD
ENDROOT
BRANCH   1   7
HETATM    7  C   UNL     1     -38.973 -49.813  11.931  1.00  0.00     0.110 C 
HETATM    8  C   UNL     1     -37.522 -49.829  11.455  1.00  0.00     0.034 C 
BRANCH   7   9
HETATM    9  C   UNL     1     -39.798 -48.693  11.211  1.00  0.00     0.297 C 
BRANCH   9  10
HETATM   10  N   UNL     1     -40.931 -48.070  11.941  1.00  0.00     0.090 N 
HETATM   11  C   UNL     1     -42.227 -48.474  11.355  1.00  0.00     0.272 C 
HETATM   12  C   UNL     1     -42.538 -47.827   9.999  1.00  0.00     0.030 C 
HETATM   13  C   UNL     1     -42.426 -46.307  10.059  1.00  0.00     0.003 C 
HETATM   14  C   UNL     1     -41.104 -45.890  10.687  1.00  0.00     0.030 C 
HETATM   15  C   UNL     1     -40.882 -46.603  12.024  1.00  0.00     0.272 C 
ENDBRANCH   9  10
ENDBRANCH   7   9
ENDBRANCH   1   7
BRANCH   4  16
HETATM   16  C   UNL     1     -42.326 -53.258  12.652  1.00  0.00     0.108 A 
HETATM   17  C   UNL     1     -42.231 -54.124  13.735  1.00  0.00     0.049 A 
HETATM   18  C   UNL     1     -43.388 -54.734  14.207  1.00  0.00     0.012 A 
HETATM   19  C   UNL     1     -44.612 -54.449  13.604  1.00  0.00    -0.046 A 
HETATM   20  C   UNL     1     -45.883 -55.078  14.077  1.00  0.00     0.049 C 
HETATM   21  C   UNL     1     -44.610 -53.542  12.550  1.00  0.00     0.096 A 
HETATM   22  N   UNL     1     -43.495 -52.971  12.038  1.00  0.00    -0.352 N 
ATOM     23  HN  UNL     1     -43.535 -52.355  11.227  1.00  0.00     0.166 HD
ENDBRANCH   4  16
TORSDOF 4
ENDMDL
MODEL 3
REMARK VINA RESULT:      -6.2      2.680      7.110
REMARK  4 active torsions:
REMARK  status: ('A' for Active; 'I' for Inactive)
REMARK    1  A    between atoms: C_2  and  C_3 
REMARK    2  A    between atoms: C_2  and  N_10 
REMARK    3  A    between atoms: C_3  and  N_4 
REMARK       I    between atoms: N_10  and  C_11 
REMARK       I    between atoms: C_11  and  N_13 
REMARK    4  A    between atoms: N_13  and  C_14 
ROOT
HETATM    1  N   UNL     1     -42.151 -49.678  11.833  1.00  0.00    -0.337 N 
HETATM    2  C   UNL     1     -42.990 -49.651  12.923  1.00  0.00     0.322 C 
HETATM    3  O   UNL     1     -43.096 -48.683  13.664  1.00  0.00    -0.247 OA
HETATM    4  N   UNL     1     -43.751 -50.795  12.962  1.00  0.00    -0.295 N 
HETATM    5  H   UNL     1     -41.665 -50.553  11.700  1.00  0.00     0.164 HD
HETATM    6  H   UNL     1     -43.946 -51.207  12.063  1.00  0.00     0.172 HD
ENDROOT
BRANCH   1   7
HETATM    7  C   UNL     1     -41.537 -48.465  11.302  1.00  0.00     0.110 C 
HETATM    8  C   UNL     1     -40.021 -48.524  11.482  1.00  0.00     0.034 C 
BRANCH   7   9
HETATM    9  C   UNL     1     -41.925 -48.177   9.812  1.00  0.00     0.297 C 
BRANCH   9  10
HETATM   10  N   UNL     1     -42.737 -46.970   9.513  1.00  0.00     0.090 N 
HETATM   11  C   UNL     1     -43.890 -46.865  10.431  1.00  0.00     0.272 C 
HETATM   12  C   UNL     1     -45.010 -47.879  10.160  1.00  0.00     0.030 C 
HETATM   13  C   UNL     1     -45.473 -47.834   8.707  1.00  0.00     0.003 C 
HETATM   14  C   UNL     1     -44.283 -47.914   7.761  1.00  0.00     0.030 C 
HETATM   15  C   UNL     1     -43.219 -46.876   8.127  1.00  0.00     0.272 C 
ENDBRANCH   9  10
ENDBRANCH   7   9
ENDBRANCH   1   7
BRANCH   4  16
HETATM   16  C   UNL     1     -44.789 -51.008  13.870  1.00  0.00     0.108 A 
HETATM   17  C   UNL     1     -46.051 -51.424  13.463  1.00  0.00     0.049 A 
HETATM   18  C   UNL     1     -47.052 -51.554  14.419  1.00  0.00     0.012 A 
HETATM   19  C   UNL     1     -46.765 -51.290  15.757  1.00  0.00    -0.046 A 
HETATM   20  C   UNL     1     -47.807 -51.418  16.822  1.00  0.00     0.049 C 
HETATM   21  C   UNL     1     -45.463 -50.916  16.071  1.00  0.00     0.096 A 
HETATM   22  N   UNL     1     -44.482 -50.733  15.156  1.00  0.00    -0.352 N 
ATOM     23  HN  UNL     1     -43.556 -50.403  15.426  1.00  0.00     0.166 HD
ENDBRANCH   4  16
TORSDOF 4
ENDMDL
MODEL 4
REMARK VINA RESULT:      -6.2      2.883      7.169
REMARK  4 active torsions:
REMARK  status: ('A' for Active; 'I' for Inactive)
REMARK    1  A    between atoms: C_2  and  C_3 
REMARK    2  A    between atoms: C_2  and  N_10 
REMARK    3  A    between atoms: C_3  and  N_4 
REMARK       I    between atoms: N_10  and  C_11 
REMARK       I    between atoms: C_11  and  N_13 
REMARK    4  A    between atoms: N_13  and  C_14 
ROOT
HETATM    1  N   UNL     1     -39.564 -50.377  11.553  1.00  0.00    -0.337 N 
HETATM    2  C   UNL     1     -40.397 -51.329  12.093  1.00  0.00     0.322 C 
HETATM    3  O   UNL     1     -39.993 -52.276  12.754  1.00  0.00    -0.247 OA
HETATM    4  N   UNL     1     -41.710 -50.982  11.883  1.00  0.00    -0.295 N 
HETATM    5  H   UNL     1     -39.813 -50.082  10.619  1.00  0.00     0.164 HD
HETATM    6  H   UNL     1     -41.884 -49.990  11.830  1.00  0.00     0.172 HD
ENDROOT
BRANCH   1   7
HETATM    7  C   UNL     1     -38.168 -50.253  11.961  1.00  0.00     0.110 C 
HETATM    8  C   UNL     1     -37.279 -50.062  10.733  1.00  0.00     0.034 C 
BRANCH   7   9
HETATM    9  C   UNL     1     -37.931 -49.122  13.019  1.00  0.00     0.297 C 
BRANCH   9  10
HETATM   10  N   UNL     1     -38.522 -49.284  14.371  1.00  0.00     0.090 N 
HETATM   11  C   UNL     1     -38.455 -48.021  15.135  1.00  0.00     0.272 C 
HETATM   12  C   UNL     1     -37.048 -47.649  15.622  1.00  0.00     0.030 C 
HETATM   13  C   UNL     1     -36.403 -48.788  16.407  1.00  0.00     0.003 C 
HETATM   14  C   UNL     1     -36.497 -50.095  15.632  1.00  0.00     0.030 C 
HETATM   15  C   UNL     1     -37.935 -50.363  15.179  1.00  0.00     0.272 C 
ENDBRANCH   9  10
ENDBRANCH   7   9
ENDBRANCH   1   7
BRANCH   4  16
HETATM   16  C   UNL     1     -42.794 -51.674  12.424  1.00  0.00     0.108 A 
HETATM   17  C   UNL     1     -43.617 -51.113  13.394  1.00  0.00     0.049 A 
HETATM   18  C   UNL     1     -44.639 -51.888  13.931  1.00  0.00     0.012 A 
HETATM   19  C   UNL     1     -44.829 -53.191  13.473  1.00  0.00    -0.046 A 
HETATM   20  C   UNL     1     -45.916 -54.061  14.018  1.00  0.00     0.049 C 
HETATM   21  C   UNL     1     -43.978 -53.649  12.474  1.00  0.00     0.096 A 
HETATM   22  N   UNL     1     -42.944 -52.936  11.969  1.00  0.00    -0.352 N 
ATOM     23  HN  UNL     1     -42.310 -53.334  11.277  1.00  0.00     0.166 HD
ENDBRANCH   4  16
TORSDOF 4
ENDMDL
MODEL 5
REMARK VINA RESULT:      -6.1      2.886      7.875
REMARK  4 active torsions:
REMARK  status: ('A' for Active; 'I' for Inactive)
REMARK    1  A    between atoms: C_2  and  C_3 
REMARK    2  A    between atoms: C_2  and  N_10 
REMARK    3  A    between atoms: C_3  and  N_4 
REMARK       I    between atoms: N_10  and  C_11 
REMARK       I    between atoms: C_11  and  N_13 
REMARK    4  A    between atoms: N_13  and  C_14 
ROOT
HETATM    1  N   UNL     1     -42.183 -48.821  10.871  1.00  0.00    -0.337 N 
HETATM    2  C   UNL     1     -41.277 -49.790  11.233  1.00  0.00     0.322 C 
HETATM    3  O   UNL     1     -40.074 -49.693  11.031  1.00  0.00    -0.247 OA
HETATM    4  N   UNL     1     -41.906 -50.784  11.945  1.00  0.00    -0.295 N 
HETATM    5  H   UNL     1     -43.047 -49.176  10.489  1.00  0.00     0.164 HD
HETATM    6  H   UNL     1     -42.710 -50.483  12.474  1.00  0.00     0.172 HD
ENDROOT
BRANCH   1   7
HETATM    7  C   UNL     1     -41.761 -47.478  10.481  1.00  0.00     0.110 C 
HETATM    8  C   UNL     1     -42.881 -46.782   9.710  1.00  0.00     0.034 C 
BRANCH   7   9
HETATM    9  C   UNL     1     -41.273 -46.608  11.689  1.00  0.00     0.297 C 
BRANCH   9  10
HETATM   10  N   UNL     1     -39.897 -46.052  11.649  1.00  0.00     0.090 N 
HETATM   11  C   UNL     1     -39.472 -45.590  12.987  1.00  0.00     0.272 C 
HETATM   12  C   UNL     1     -40.152 -44.296  13.456  1.00  0.00     0.030 C 
HETATM   13  C   UNL     1     -40.007 -43.177  12.429  1.00  0.00     0.003 C 
HETATM   14  C   UNL     1     -40.418 -43.661  11.046  1.00  0.00     0.030 C 
HETATM   15  C   UNL     1     -39.698 -44.962  10.682  1.00  0.00     0.272 C 
ENDBRANCH   9  10
ENDBRANCH   7   9
ENDBRANCH   1   7
BRANCH   4  16
HETATM   16  C   UNL     1     -41.239 -51.840  12.564  1.00  0.00     0.108 A 
HETATM   17  C   UNL     1     -41.722 -53.142  12.525  1.00  0.00     0.049 A 
HETATM   18  C   UNL     1     -41.034 -54.131  13.220  1.00  0.00     0.012 A 
HETATM   19  C   UNL     1     -39.872 -53.802  13.915  1.00  0.00    -0.046 A 
HETATM   20  C   UNL     1     -39.097 -54.831  14.675  1.00  0.00     0.049 C 
HETATM   21  C   UNL     1     -39.448 -52.479  13.864  1.00  0.00     0.096 A 
HETATM   22  N   UNL     1     -40.123 -51.487  13.238  1.00  0.00    -0.352 N 
ATOM     23  HN  UNL     1     -39.804 -50.519  13.275  1.00  0.00     0.166 HD
ENDBRANCH   4  16
TORSDOF 4
ENDMDL
MODEL 6
REMARK VINA RESULT:      -6.0      2.599      7.891
REMARK  4 active torsions:
REMARK  status: ('A' for Active; 'I' for Inactive)
REMARK    1  A    between atoms: C_2  and  C_3 
REMARK    2  A    between atoms: C_2  and  N_10 
REMARK    3  A    between atoms: C_3  and  N_4 
REMARK       I    between atoms: N_10  and  C_11 
REMARK       I    between atoms: C_11  and  N_13 
REMARK    4  A    between atoms: N_13  and  C_14 
ROOT
HETATM    1  N   UNL     1     -41.988 -49.508  11.363  1.00  0.00    -0.337 N 
HETATM    2  C   UNL     1     -42.901 -49.444  12.390  1.00  0.00     0.322 C 
HETATM    3  O   UNL     1     -43.267 -48.393  12.897  1.00  0.00    -0.247 OA
HETATM    4  N   UNL     1     -43.408 -50.695  12.650  1.00  0.00    -0.295 N 
HETATM    5  H   UNL     1     -41.321 -50.262  11.441  1.00  0.00     0.164 HD
HETATM    6  H   UNL     1     -43.438 -51.315  11.855  1.00  0.00     0.172 HD
ENDROOT
BRANCH   1   7
HETATM    7  C   UNL     1     -41.599 -48.324  10.602  1.00  0.00     0.110 C 
HETATM    8  C   UNL     1     -42.838 -47.649  10.014  1.00  0.00     0.034 C 
BRANCH   7   9
HETATM    9  C   UNL     1     -40.737 -47.312  11.431  1.00  0.00     0.297 C 
BRANCH   9  10
HETATM   10  N   UNL     1     -41.350 -46.018  11.824  1.00  0.00     0.090 N 
HETATM   11  C   UNL     1     -40.878 -44.922  10.952  1.00  0.00     0.272 C 
HETATM   12  C   UNL     1     -39.426 -44.492  11.204  1.00  0.00     0.030 C 
HETATM   13  C   UNL     1     -39.184 -44.154  12.672  1.00  0.00     0.003 C 
HETATM   14  C   UNL     1     -39.695 -45.271  13.571  1.00  0.00     0.030 C 
HETATM   15  C   UNL     1     -41.142 -45.635  13.228  1.00  0.00     0.272 C 
ENDBRANCH   9  10
ENDBRANCH   7   9
ENDBRANCH   1   7
BRANCH   4  16
HETATM   16  C   UNL     1     -44.449 -50.942  13.544  1.00  0.00     0.108 A 
HETATM   17  C   UNL     1     -45.691 -51.401  13.122  1.00  0.00     0.049 A 
HETATM   18  C   UNL     1     -46.699 -51.564  14.066  1.00  0.00     0.012 A 
HETATM   19  C   UNL     1     -46.439 -51.288  15.407  1.00  0.00    -0.046 A 
HETATM   20  C   UNL     1     -47.490 -51.449  16.458  1.00  0.00     0.049 C 
HETATM   21  C   UNL     1     -45.155 -50.868  15.736  1.00  0.00     0.096 A 
HETATM   22  N   UNL     1     -44.169 -50.654  14.834  1.00  0.00    -0.352 N 
ATOM     23  HN  UNL     1     -43.258 -50.291  15.115  1.00  0.00     0.166 HD
ENDBRANCH   4  16
TORSDOF 4
ENDMDL
MODEL 7
REMARK VINA RESULT:      -5.8      1.603      3.501
REMARK  4 active torsions:
REMARK  status: ('A' for Active; 'I' for Inactive)
REMARK    1  A    between atoms: C_2  and  C_3 
REMARK    2  A    between atoms: C_2  and  N_10 
REMARK    3  A    between atoms: C_3  and  N_4 
REMARK       I    between atoms: N_10  and  C_11 
REMARK       I    between atoms: C_11  and  N_13 
REMARK    4  A    between atoms: N_13  and  C_14 
ROOT
HETATM    1  N   UNL     1     -42.046 -52.771  12.332  1.00  0.00    -0.337 N 
HETATM    2  C   UNL     1     -42.146 -51.403  12.236  1.00  0.00     0.322 C 
HETATM    3  O   UNL     1     -42.972 -50.745  12.853  1.00  0.00    -0.247 OA
HETATM    4  N   UNL     1     -41.121 -50.907  11.464  1.00  0.00    -0.295 N 
HETATM    5  H   UNL     1     -41.868 -53.242  11.457  1.00  0.00     0.164 HD
HETATM    6  H   UNL     1     -40.271 -51.450  11.488  1.00  0.00     0.172 HD
ENDROOT
BRANCH   1   7
HETATM    7  C   UNL     1     -42.720 -53.521  13.389  1.00  0.00     0.110 C 
HETATM    8  C   UNL     1     -43.978 -54.188  12.835  1.00  0.00     0.034 C 
BRANCH   7   9
HETATM    9  C   UNL     1     -41.789 -54.559  14.100  1.00  0.00     0.297 C 
BRANCH   9  10
HETATM   10  N   UNL     1     -41.599 -54.449  15.569  1.00  0.00     0.090 N 
HETATM   11  C   UNL     1     -41.420 -53.040  15.977  1.00  0.00     0.272 C 
HETATM   12  C   UNL     1     -40.060 -52.439  15.597  1.00  0.00     0.030 C 
HETATM   13  C   UNL     1     -38.903 -53.297  16.101  1.00  0.00     0.003 C 
HETATM   14  C   UNL     1     -39.101 -54.753  15.705  1.00  0.00     0.030 C 
HETATM   15  C   UNL     1     -40.492 -55.249  16.112  1.00  0.00     0.272 C 
ENDBRANCH   9  10
ENDBRANCH   7   9
ENDBRANCH   1   7
BRANCH   4  16
HETATM   16  C   UNL     1     -40.869 -49.548  11.286  1.00  0.00     0.108 A 
HETATM   17  C   UNL     1     -39.732 -48.935  11.801  1.00  0.00     0.049 A 
HETATM   18  C   UNL     1     -39.581 -47.562  11.636  1.00  0.00     0.012 A 
HETATM   19  C   UNL     1     -40.552 -46.840  10.945  1.00  0.00    -0.046 A 
HETATM   20  C   UNL     1     -40.432 -45.364  10.741  1.00  0.00     0.049 C 
HETATM   21  C   UNL     1     -41.635 -47.548  10.436  1.00  0.00     0.096 A 
HETATM   22  N   UNL     1     -41.833 -48.874  10.623  1.00  0.00    -0.352 N 
ATOM     23  HN  UNL     1     -42.672 -49.342  10.280  1.00  0.00     0.166 HD
ENDBRANCH   4  16
TORSDOF 4
ENDMDL
MODEL 8
REMARK VINA RESULT:      -5.8      2.074      3.469
REMARK  4 active torsions:
REMARK  status: ('A' for Active; 'I' for Inactive)
REMARK    1  A    between atoms: C_2  and  C_3 
REMARK    2  A    between atoms: C_2  and  N_10 
REMARK    3  A    between atoms: C_3  and  N_4 
REMARK       I    between atoms: N_10  and  C_11 
REMARK       I    between atoms: C_11  and  N_13 
REMARK    4  A    between atoms: N_13  and  C_14 
ROOT
HETATM    1  N   UNL     1     -43.639 -53.953  13.528  1.00  0.00    -0.337 N 
HETATM    2  C   UNL     1     -42.931 -52.849  13.116  1.00  0.00     0.322 C 
HETATM    3  O   UNL     1     -43.423 -51.732  13.023  1.00  0.00    -0.247 OA
HETATM    4  N   UNL     1     -41.604 -53.170  12.957  1.00  0.00    -0.295 N 
HETATM    5  H   UNL     1     -43.434 -54.799  13.015  1.00  0.00     0.164 HD
HETATM    6  H   UNL     1     -41.271 -53.909  13.557  1.00  0.00     0.172 HD
ENDROOT
BRANCH   1   7
HETATM    7  C   UNL     1     -44.949 -53.837  14.162  1.00  0.00     0.110 C 
HETATM    8  C   UNL     1     -45.777 -55.092  13.887  1.00  0.00     0.034 C 
BRANCH   7   9
HETATM    9  C   UNL     1     -44.868 -53.531  15.696  1.00  0.00     0.297 C 
BRANCH   9  10
HETATM   10  N   UNL     1     -44.888 -52.113  16.136  1.00  0.00     0.090 N 
HETATM   11  C   UNL     1     -45.327 -51.999  17.543  1.00  0.00     0.272 C 
HETATM   12  C   UNL     1     -46.825 -52.253  17.761  1.00  0.00     0.030 C 
HETATM   13  C   UNL     1     -47.684 -51.374  16.856  1.00  0.00     0.003 C 
HETATM   14  C   UNL     1     -47.214 -51.469  15.412  1.00  0.00     0.030 C 
HETATM   15  C   UNL     1     -45.707 -51.218  15.306  1.00  0.00     0.272 C 
ENDBRANCH   9  10
ENDBRANCH   7   9
ENDBRANCH   1   7
BRANCH   4  16
HETATM   16  C   UNL     1     -40.606 -52.238  12.675  1.00  0.00     0.108 A 
HETATM   17  C   UNL     1     -39.476 -52.102  13.473  1.00  0.00     0.049 A 
HETATM   18  C   UNL     1     -38.555 -51.107  13.164  1.00  0.00     0.012 A 
HETATM   19  C   UNL     1     -38.771 -50.289  12.056  1.00  0.00    -0.046 A 
HETATM   20  C   UNL     1     -37.809 -49.207  11.682  1.00  0.00     0.049 C 
HETATM   21  C   UNL     1     -39.912 -50.526  11.298  1.00  0.00     0.096 A 
HETATM   22  N   UNL     1     -40.850 -51.453  11.603  1.00  0.00    -0.352 N 
ATOM     23  HN  UNL     1     -41.700 -51.554  11.050  1.00  0.00     0.166 HD
ENDBRANCH   4  16
TORSDOF 4
ENDMDL
MODEL 9
REMARK VINA RESULT:      -5.7      1.946      3.938
REMARK  4 active torsions:
REMARK  status: ('A' for Active; 'I' for Inactive)
REMARK    1  A    between atoms: C_2  and  C_3 
REMARK    2  A    between atoms: C_2  and  N_10 
REMARK    3  A    between atoms: C_3  and  N_4 
REMARK       I    between atoms: N_10  and  C_11 
REMARK       I    between atoms: C_11  and  N_13 
REMARK    4  A    between atoms: N_13  and  C_14 
ROOT
HETATM    1  N   UNL     1     -42.436 -51.719  12.038  1.00  0.00    -0.337 N 
HETATM    2  C   UNL     1     -42.205 -50.383  12.270  1.00  0.00     0.322 C 
HETATM    3  O   UNL     1     -42.209 -49.886  13.388  1.00  0.00    -0.247 OA
HETATM    4  N   UNL     1     -41.855 -49.753  11.099  1.00  0.00    -0.295 N 
HETATM    5  H   UNL     1     -43.010 -51.911  11.229  1.00  0.00     0.164 HD
HETATM    6  H   UNL     1     -41.384 -50.338  10.427  1.00  0.00     0.172 HD
ENDROOT
BRANCH   1   7
HETATM    7  C   UNL     1     -42.420 -52.704  13.116  1.00  0.00     0.110 C 
HETATM    8  C   UNL     1     -43.637 -53.621  13.005  1.00  0.00     0.034 C 
BRANCH   7   9
HETATM    9  C   UNL     1     -41.089 -53.526  13.181  1.00  0.00     0.297 C 
BRANCH   9  10
HETATM   10  N   UNL     1     -39.945 -52.962  13.941  1.00  0.00     0.090 N 
HETATM   11  C   UNL     1     -38.902 -53.984  14.166  1.00  0.00     0.272 C 
HETATM   12  C   UNL     1     -39.273 -55.050  15.207  1.00  0.00     0.030 C 
HETATM   13  C   UNL     1     -39.705 -54.421  16.529  1.00  0.00     0.003 C 
HETATM   14  C   UNL     1     -40.760 -53.349  16.294  1.00  0.00     0.030 C 
HETATM   15  C   UNL     1     -40.300 -52.350  15.229  1.00  0.00     0.272 C 
ENDBRANCH   9  10
ENDBRANCH   7   9
ENDBRANCH   1   7
BRANCH   4  16
HETATM   16  C   UNL     1     -41.431 -48.427  11.026  1.00  0.00     0.108 A 
HETATM   17  C   UNL     1     -42.240 -47.421  10.511  1.00  0.00     0.049 A 
HETATM   18  C   UNL     1     -41.724 -46.134  10.412  1.00  0.00     0.012 A 
HETATM   19  C   UNL     1     -40.426 -45.877  10.849  1.00  0.00    -0.046 A 
HETATM   20  C   UNL     1     -39.828 -44.509  10.766  1.00  0.00     0.049 C 
HETATM   21  C   UNL     1     -39.708 -46.941  11.384  1.00  0.00     0.096 A 
HETATM   22  N   UNL     1     -40.166 -48.213  11.446  1.00  0.00    -0.352 N 
ATOM     23  HN  UNL     1     -39.582 -48.973  11.795  1.00  0.00     0.166 HD
ENDBRANCH   4  16
TORSDOF 4
ENDMDL
