MODEL 1
REMARK VINA RESULT:      -6.4      0.000      0.000
REMARK  7 active torsions:
REMARK  status: ('A' for Active; 'I' for Inactive)
REMARK    1  A    between atoms: C_2  and  N_3 
REMARK    2  A    between atoms: N_4  and  C_14 
REMARK    3  A    between atoms: C_11  and  C_25 
REMARK    4  A    between atoms: C_14  and  C_18 
REMARK    5  A    between atoms: C_18  and  O_23 
REMARK    6  A    between atoms: C_19  and  O_24 
REMARK    7  A    between atoms: C_25  and  O_28 
ROOT
HETATM    1  C   UNL     1     -42.205 -49.630  12.024  1.00  0.00     0.122 A 
HETATM    2  C   UNL     1     -41.561 -48.735  11.143  1.00  0.00     0.136 A 
HETATM    3  N   UNL     1     -42.271 -51.338  13.379  1.00  0.00    -0.324 N 
HETATM    4  C   UNL     1     -41.444 -50.678  12.518  1.00  0.00     0.140 A 
HETATM    5  N   UNL     1     -43.474 -49.664  12.567  1.00  0.00    -0.346 N 
ATOM      6  HN  UNL     1     -44.242 -49.018  12.384  1.00  0.00     0.167 HD
HETATM    7  C   UNL     1     -43.483 -50.701  13.367  1.00  0.00     0.185 A 
HETATM    8  N   UNL     1     -40.280 -49.046  10.793  1.00  0.00    -0.337 N 
ATOM      9  HN  UNL     1     -39.793 -48.487  10.091  1.00  0.00     0.168 HD
HETATM   10  N   UNL     1     -40.161 -50.969  12.253  1.00  0.00    -0.336 N 
ATOM     11  HN  UNL     1     -39.643 -51.747  12.661  1.00  0.00     0.168 HD
HETATM   12  C   UNL     1     -39.657 -50.088  11.372  1.00  0.00     0.183 A 
ENDROOT
BRANCH   2  13
HETATM   13  N   UNL     1     -42.125 -47.581  10.664  1.00  0.00    -0.356 N 
HETATM   14  C   UNL     1     -41.524 -46.259  10.876  1.00  0.00     0.112 C 
HETATM   15  C   UNL     1     -42.518 -45.295  10.175  1.00  0.00     0.061 C 
HETATM   16  C   UNL     1     -43.570 -46.173   9.486  1.00  0.00     0.140 C 
HETATM   17  C   UNL     1     -43.522 -47.482  10.284  1.00  0.00     0.157 C 
BRANCH  14  18
HETATM   18  C   UNL     1     -41.421 -45.880  12.380  1.00  0.00     0.192 C 
BRANCH  18  19
HETATM   19  O   UNL     1     -42.636 -45.316  12.875  1.00  0.00    -0.394 OA
HETATM   20  C   UNL     1     -43.265 -46.115  13.861  1.00  0.00     0.201 C 
ENDBRANCH  18  19
ENDBRANCH  14  18
BRANCH  16  21
HETATM   21  O   UNL     1     -43.240 -46.457   8.121  1.00  0.00    -0.389 OA
HETATM   22  C   UNL     1     -43.579 -47.768   7.703  1.00  0.00     0.202 C 
ENDBRANCH  16  21
ENDBRANCH   2  13
BRANCH   3  23
HETATM   23  C   UNL     1     -41.880 -52.410  14.272  1.00  0.00     0.169 C 
BRANCH  23  24
HETATM   24  C   UNL     1     -42.001 -53.838  13.690  1.00  0.00     0.078 C 
HETATM   25  C   UNL     1     -43.430 -54.025  13.145  1.00  0.00     0.066 C 
HETATM   26  C   UNL     1     -44.426 -54.301  14.260  1.00  0.00     0.170 C 
HETATM   27  O   UNL     1     -44.042 -55.477  14.958  1.00  0.00    -0.391 OA
HETATM   28  C   UNL     1     -42.794 -55.325  15.632  1.00  0.00     0.170 C 
HETATM   29  C   UNL     1     -41.667 -54.987  14.659  1.00  0.00     0.066 C 
BRANCH  24  30
HETATM   30  O   UNL     1     -41.121 -53.918  12.553  1.00  0.00    -0.388 OA
HETATM   31  H   UNL     1     -40.615 -54.749  12.611  1.00  0.00     0.210 HD
ENDBRANCH  24  30
ENDBRANCH  23  24
ENDBRANCH   3  23
TORSDOF 7
ENDMDL
MODEL 2
REMARK VINA RESULT:      -6.4      1.183      2.582
REMARK  7 active torsions:
REMARK  status: ('A' for Active; 'I' for Inactive)
REMARK    1  A    between atoms: C_2  and  N_3 
REMARK    2  A    between atoms: N_4  and  C_14 
REMARK    3  A    between atoms: C_11  and  C_25 
REMARK    4  A    between atoms: C_14  and  C_18 
REMARK    5  A    between atoms: C_18  and  O_23 
REMARK    6  A    between atoms: C_19  and  O_24 
REMARK    7  A    between atoms: C_25  and  O_28 
ROOT
HETATM    1  C   UNL     1     -42.168 -49.350  12.191  1.00  0.00     0.122 A 
HETATM    2  C   UNL     1     -41.318 -48.552  11.395  1.00  0.00     0.136 A 
HETATM    3  N   UNL     1     -42.664 -51.126  13.355  1.00  0.00    -0.324 N 
HETATM    4  C   UNL     1     -41.696 -50.603  12.549  1.00  0.00     0.140 A 
HETATM    5  N   UNL     1     -43.406 -49.126  12.759  1.00  0.00    -0.346 N 
ATOM      6  HN  UNL     1     -43.987 -48.292  12.666  1.00  0.00     0.167 HD
HETATM    7  C   UNL     1     -43.677 -50.210  13.442  1.00  0.00     0.185 A 
HETATM    8  N   UNL     1     -40.154 -49.132  10.982  1.00  0.00    -0.337 N 
ATOM      9  HN  UNL     1     -39.541 -48.639  10.332  1.00  0.00     0.168 HD
HETATM   10  N   UNL     1     -40.526 -51.174  12.223  1.00  0.00    -0.336 N 
ATOM     11  HN  UNL     1     -40.220 -52.096  12.531  1.00  0.00     0.168 HD
HETATM   12  C   UNL     1     -39.814 -50.354  11.429  1.00  0.00     0.183 A 
ENDROOT
BRANCH   2  13
HETATM   13  N   UNL     1     -41.572 -47.248  11.057  1.00  0.00    -0.356 N 
HETATM   14  C   UNL     1     -42.859 -46.811  10.503  1.00  0.00     0.112 C 
HETATM   15  C   UNL     1     -42.653 -45.289  10.276  1.00  0.00     0.061 C 
HETATM   16  C   UNL     1     -41.276 -44.940  10.854  1.00  0.00     0.140 C 
HETATM   17  C   UNL     1     -40.523 -46.275  10.815  1.00  0.00     0.157 C 
BRANCH  14  18
HETATM   18  C   UNL     1     -43.189 -47.489   9.145  1.00  0.00     0.192 C 
BRANCH  18  19
HETATM   19  O   UNL     1     -44.385 -46.970   8.563  1.00  0.00    -0.394 OA
HETATM   20  C   UNL     1     -45.561 -47.600   9.040  1.00  0.00     0.201 C 
ENDBRANCH  18  19
ENDBRANCH  14  18
BRANCH  16  21
HETATM   21  O   UNL     1     -41.347 -44.494  12.214  1.00  0.00    -0.389 OA
HETATM   22  C   UNL     1     -42.478 -43.690  12.501  1.00  0.00     0.202 C 
ENDBRANCH  16  21
ENDBRANCH   2  13
BRANCH   3  23
HETATM   23  C   UNL     1     -42.557 -52.354  14.117  1.00  0.00     0.169 C 
BRANCH  23  24
HETATM   24  C   UNL     1     -42.821 -53.655  13.324  1.00  0.00     0.078 C 
HETATM   25  C   UNL     1     -43.888 -53.365  12.251  1.00  0.00     0.066 C 
HETATM   26  C   UNL     1     -45.288 -53.339  12.842  1.00  0.00     0.170 C 
HETATM   27  O   UNL     1     -45.571 -54.593  13.446  1.00  0.00    -0.391 OA
HETATM   28  C   UNL     1     -44.724 -54.861  14.562  1.00  0.00     0.170 C 
HETATM   29  C   UNL     1     -43.252 -54.875  14.160  1.00  0.00     0.066 C 
BRANCH  24  30
HETATM   30  O   UNL     1     -41.612 -53.982  12.614  1.00  0.00    -0.388 OA
HETATM   31  H   UNL     1     -40.969 -53.261  12.749  1.00  0.00     0.210 HD
ENDBRANCH  24  30
ENDBRANCH  23  24
ENDBRANCH   3  23
TORSDOF 7
ENDMDL
MODEL 3
REMARK VINA RESULT:      -6.2      2.474      7.780
REMARK  7 active torsions:
REMARK  status: ('A' for Active; 'I' for Inactive)
REMARK    1  A    between atoms: C_2  and  N_3 
REMARK    2  A    between atoms: N_4  and  C_14 
REMARK    3  A    between atoms: C_11  and  C_25 
REMARK    4  A    between atoms: C_14  and  C_18 
REMARK    5  A    between atoms: C_18  and  O_23 
REMARK    6  A    between atoms: C_19  and  O_24 
REMARK    7  A    between atoms: C_25  and  O_28 
ROOT
HETATM    1  C   UNL     1     -40.033 -49.786  13.151  1.00  0.00     0.122 A 
HETATM    2  C   UNL     1     -39.510 -51.055  12.821  1.00  0.00     0.136 A 
HETATM    3  N   UNL     1     -40.178 -47.618  12.964  1.00  0.00    -0.324 N 
HETATM    4  C   UNL     1     -39.457 -48.691  12.528  1.00  0.00     0.140 A 
HETATM    5  N   UNL     1     -41.075 -49.381  13.961  1.00  0.00    -0.346 N 
ATOM      6  HN  UNL     1     -41.676 -49.971  14.537  1.00  0.00     0.167 HD
HETATM    7  C   UNL     1     -41.130 -48.079  13.832  1.00  0.00     0.185 A 
HETATM    8  N   UNL     1     -38.428 -51.068  11.991  1.00  0.00    -0.337 N 
ATOM      9  HN  UNL     1     -37.952 -51.947  11.787  1.00  0.00     0.168 HD
HETATM   10  N   UNL     1     -38.442 -48.674  11.650  1.00  0.00    -0.336 N 
ATOM     11  HN  UNL     1     -38.068 -47.836  11.206  1.00  0.00     0.168 HD
HETATM   12  C   UNL     1     -37.988 -49.922  11.440  1.00  0.00     0.183 A 
ENDROOT
BRANCH   2  13
HETATM   13  N   UNL     1     -40.042 -52.246  13.246  1.00  0.00    -0.356 N 
HETATM   14  C   UNL     1     -40.984 -53.027  12.436  1.00  0.00     0.112 C 
HETATM   15  C   UNL     1     -41.301 -54.251  13.334  1.00  0.00     0.061 C 
HETATM   16  C   UNL     1     -40.392 -54.141  14.565  1.00  0.00     0.140 C 
HETATM   17  C   UNL     1     -40.073 -52.643  14.642  1.00  0.00     0.157 C 
BRANCH  14  18
HETATM   18  C   UNL     1     -42.301 -52.258  12.140  1.00  0.00     0.192 C 
BRANCH  18  19
HETATM   19  O   UNL     1     -42.946 -51.817  13.335  1.00  0.00    -0.394 OA
HETATM   20  C   UNL     1     -44.353 -51.969  13.304  1.00  0.00     0.201 C 
ENDBRANCH  18  19
ENDBRANCH  14  18
BRANCH  16  21
HETATM   21  O   UNL     1     -39.164 -54.863  14.409  1.00  0.00    -0.389 OA
HETATM   22  C   UNL     1     -38.575 -55.275  15.630  1.00  0.00     0.202 C 
ENDBRANCH  16  21
ENDBRANCH   2  13
BRANCH   3  23
HETATM   23  C   UNL     1     -40.065 -46.263  12.463  1.00  0.00     0.169 C 
BRANCH  23  24
HETATM   24  C   UNL     1     -40.812 -45.978  11.139  1.00  0.00     0.078 C 
HETATM   25  C   UNL     1     -40.032 -44.901  10.360  1.00  0.00     0.066 C 
HETATM   26  C   UNL     1     -40.296 -43.508  10.910  1.00  0.00     0.170 C 
HETATM   27  O   UNL     1     -41.685 -43.222  10.828  1.00  0.00    -0.391 OA
HETATM   28  C   UNL     1     -42.465 -44.080  11.658  1.00  0.00     0.170 C 
HETATM   29  C   UNL     1     -42.283 -45.547  11.279  1.00  0.00     0.066 C 
BRANCH  24  30
HETATM   30  O   UNL     1     -40.752 -47.176  10.342  1.00  0.00    -0.388 OA
HETATM   31  H   UNL     1     -41.109 -47.915  10.867  1.00  0.00     0.210 HD
ENDBRANCH  24  30
ENDBRANCH  23  24
ENDBRANCH   3  23
TORSDOF 7
ENDMDL
MODEL 4
REMARK VINA RESULT:      -6.2      1.924      3.461
REMARK  7 active torsions:
REMARK  status: ('A' for Active; 'I' for Inactive)
REMARK    1  A    between atoms: C_2  and  N_3 
REMARK    2  A    between atoms: N_4  and  C_14 
REMARK    3  A    between atoms: C_11  and  C_25 
REMARK    4  A    between atoms: C_14  and  C_18 
REMARK    5  A    between atoms: C_18  and  O_23 
REMARK    6  A    between atoms: C_19  and  O_24 
REMARK    7  A    between atoms: C_25  and  O_28 
ROOT
HETATM    1  C   UNL     1     -42.197 -49.905  12.836  1.00  0.00     0.122 A 
HETATM    2  C   UNL     1     -42.180 -48.506  13.027  1.00  0.00     0.136 A 
HETATM    3  N   UNL     1     -42.734 -51.949  13.375  1.00  0.00    -0.324 N 
HETATM    4  C   UNL     1     -42.793 -50.664  13.831  1.00  0.00     0.140 A 
HETATM    5  N   UNL     1     -41.774 -50.717  11.804  1.00  0.00    -0.346 N 
ATOM      6  HN  UNL     1     -41.304 -50.431  10.945  1.00  0.00     0.167 HD
HETATM    7  C   UNL     1     -42.103 -51.933  12.160  1.00  0.00     0.185 A 
HETATM    8  N   UNL     1     -42.670 -48.050  14.216  1.00  0.00    -0.337 N 
ATOM      9  HN  UNL     1     -42.602 -47.059  14.448  1.00  0.00     0.168 HD
HETATM   10  N   UNL     1     -43.350 -50.242  14.976  1.00  0.00    -0.336 N 
ATOM     11  HN  UNL     1     -43.793 -50.847  15.667  1.00  0.00     0.168 HD
HETATM   12  C   UNL     1     -43.241 -48.906  15.082  1.00  0.00     0.183 A 
ENDROOT
BRANCH   2  13
HETATM   13  N   UNL     1     -41.746 -47.603  12.091  1.00  0.00    -0.356 N 
HETATM   14  C   UNL     1     -42.667 -46.775  11.303  1.00  0.00     0.112 C 
HETATM   15  C   UNL     1     -41.719 -45.948  10.395  1.00  0.00     0.061 C 
HETATM   16  C   UNL     1     -40.288 -46.279  10.835  1.00  0.00     0.140 C 
HETATM   17  C   UNL     1     -40.425 -47.658  11.492  1.00  0.00     0.157 C 
BRANCH  14  18
HETATM   18  C   UNL     1     -43.620 -47.619  10.412  1.00  0.00     0.192 C 
BRANCH  18  19
HETATM   19  O   UNL     1     -43.951 -46.948   9.196  1.00  0.00    -0.394 OA
HETATM   20  C   UNL     1     -43.717 -47.732   8.040  1.00  0.00     0.201 C 
ENDBRANCH  18  19
ENDBRANCH  14  18
BRANCH  16  21
HETATM   21  O   UNL     1     -39.785 -45.356  11.810  1.00  0.00    -0.389 OA
HETATM   22  C   UNL     1     -40.044 -43.996  11.507  1.00  0.00     0.202 C 
ENDBRANCH  16  21
ENDBRANCH   2  13
BRANCH   3  23
HETATM   23  C   UNL     1     -43.379 -53.093  13.986  1.00  0.00     0.169 C 
BRANCH  23  24
HETATM   24  C   UNL     1     -44.598 -53.658  13.221  1.00  0.00     0.078 C 
HETATM   25  C   UNL     1     -45.565 -52.498  12.918  1.00  0.00     0.066 C 
HETATM   26  C   UNL     1     -46.394 -52.123  14.136  1.00  0.00     0.170 C 
HETATM   27  O   UNL     1     -47.146 -53.250  14.562  1.00  0.00    -0.391 OA
HETATM   28  C   UNL     1     -46.315 -54.316  15.018  1.00  0.00     0.170 C 
HETATM   29  C   UNL     1     -45.364 -54.794  13.923  1.00  0.00     0.066 C 
BRANCH  24  30
HETATM   30  O   UNL     1     -44.126 -54.134  11.946  1.00  0.00    -0.388 OA
HETATM   31  H   UNL     1     -43.175 -53.935  11.875  1.00  0.00     0.210 HD
ENDBRANCH  24  30
ENDBRANCH  23  24
ENDBRANCH   3  23
TORSDOF 7
ENDMDL
MODEL 5
REMARK VINA RESULT:      -6.2      2.098      3.075
REMARK  7 active torsions:
REMARK  status: ('A' for Active; 'I' for Inactive)
REMARK    1  A    between atoms: C_2  and  N_3 
REMARK    2  A    between atoms: N_4  and  C_14 
REMARK    3  A    between atoms: C_11  and  C_25 
REMARK    4  A    between atoms: C_14  and  C_18 
REMARK    5  A    between atoms: C_18  and  O_23 
REMARK    6  A    between atoms: C_19  and  O_24 
REMARK    7  A    between atoms: C_25  and  O_28 
ROOT
HETATM    1  C   UNL     1     -42.264 -49.939  12.907  1.00  0.00     0.122 A 
HETATM    2  C   UNL     1     -42.260 -48.546  13.134  1.00  0.00     0.136 A 
HETATM    3  N   UNL     1     -42.766 -52.003  13.404  1.00  0.00    -0.324 N 
HETATM    4  C   UNL     1     -42.828 -50.732  13.895  1.00  0.00     0.140 A 
HETATM    5  N   UNL     1     -41.857 -50.719  11.844  1.00  0.00    -0.346 N 
ATOM      6  HN  UNL     1     -41.411 -50.405  10.982  1.00  0.00     0.167 HD
HETATM    7  C   UNL     1     -42.164 -51.948  12.176  1.00  0.00     0.185 A 
HETATM    8  N   UNL     1     -42.726 -48.127  14.346  1.00  0.00    -0.337 N 
ATOM      9  HN  UNL     1     -42.664 -47.142  14.603  1.00  0.00     0.168 HD
HETATM   10  N   UNL     1     -43.363 -50.346  15.064  1.00  0.00    -0.336 N 
ATOM     11  HN  UNL     1     -43.782 -50.974  15.749  1.00  0.00     0.168 HD
HETATM   12  C   UNL     1     -43.266 -49.012  15.202  1.00  0.00     0.183 A 
ENDROOT
BRANCH   2  13
HETATM   13  N   UNL     1     -41.859 -47.613  12.213  1.00  0.00    -0.356 N 
HETATM   14  C   UNL     1     -40.469 -47.496  11.757  1.00  0.00     0.112 C 
HETATM   15  C   UNL     1     -40.518 -46.314  10.753  1.00  0.00     0.061 C 
HETATM   16  C   UNL     1     -41.993 -45.920  10.608  1.00  0.00     0.140 C 
HETATM   17  C   UNL     1     -42.625 -46.417  11.914  1.00  0.00     0.157 C 
BRANCH  14  18
HETATM   18  C   UNL     1     -39.487 -47.146  12.909  1.00  0.00     0.192 C 
BRANCH  18  19
HETATM   19  O   UNL     1     -38.599 -48.224  13.205  1.00  0.00    -0.394 OA
HETATM   20  C   UNL     1     -38.515 -49.183  12.166  1.00  0.00     0.201 C 
ENDBRANCH  18  19
ENDBRANCH  14  18
BRANCH  16  21
HETATM   21  O   UNL     1     -42.633 -46.580   9.510  1.00  0.00    -0.389 OA
HETATM   22  C   UNL     1     -43.805 -45.931   9.047  1.00  0.00     0.202 C 
ENDBRANCH  16  21
ENDBRANCH   2  13
BRANCH   3  23
HETATM   23  C   UNL     1     -43.382 -53.171  14.000  1.00  0.00     0.169 C 
BRANCH  23  24
HETATM   24  C   UNL     1     -44.606 -53.738  13.243  1.00  0.00     0.078 C 
HETATM   25  C   UNL     1     -45.567 -52.575  12.929  1.00  0.00     0.066 C 
HETATM   26  C   UNL     1     -46.392 -52.183  14.144  1.00  0.00     0.170 C 
HETATM   27  O   UNL     1     -47.149 -53.302  14.583  1.00  0.00    -0.391 OA
HETATM   28  C   UNL     1     -46.323 -54.367  15.049  1.00  0.00     0.170 C 
HETATM   29  C   UNL     1     -45.376 -54.862  13.959  1.00  0.00     0.066 C 
BRANCH  24  30
HETATM   30  O   UNL     1     -44.138 -54.230  11.973  1.00  0.00    -0.388 OA
HETATM   31  H   UNL     1     -44.700 -54.979  11.705  1.00  0.00     0.210 HD
ENDBRANCH  24  30
ENDBRANCH  23  24
ENDBRANCH   3  23
TORSDOF 7
ENDMDL
MODEL 6
REMARK VINA RESULT:      -6.1      3.042      7.251
REMARK  7 active torsions:
REMARK  status: ('A' for Active; 'I' for Inactive)
REMARK    1  A    between atoms: C_2  and  N_3 
REMARK    2  A    between atoms: N_4  and  C_14 
REMARK    3  A    between atoms: C_11  and  C_25 
REMARK    4  A    between atoms: C_14  and  C_18 
REMARK    5  A    between atoms: C_18  and  O_23 
REMARK    6  A    between atoms: C_19  and  O_24 
REMARK    7  A    between atoms: C_25  and  O_28 
ROOT
HETATM    1  C   UNL     1     -42.510 -52.001  13.375  1.00  0.00     0.122 A 
HETATM    2  C   UNL     1     -42.839 -53.288  13.853  1.00  0.00     0.136 A 
HETATM    3  N   UNL     1     -41.320 -50.588  12.216  1.00  0.00    -0.324 N 
HETATM    4  C   UNL     1     -41.369 -51.897  12.595  1.00  0.00     0.140 A 
HETATM    5  N   UNL     1     -43.133 -50.774  13.476  1.00  0.00    -0.346 N 
ATOM      6  HN  UNL     1     -43.988 -50.555  13.987  1.00  0.00     0.167 HD
HETATM    7  C   UNL     1     -42.392 -49.949  12.779  1.00  0.00     0.185 A 
HETATM    8  N   UNL     1     -41.949 -54.284  13.577  1.00  0.00    -0.337 N 
ATOM      9  HN  UNL     1     -42.086 -55.215  13.971  1.00  0.00     0.168 HD
HETATM   10  N   UNL     1     -40.513 -52.869  12.242  1.00  0.00    -0.336 N 
ATOM     11  HN  UNL     1     -39.695 -52.738  11.648  1.00  0.00     0.168 HD
HETATM   12  C   UNL     1     -40.889 -54.040  12.785  1.00  0.00     0.183 A 
ENDROOT
BRANCH   2  13
HETATM   13  N   UNL     1     -43.993 -53.591  14.528  1.00  0.00    -0.356 N 
HETATM   14  C   UNL     1     -44.118 -53.453  15.984  1.00  0.00     0.112 C 
HETATM   15  C   UNL     1     -45.571 -53.921  16.266  1.00  0.00     0.061 C 
HETATM   16  C   UNL     1     -46.224 -54.173  14.901  1.00  0.00     0.140 C 
HETATM   17  C   UNL     1     -45.031 -54.443  13.977  1.00  0.00     0.157 C 
BRANCH  14  18
HETATM   18  C   UNL     1     -43.129 -54.365  16.761  1.00  0.00     0.192 C 
BRANCH  18  19
HETATM   19  O   UNL     1     -43.077 -55.684  16.217  1.00  0.00    -0.394 OA
HETATM   20  C   UNL     1     -41.977 -56.442  16.688  1.00  0.00     0.201 C 
ENDBRANCH  18  19
ENDBRANCH  14  18
BRANCH  16  21
HETATM   21  O   UNL     1     -46.933 -53.028  14.411  1.00  0.00    -0.389 OA
HETATM   22  C   UNL     1     -47.243 -52.068  15.406  1.00  0.00     0.202 C 
ENDBRANCH  16  21
ENDBRANCH   2  13
BRANCH   3  23
HETATM   23  C   UNL     1     -40.399 -50.020  11.252  1.00  0.00     0.169 C 
BRANCH  23  24
HETATM   24  C   UNL     1     -39.307 -49.095  11.839  1.00  0.00     0.078 C 
HETATM   25  C   UNL     1     -37.930 -49.612  11.381  1.00  0.00     0.066 C 
HETATM   26  C   UNL     1     -37.478 -50.810  12.200  1.00  0.00     0.170 C 
HETATM   27  O   UNL     1     -37.400 -50.445  13.571  1.00  0.00    -0.391 OA
HETATM   28  C   UNL     1     -38.675 -50.108  14.115  1.00  0.00     0.170 C 
HETATM   29  C   UNL     1     -39.313 -48.938  13.371  1.00  0.00     0.066 C 
BRANCH  24  30
HETATM   30  O   UNL     1     -39.472 -47.796  11.238  1.00  0.00    -0.388 OA
HETATM   31  H   UNL     1     -40.287 -47.394  11.590  1.00  0.00     0.210 HD
ENDBRANCH  24  30
ENDBRANCH  23  24
ENDBRANCH   3  23
TORSDOF 7
ENDMDL
MODEL 7
REMARK VINA RESULT:      -6.0      2.574      4.428
REMARK  7 active torsions:
REMARK  status: ('A' for Active; 'I' for Inactive)
REMARK    1  A    between atoms: C_2  and  N_3 
REMARK    2  A    between atoms: N_4  and  C_14 
REMARK    3  A    between atoms: C_11  and  C_25 
REMARK    4  A    between atoms: C_14  and  C_18 
REMARK    5  A    between atoms: C_18  and  O_23 
REMARK    6  A    between atoms: C_19  and  O_24 
REMARK    7  A    between atoms: C_25  and  O_28 
ROOT
HETATM    1  C   UNL     1     -41.823 -50.568  13.340  1.00  0.00     0.122 A 
HETATM    2  C   UNL     1     -40.484 -50.492  12.901  1.00  0.00     0.136 A 
HETATM    3  N   UNL     1     -43.823 -51.439  13.385  1.00  0.00    -0.324 N 
HETATM    4  C   UNL     1     -42.622 -51.533  12.745  1.00  0.00     0.140 A 
HETATM    5  N   UNL     1     -42.533 -49.895  14.313  1.00  0.00    -0.346 N 
ATOM      6  HN  UNL     1     -42.199 -49.137  14.909  1.00  0.00     0.167 HD
HETATM    7  C   UNL     1     -43.727 -50.434  14.310  1.00  0.00     0.185 A 
HETATM    8  N   UNL     1     -40.136 -51.313  11.869  1.00  0.00    -0.337 N 
ATOM      9  HN  UNL     1     -39.208 -51.240  11.450  1.00  0.00     0.168 HD
HETATM   10  N   UNL     1     -42.290 -52.406  11.781  1.00  0.00    -0.336 N 
ATOM     11  HN  UNL     1     -42.917 -53.110  11.391  1.00  0.00     0.168 HD
HETATM   12  C   UNL     1     -41.014 -52.219  11.403  1.00  0.00     0.183 A 
ENDROOT
BRANCH   2  13
HETATM   13  N   UNL     1     -39.529 -49.687  13.466  1.00  0.00    -0.356 N 
HETATM   14  C   UNL     1     -39.623 -48.222  13.458  1.00  0.00     0.112 C 
HETATM   15  C   UNL     1     -38.328 -47.775  14.187  1.00  0.00     0.061 C 
HETATM   16  C   UNL     1     -37.639 -49.053  14.684  1.00  0.00     0.140 C 
HETATM   17  C   UNL     1     -38.178 -50.138  13.745  1.00  0.00     0.157 C 
BRANCH  14  18
HETATM   18  C   UNL     1     -39.630 -47.629  12.022  1.00  0.00     0.192 C 
BRANCH  18  19
HETATM   19  O   UNL     1     -40.913 -47.120  11.658  1.00  0.00    -0.394 OA
HETATM   20  C   UNL     1     -41.536 -47.856  10.621  1.00  0.00     0.201 C 
ENDBRANCH  18  19
ENDBRANCH  14  18
BRANCH  16  21
HETATM   21  O   UNL     1     -38.006 -49.387  16.028  1.00  0.00    -0.389 OA
HETATM   22  C   UNL     1     -37.720 -50.727  16.390  1.00  0.00     0.202 C 
ENDBRANCH  16  21
ENDBRANCH   2  13
BRANCH   3  23
HETATM   23  C   UNL     1     -44.936 -52.354  13.233  1.00  0.00     0.169 C 
BRANCH  23  24
HETATM   24  C   UNL     1     -44.631 -53.835  13.556  1.00  0.00     0.078 C 
HETATM   25  C   UNL     1     -45.931 -54.509  14.034  1.00  0.00     0.066 C 
HETATM   26  C   UNL     1     -46.243 -54.166  15.482  1.00  0.00     0.170 C 
HETATM   27  O   UNL     1     -45.171 -54.593  16.311  1.00  0.00    -0.391 OA
HETATM   28  C   UNL     1     -43.960 -53.890  16.037  1.00  0.00     0.170 C 
HETATM   29  C   UNL     1     -43.516 -54.079  14.589  1.00  0.00     0.066 C 
BRANCH  24  30
HETATM   30  O   UNL     1     -44.271 -54.482  12.321  1.00  0.00    -0.388 OA
HETATM   31  H   UNL     1     -43.737 -53.862  11.791  1.00  0.00     0.210 HD
ENDBRANCH  24  30
ENDBRANCH  23  24
ENDBRANCH   3  23
TORSDOF 7
ENDMDL
MODEL 8
REMARK VINA RESULT:      -5.9      2.039      7.393
REMARK  7 active torsions:
REMARK  status: ('A' for Active; 'I' for Inactive)
REMARK    1  A    between atoms: C_2  and  N_3 
REMARK    2  A    between atoms: N_4  and  C_14 
REMARK    3  A    between atoms: C_11  and  C_25 
REMARK    4  A    between atoms: C_14  and  C_18 
REMARK    5  A    between atoms: C_18  and  O_23 
REMARK    6  A    between atoms: C_19  and  O_24 
REMARK    7  A    between atoms: C_25  and  O_28 
ROOT
HETATM    1  C   UNL     1     -41.938 -50.850  13.988  1.00  0.00     0.122 A 
HETATM    2  C   UNL     1     -41.686 -52.233  14.119  1.00  0.00     0.136 A 
HETATM    3  N   UNL     1     -41.403 -48.803  13.457  1.00  0.00    -0.324 N 
HETATM    4  C   UNL     1     -40.883 -50.060  13.560  1.00  0.00     0.140 A 
HETATM    5  N   UNL     1     -43.073 -50.082  14.154  1.00  0.00    -0.346 N 
ATOM      6  HN  UNL     1     -43.994 -50.398  14.459  1.00  0.00     0.167 HD
HETATM    7  C   UNL     1     -42.718 -48.862  13.835  1.00  0.00     0.185 A 
HETATM    8  N   UNL     1     -40.403 -52.639  13.900  1.00  0.00    -0.337 N 
ATOM      9  HN  UNL     1     -40.140 -53.611  14.065  1.00  0.00     0.168 HD
HETATM   10  N   UNL     1     -39.629 -50.438  13.264  1.00  0.00    -0.336 N 
ATOM     11  HN  UNL     1     -38.894 -49.813  12.934  1.00  0.00     0.168 HD
HETATM   12  C   UNL     1     -39.483 -51.759  13.465  1.00  0.00     0.183 A 
ENDROOT
BRANCH   2  13
HETATM   13  N   UNL     1     -42.644 -53.170  14.407  1.00  0.00    -0.356 N 
HETATM   14  C   UNL     1     -43.342 -53.936  13.368  1.00  0.00     0.112 C 
HETATM   15  C   UNL     1     -44.317 -54.832  14.175  1.00  0.00     0.061 C 
HETATM   16  C   UNL     1     -44.003 -54.600  15.659  1.00  0.00     0.140 C 
HETATM   17  C   UNL     1     -43.353 -53.211  15.673  1.00  0.00     0.157 C 
BRANCH  14  18
HETATM   18  C   UNL     1     -44.160 -53.032  12.404  1.00  0.00     0.192 C 
BRANCH  18  19
HETATM   19  O   UNL     1     -45.107 -52.223  13.101  1.00  0.00    -0.394 OA
HETATM   20  C   UNL     1     -46.364 -52.145  12.453  1.00  0.00     0.201 C 
ENDBRANCH  18  19
ENDBRANCH  14  18
BRANCH  16  21
HETATM   21  O   UNL     1     -43.064 -55.550  16.177  1.00  0.00    -0.389 OA
HETATM   22  C   UNL     1     -42.537 -55.209  17.448  1.00  0.00     0.202 C 
ENDBRANCH  16  21
ENDBRANCH   2  13
BRANCH   3  23
HETATM   23  C   UNL     1     -40.732 -47.654  12.884  1.00  0.00     0.169 C 
BRANCH  23  24
HETATM   24  C   UNL     1     -40.515 -47.704  11.353  1.00  0.00     0.078 C 
HETATM   25  C   UNL     1     -40.284 -46.267  10.846  1.00  0.00     0.066 C 
HETATM   26  C   UNL     1     -41.588 -45.497  10.724  1.00  0.00     0.170 C 
HETATM   27  O   UNL     1     -42.454 -46.170   9.821  1.00  0.00    -0.391 OA
HETATM   28  C   UNL     1     -42.848 -47.453  10.304  1.00  0.00     0.170 C 
HETATM   29  C   UNL     1     -41.643 -48.361  10.537  1.00  0.00     0.066 C 
BRANCH  24  30
HETATM   30  O   UNL     1     -39.289 -48.420  11.113  1.00  0.00    -0.388 OA
HETATM   31  H   UNL     1     -38.737 -48.366  11.914  1.00  0.00     0.210 HD
ENDBRANCH  24  30
ENDBRANCH  23  24
ENDBRANCH   3  23
TORSDOF 7
ENDMDL
MODEL 9
REMARK VINA RESULT:      -5.9      3.055      4.642
REMARK  7 active torsions:
REMARK  status: ('A' for Active; 'I' for Inactive)
REMARK    1  A    between atoms: C_2  and  N_3 
REMARK    2  A    between atoms: N_4  and  C_14 
REMARK    3  A    between atoms: C_11  and  C_25 
REMARK    4  A    between atoms: C_14  and  C_18 
REMARK    5  A    between atoms: C_18  and  O_23 
REMARK    6  A    between atoms: C_19  and  O_24 
REMARK    7  A    between atoms: C_25  and  O_28 
ROOT
HETATM    1  C   UNL     1     -41.228 -49.601  13.991  1.00  0.00     0.122 A 
HETATM    2  C   UNL     1     -40.181 -48.828  13.444  1.00  0.00     0.136 A 
HETATM    3  N   UNL     1     -42.981 -50.893  13.867  1.00  0.00    -0.324 N 
HETATM    4  C   UNL     1     -42.130 -50.156  13.097  1.00  0.00     0.140 A 
HETATM    5  N   UNL     1     -41.536 -49.985  15.281  1.00  0.00    -0.346 N 
ATOM      6  HN  UNL     1     -41.045 -49.727  16.137  1.00  0.00     0.167 HD
HETATM    7  C   UNL     1     -42.594 -50.750  15.172  1.00  0.00     0.185 A 
HETATM    8  N   UNL     1     -40.217 -48.628  12.095  1.00  0.00    -0.337 N 
ATOM      9  HN  UNL     1     -39.539 -48.006  11.654  1.00  0.00     0.168 HD
HETATM   10  N   UNL     1     -42.150 -50.041  11.760  1.00  0.00    -0.336 N 
ATOM     11  HN  UNL     1     -42.830 -50.488  11.146  1.00  0.00     0.168 HD
HETATM   12  C   UNL     1     -41.144 -49.251  11.346  1.00  0.00     0.183 A 
ENDROOT
BRANCH   2  13
HETATM   13  N   UNL     1     -39.137 -48.314  14.169  1.00  0.00    -0.356 N 
HETATM   14  C   UNL     1     -39.320 -47.289  15.203  1.00  0.00     0.112 C 
HETATM   15  C   UNL     1     -37.877 -47.030  15.712  1.00  0.00     0.061 C 
HETATM   16  C   UNL     1     -36.972 -48.047  15.004  1.00  0.00     0.140 C 
HETATM   17  C   UNL     1     -37.755 -48.400  13.734  1.00  0.00     0.157 C 
BRANCH  14  18
HETATM   18  C   UNL     1     -39.906 -45.965  14.638  1.00  0.00     0.192 C 
BRANCH  18  19
HETATM   19  O   UNL     1     -38.884 -45.030  14.294  1.00  0.00    -0.394 OA
HETATM   20  C   UNL     1     -39.043 -44.476  13.000  1.00  0.00     0.201 C 
ENDBRANCH  18  19
ENDBRANCH  14  18
BRANCH  16  21
HETATM   21  O   UNL     1     -36.783 -49.242  15.772  1.00  0.00    -0.389 OA
HETATM   22  C   UNL     1     -35.597 -49.251  16.548  1.00  0.00     0.202 C 
ENDBRANCH  16  21
ENDBRANCH   2  13
BRANCH   3  23
HETATM   23  C   UNL     1     -43.999 -51.798  13.373  1.00  0.00     0.169 C 
BRANCH  23  24
HETATM   24  C   UNL     1     -43.484 -53.166  12.867  1.00  0.00     0.078 C 
HETATM   25  C   UNL     1     -44.686 -54.122  12.736  1.00  0.00     0.066 C 
HETATM   26  C   UNL     1     -45.108 -54.682  14.085  1.00  0.00     0.170 C 
HETATM   27  O   UNL     1     -44.019 -55.386  14.667  1.00  0.00    -0.391 OA
HETATM   28  C   UNL     1     -42.920 -54.530  14.971  1.00  0.00     0.170 C 
HETATM   29  C   UNL     1     -42.390 -53.830  13.722  1.00  0.00     0.066 C 
BRANCH  24  30
HETATM   30  O   UNL     1     -42.977 -52.970  11.533  1.00  0.00    -0.388 OA
HETATM   31  H   UNL     1     -42.087 -52.579  11.595  1.00  0.00     0.210 HD
ENDBRANCH  24  30
ENDBRANCH  23  24
ENDBRANCH   3  23
TORSDOF 7
ENDMDL
