MODEL 1
REMARK VINA RESULT:      -6.1      0.000      0.000
REMARK  7 active torsions:
REMARK  status: ('A' for Active; 'I' for Inactive)
REMARK    1  A    between atoms: O_2  and  C_3 
REMARK    2  A    between atoms: C_3  and  C_4 
REMARK    3  A    between atoms: C_4  and  O_5 
REMARK    4  A    between atoms: O_5  and  C_6 
REMARK    5  A    between atoms: C_9  and  C_10 
REMARK    6  A    between atoms: C_10  and  N_11 
REMARK       I    between atoms: N_11  and  C_12 
REMARK    7  A    between atoms: C_12  and  C_14 
REMARK       I    between atoms: N_18  and  C_19 
ROOT
HETATM    1  C   UNL     1     -40.858 -50.395  12.946  1.00  0.00     0.162 C 
ENDROOT
BRANCH   1   2
HETATM    2  C   UNL     1     -41.600 -49.501  12.005  1.00  0.00    -0.025 A 
HETATM    3  C   UNL     1     -42.803 -48.893  12.369  1.00  0.00     0.014 A 
HETATM    4  C   UNL     1     -43.411 -47.992  11.499  1.00  0.00     0.057 A 
HETATM    5  C   UNL     1     -42.810 -47.755  10.275  1.00  0.00     0.141 A 
HETATM    6  N   UNL     1     -41.665 -48.348   9.879  1.00  0.00    -0.346 N 
HETATM    7  C   UNL     1     -41.084 -49.202  10.749  1.00  0.00     0.099 A 
ATOM      8  HN  UNL     1     -41.256 -48.159   8.963  1.00  0.00     0.167 HD
BRANCH   5   9
HETATM    9  O   UNL     1     -43.406 -46.809   9.465  1.00  0.00    -0.334 OA
BRANCH   9  10
HETATM   10  C   UNL     1     -44.531 -47.335   8.757  1.00  0.00     0.203 C 
BRANCH  10  11
HETATM   11  C   UNL     1     -45.713 -46.384   8.916  1.00  0.00     0.193 C 
BRANCH  11  12
HETATM   12  O   UNL     1     -46.925 -47.131   8.794  1.00  0.00    -0.394 OA
HETATM   13  C   UNL     1     -46.698 -48.529   8.872  1.00  0.00     0.201 C 
ENDBRANCH  11  12
ENDBRANCH  10  11
ENDBRANCH   9  10
ENDBRANCH   5   9
ENDBRANCH   1   2
BRANCH   1  14
HETATM   14  N   UNL     1     -41.629 -51.527  13.403  1.00  0.00    -0.355 N 
HETATM   15  C   UNL     1     -41.214 -52.781  13.018  1.00  0.00     0.240 C 
HETATM   16  O   UNL     1     -40.302 -52.938  12.203  1.00  0.00    -0.271 OA
HETATM   17  H   UNL     1     -42.280 -51.431  14.173  1.00  0.00     0.162 HD
BRANCH  15  18
HETATM   18  C   UNL     1     -42.013 -53.987  13.524  1.00  0.00     0.179 C 
HETATM   19  C   UNL     1     -43.509 -53.728  13.265  1.00  0.00     0.037 C 
HETATM   20  C   UNL     1     -44.254 -54.698  14.184  1.00  0.00     0.022 C 
HETATM   21  C   UNL     1     -43.175 -55.317  15.055  1.00  0.00     0.127 C 
HETATM   22  N   UNL     1     -42.032 -54.425  14.923  1.00  0.00    -0.339 N 
HETATM   23  C   UNL     1     -40.916 -54.777  15.673  1.00  0.00     0.216 C 
HETATM   24  O   UNL     1     -40.916 -55.742  16.437  1.00  0.00    -0.274 OA
HETATM   25  C   UNL     1     -39.757 -53.819  15.682  1.00  0.00     0.117 C 
ENDBRANCH  15  18
ENDBRANCH   1  14
TORSDOF 7
ENDMDL
MODEL 2
REMARK VINA RESULT:      -6.0      3.670      6.519
REMARK  7 active torsions:
REMARK  status: ('A' for Active; 'I' for Inactive)
REMARK    1  A    between atoms: O_2  and  C_3 
REMARK    2  A    between atoms: C_3  and  C_4 
REMARK    3  A    between atoms: C_4  and  O_5 
REMARK    4  A    between atoms: O_5  and  C_6 
REMARK    5  A    between atoms: C_9  and  C_10 
REMARK    6  A    between atoms: C_10  and  N_11 
REMARK       I    between atoms: N_11  and  C_12 
REMARK    7  A    between atoms: C_12  and  C_14 
REMARK       I    between atoms: N_18  and  C_19 
ROOT
HETATM    1  C   UNL     1     -39.453 -52.938  13.724  1.00  0.00     0.162 C 
ENDROOT
BRANCH   1   2
HETATM    2  C   UNL     1     -40.863 -53.181  13.290  1.00  0.00    -0.025 A 
HETATM    3  C   UNL     1     -41.722 -54.003  14.022  1.00  0.00     0.014 A 
HETATM    4  C   UNL     1     -43.054 -54.124  13.635  1.00  0.00     0.057 A 
HETATM    5  C   UNL     1     -43.475 -53.445  12.506  1.00  0.00     0.141 A 
HETATM    6  N   UNL     1     -42.664 -52.668  11.758  1.00  0.00    -0.346 N 
HETATM    7  C   UNL     1     -41.382 -52.550  12.165  1.00  0.00     0.099 A 
ATOM      8  HN  UNL     1     -43.005 -52.191  10.922  1.00  0.00     0.167 HD
BRANCH   5   9
HETATM    9  O   UNL     1     -44.815 -53.538  12.189  1.00  0.00    -0.334 OA
BRANCH   9  10
HETATM   10  C   UNL     1     -45.657 -53.227  13.302  1.00  0.00     0.203 C 
BRANCH  10  11
HETATM   11  C   UNL     1     -46.327 -51.878  13.062  1.00  0.00     0.193 C 
BRANCH  11  12
HETATM   12  O   UNL     1     -46.476 -51.209  14.315  1.00  0.00    -0.394 OA
HETATM   13  C   UNL     1     -45.249 -51.126  15.023  1.00  0.00     0.201 C 
ENDBRANCH  11  12
ENDBRANCH  10  11
ENDBRANCH   9  10
ENDBRANCH   5   9
ENDBRANCH   1   2
BRANCH   1  14
HETATM   14  N   UNL     1     -39.162 -51.551  14.004  1.00  0.00    -0.355 N 
HETATM   15  C   UNL     1     -38.162 -50.948  13.277  1.00  0.00     0.240 C 
HETATM   16  O   UNL     1     -37.443 -51.591  12.510  1.00  0.00    -0.271 OA
HETATM   17  H   UNL     1     -39.823 -50.978  14.516  1.00  0.00     0.162 HD
BRANCH  15  18
HETATM   18  C   UNL     1     -37.870 -49.468  13.551  1.00  0.00     0.179 C 
HETATM   19  C   UNL     1     -37.499 -49.309  15.038  1.00  0.00     0.037 C 
HETATM   20  C   UNL     1     -37.684 -47.821  15.345  1.00  0.00     0.022 C 
HETATM   21  C   UNL     1     -38.330 -47.243  14.098  1.00  0.00     0.127 C 
HETATM   22  N   UNL     1     -38.855 -48.396  13.381  1.00  0.00    -0.339 N 
HETATM   23  C   UNL     1     -39.532 -48.103  12.203  1.00  0.00     0.216 C 
HETATM   24  O   UNL     1     -39.722 -46.947  11.825  1.00  0.00    -0.274 OA
HETATM   25  C   UNL     1     -40.212 -49.241  11.494  1.00  0.00     0.117 C 
ENDBRANCH  15  18
ENDBRANCH   1  14
TORSDOF 7
ENDMDL
MODEL 3
REMARK VINA RESULT:      -6.0      2.996      3.845
REMARK  7 active torsions:
REMARK  status: ('A' for Active; 'I' for Inactive)
REMARK    1  A    between atoms: O_2  and  C_3 
REMARK    2  A    between atoms: C_3  and  C_4 
REMARK    3  A    between atoms: C_4  and  O_5 
REMARK    4  A    between atoms: O_5  and  C_6 
REMARK    5  A    between atoms: C_9  and  C_10 
REMARK    6  A    between atoms: C_10  and  N_11 
REMARK       I    between atoms: N_11  and  C_12 
REMARK    7  A    between atoms: C_12  and  C_14 
REMARK       I    between atoms: N_18  and  C_19 
ROOT
HETATM    1  C   UNL     1     -41.949 -50.554  12.500  1.00  0.00     0.162 C 
ENDROOT
BRANCH   1   2
HETATM    2  C   UNL     1     -41.977 -49.251  11.768  1.00  0.00    -0.025 A 
HETATM    3  C   UNL     1     -43.081 -48.399  11.833  1.00  0.00     0.014 A 
HETATM    4  C   UNL     1     -43.026 -47.152  11.215  1.00  0.00     0.057 A 
HETATM    5  C   UNL     1     -41.878 -46.813  10.522  1.00  0.00     0.141 A 
HETATM    6  N   UNL     1     -40.805 -47.624  10.413  1.00  0.00    -0.346 N 
HETATM    7  C   UNL     1     -40.875 -48.819  11.038  1.00  0.00     0.099 A 
ATOM      8  HN  UNL     1     -39.979 -47.347   9.883  1.00  0.00     0.167 HD
BRANCH   5   9
HETATM    9  O   UNL     1     -41.834 -45.545   9.977  1.00  0.00    -0.334 OA
BRANCH   9  10
HETATM   10  C   UNL     1     -40.693 -44.806  10.418  1.00  0.00     0.203 C 
BRANCH  10  11
HETATM   11  C   UNL     1     -41.144 -43.718  11.387  1.00  0.00     0.193 C 
BRANCH  11  12
HETATM   12  O   UNL     1     -41.705 -42.638  10.638  1.00  0.00    -0.394 OA
HETATM   13  C   UNL     1     -43.025 -42.330  11.059  1.00  0.00     0.201 C 
ENDBRANCH  11  12
ENDBRANCH  10  11
ENDBRANCH   9  10
ENDBRANCH   5   9
ENDBRANCH   1   2
BRANCH   1  14
HETATM   14  N   UNL     1     -43.237 -51.202  12.584  1.00  0.00    -0.355 N 
HETATM   15  C   UNL     1     -43.758 -51.434  13.836  1.00  0.00     0.240 C 
HETATM   16  O   UNL     1     -43.099 -51.227  14.857  1.00  0.00    -0.271 OA
HETATM   17  H   UNL     1     -43.845 -51.248  11.774  1.00  0.00     0.162 HD
BRANCH  15  18
HETATM   18  C   UNL     1     -45.137 -52.095  13.927  1.00  0.00     0.179 C 
HETATM   19  C   UNL     1     -46.050 -51.208  14.796  1.00  0.00     0.037 C 
HETATM   20  C   UNL     1     -47.204 -52.114  15.229  1.00  0.00     0.022 C 
HETATM   21  C   UNL     1     -46.805 -53.503  14.763  1.00  0.00     0.127 C 
HETATM   22  N   UNL     1     -45.373 -53.417  14.514  1.00  0.00    -0.339 N 
HETATM   23  C   UNL     1     -44.770 -54.600  14.105  1.00  0.00     0.216 C 
HETATM   24  O   UNL     1     -45.394 -55.657  14.013  1.00  0.00    -0.274 OA
HETATM   25  C   UNL     1     -43.272 -54.603  13.967  1.00  0.00     0.117 C 
ENDBRANCH  15  18
ENDBRANCH   1  14
TORSDOF 7
ENDMDL
MODEL 4
REMARK VINA RESULT:      -5.8      2.510      3.104
REMARK  7 active torsions:
REMARK  status: ('A' for Active; 'I' for Inactive)
REMARK    1  A    between atoms: O_2  and  C_3 
REMARK    2  A    between atoms: C_3  and  C_4 
REMARK    3  A    between atoms: C_4  and  O_5 
REMARK    4  A    between atoms: O_5  and  C_6 
REMARK    5  A    between atoms: C_9  and  C_10 
REMARK    6  A    between atoms: C_10  and  N_11 
REMARK       I    between atoms: N_11  and  C_12 
REMARK    7  A    between atoms: C_12  and  C_14 
REMARK       I    between atoms: N_18  and  C_19 
ROOT
HETATM    1  C   UNL     1     -41.465 -51.516  13.442  1.00  0.00     0.162 C 
ENDROOT
BRANCH   1   2
HETATM    2  C   UNL     1     -41.658 -50.404  12.462  1.00  0.00    -0.025 A 
HETATM    3  C   UNL     1     -42.710 -49.494  12.587  1.00  0.00     0.014 A 
HETATM    4  C   UNL     1     -42.796 -48.417  11.708  1.00  0.00     0.057 A 
HETATM    5  C   UNL     1     -41.844 -48.305  10.710  1.00  0.00     0.141 A 
HETATM    6  N   UNL     1     -40.833 -49.183  10.542  1.00  0.00    -0.346 N 
HETATM    7  C   UNL     1     -40.760 -50.208  11.418  1.00  0.00     0.099 A 
ATOM      8  HN  UNL     1     -40.156 -49.078   9.786  1.00  0.00     0.167 HD
BRANCH   5   9
HETATM    9  O   UNL     1     -41.924 -47.192   9.898  1.00  0.00    -0.334 OA
BRANCH   9  10
HETATM   10  C   UNL     1     -43.042 -46.363  10.226  1.00  0.00     0.203 C 
BRANCH  10  11
HETATM   11  C   UNL     1     -43.828 -46.055   8.956  1.00  0.00     0.193 C 
BRANCH  11  12
HETATM   12  O   UNL     1     -44.441 -47.259   8.491  1.00  0.00    -0.394 OA
HETATM   13  C   UNL     1     -45.591 -47.598   9.249  1.00  0.00     0.201 C 
ENDBRANCH  11  12
ENDBRANCH  10  11
ENDBRANCH   9  10
ENDBRANCH   5   9
ENDBRANCH   1   2
BRANCH   1  14
HETATM   14  N   UNL     1     -42.620 -52.369  13.589  1.00  0.00    -0.355 N 
HETATM   15  C   UNL     1     -42.975 -52.752  14.863  1.00  0.00     0.240 C 
HETATM   16  O   UNL     1     -42.263 -52.498  15.836  1.00  0.00    -0.271 OA
HETATM   17  H   UNL     1     -43.288 -52.469  12.833  1.00  0.00     0.162 HD
BRANCH  15  18
HETATM   18  C   UNL     1     -44.219 -53.634  15.025  1.00  0.00     0.179 C 
HETATM   19  C   UNL     1     -44.160 -54.762  13.978  1.00  0.00     0.037 C 
HETATM   20  C   UNL     1     -45.591 -55.294  13.874  1.00  0.00     0.022 C 
HETATM   21  C   UNL     1     -46.425 -54.333  14.702  1.00  0.00     0.127 C 
HETATM   22  N   UNL     1     -45.591 -53.150  14.854  1.00  0.00    -0.339 N 
HETATM   23  C   UNL     1     -46.171 -52.103  15.560  1.00  0.00     0.216 C 
HETATM   24  O   UNL     1     -47.327 -52.154  15.980  1.00  0.00    -0.274 OA
HETATM   25  C   UNL     1     -45.409 -50.808  15.629  1.00  0.00     0.117 C 
ENDBRANCH  15  18
ENDBRANCH   1  14
TORSDOF 7
ENDMDL
MODEL 5
REMARK VINA RESULT:      -5.7      2.586      3.460
REMARK  7 active torsions:
REMARK  status: ('A' for Active; 'I' for Inactive)
REMARK    1  A    between atoms: O_2  and  C_3 
REMARK    2  A    between atoms: C_3  and  C_4 
REMARK    3  A    between atoms: C_4  and  O_5 
REMARK    4  A    between atoms: O_5  and  C_6 
REMARK    5  A    between atoms: C_9  and  C_10 
REMARK    6  A    between atoms: C_10  and  N_11 
REMARK       I    between atoms: N_11  and  C_12 
REMARK    7  A    between atoms: C_12  and  C_14 
REMARK       I    between atoms: N_18  and  C_19 
ROOT
HETATM    1  C   UNL     1     -40.624 -51.266  12.874  1.00  0.00     0.162 C 
ENDROOT
BRANCH   1   2
HETATM    2  C   UNL     1     -40.472 -49.857  12.398  1.00  0.00    -0.025 A 
HETATM    3  C   UNL     1     -39.745 -48.913  13.128  1.00  0.00     0.014 A 
HETATM    4  C   UNL     1     -39.548 -47.640  12.601  1.00  0.00     0.057 A 
HETATM    5  C   UNL     1     -40.114 -47.341  11.374  1.00  0.00     0.141 A 
HETATM    6  N   UNL     1     -40.847 -48.218  10.658  1.00  0.00    -0.346 N 
HETATM    7  C   UNL     1     -41.008 -49.453  11.180  1.00  0.00     0.099 A 
ATOM      8  HN  UNL     1     -41.261 -47.960   9.762  1.00  0.00     0.167 HD
BRANCH   5   9
HETATM    9  O   UNL     1     -39.844 -46.090  10.855  1.00  0.00    -0.334 OA
BRANCH   9  10
HETATM   10  C   UNL     1     -40.457 -45.046  11.614  1.00  0.00     0.203 C 
BRANCH  10  11
HETATM   11  C   UNL     1     -41.887 -44.842  11.123  1.00  0.00     0.193 C 
BRANCH  11  12
HETATM   12  O   UNL     1     -41.982 -45.307   9.776  1.00  0.00    -0.394 OA
HETATM   13  C   UNL     1     -43.251 -45.878   9.498  1.00  0.00     0.201 C 
ENDBRANCH  11  12
ENDBRANCH  10  11
ENDBRANCH   9  10
ENDBRANCH   5   9
ENDBRANCH   1   2
BRANCH   1  14
HETATM   14  N   UNL     1     -41.955 -51.799  12.699  1.00  0.00    -0.355 N 
HETATM   15  C   UNL     1     -42.839 -51.667  13.745  1.00  0.00     0.240 C 
HETATM   16  O   UNL     1     -42.482 -51.237  14.843  1.00  0.00    -0.271 OA
HETATM   17  H   UNL     1     -42.304 -52.021  11.774  1.00  0.00     0.162 HD
BRANCH  15  18
HETATM   18  C   UNL     1     -44.261 -52.205  13.552  1.00  0.00     0.179 C 
HETATM   19  C   UNL     1     -45.261 -51.088  13.907  1.00  0.00     0.037 C 
HETATM   20  C   UNL     1     -46.594 -51.799  14.150  1.00  0.00     0.022 C 
HETATM   21  C   UNL     1     -46.258 -53.279  14.119  1.00  0.00     0.127 C 
HETATM   22  N   UNL     1     -44.814 -53.338  14.298  1.00  0.00    -0.339 N 
HETATM   23  C   UNL     1     -44.274 -54.618  14.339  1.00  0.00     0.216 C 
HETATM   24  O   UNL     1     -44.975 -55.629  14.283  1.00  0.00    -0.274 OA
HETATM   25  C   UNL     1     -42.810 -54.742  14.659  1.00  0.00     0.117 C 
ENDBRANCH  15  18
ENDBRANCH   1  14
TORSDOF 7
ENDMDL
MODEL 6
REMARK VINA RESULT:      -5.7      3.232      4.397
REMARK  7 active torsions:
REMARK  status: ('A' for Active; 'I' for Inactive)
REMARK    1  A    between atoms: O_2  and  C_3 
REMARK    2  A    between atoms: C_3  and  C_4 
REMARK    3  A    between atoms: C_4  and  O_5 
REMARK    4  A    between atoms: O_5  and  C_6 
REMARK    5  A    between atoms: C_9  and  C_10 
REMARK    6  A    between atoms: C_10  and  N_11 
REMARK       I    between atoms: N_11  and  C_12 
REMARK    7  A    between atoms: C_12  and  C_14 
REMARK       I    between atoms: N_18  and  C_19 
ROOT
HETATM    1  C   UNL     1     -40.713 -51.049  11.895  1.00  0.00     0.162 C 
ENDROOT
BRANCH   1   2
HETATM    2  C   UNL     1     -40.573 -49.568  11.748  1.00  0.00    -0.025 A 
HETATM    3  C   UNL     1     -39.759 -48.821  12.602  1.00  0.00     0.014 A 
HETATM    4  C   UNL     1     -39.582 -47.460  12.369  1.00  0.00     0.057 A 
HETATM    5  C   UNL     1     -40.254 -46.883  11.306  1.00  0.00     0.141 A 
HETATM    6  N   UNL     1     -41.072 -47.567  10.480  1.00  0.00    -0.346 N 
HETATM    7  C   UNL     1     -41.212 -48.890  10.715  1.00  0.00     0.099 A 
ATOM      8  HN  UNL     1     -41.563 -47.107   9.714  1.00  0.00     0.167 HD
BRANCH   5   9
HETATM    9  O   UNL     1     -40.005 -45.546  11.068  1.00  0.00    -0.334 OA
BRANCH   9  10
HETATM   10  C   UNL     1     -40.745 -44.693  11.944  1.00  0.00     0.203 C 
BRANCH  10  11
HETATM   11  C   UNL     1     -39.849 -43.549  12.407  1.00  0.00     0.193 C 
BRANCH  11  12
HETATM   12  O   UNL     1     -39.138 -43.965  13.574  1.00  0.00    -0.394 OA
HETATM   13  C   UNL     1     -40.002 -44.514  14.556  1.00  0.00     0.201 C 
ENDBRANCH  11  12
ENDBRANCH  10  11
ENDBRANCH   9  10
ENDBRANCH   5   9
ENDBRANCH   1   2
BRANCH   1  14
HETATM   14  N   UNL     1     -42.083 -51.506  11.903  1.00  0.00    -0.355 N 
HETATM   15  C   UNL     1     -42.693 -51.679  13.124  1.00  0.00     0.240 C 
HETATM   16  O   UNL     1     -42.065 -51.583  14.180  1.00  0.00    -0.271 OA
HETATM   17  H   UNL     1     -42.649 -51.453  11.064  1.00  0.00     0.162 HD
BRANCH  15  18
HETATM   18  C   UNL     1     -44.156 -52.136  13.135  1.00  0.00     0.179 C 
HETATM   19  C   UNL     1     -45.045 -50.929  13.493  1.00  0.00     0.037 C 
HETATM   20  C   UNL     1     -46.380 -51.527  13.942  1.00  0.00     0.022 C 
HETATM   21  C   UNL     1     -46.133 -53.024  14.009  1.00  0.00     0.127 C 
HETATM   22  N   UNL     1     -44.685 -53.163  14.037  1.00  0.00    -0.339 N 
HETATM   23  C   UNL     1     -44.217 -54.468  14.135  1.00  0.00     0.216 C 
HETATM   24  O   UNL     1     -44.975 -55.431  14.246  1.00  0.00    -0.274 OA
HETATM   25  C   UNL     1     -42.735 -54.662  14.305  1.00  0.00     0.117 C 
ENDBRANCH  15  18
ENDBRANCH   1  14
TORSDOF 7
ENDMDL
MODEL 7
REMARK VINA RESULT:      -5.5      3.180      6.985
REMARK  7 active torsions:
REMARK  status: ('A' for Active; 'I' for Inactive)
REMARK    1  A    between atoms: O_2  and  C_3 
REMARK    2  A    between atoms: C_3  and  C_4 
REMARK    3  A    between atoms: C_4  and  O_5 
REMARK    4  A    between atoms: O_5  and  C_6 
REMARK    5  A    between atoms: C_9  and  C_10 
REMARK    6  A    between atoms: C_10  and  N_11 
REMARK       I    between atoms: N_11  and  C_12 
REMARK    7  A    between atoms: C_12  and  C_14 
REMARK       I    between atoms: N_18  and  C_19 
ROOT
HETATM    1  C   UNL     1     -39.958 -52.117  13.215  1.00  0.00     0.162 C 
ENDROOT
BRANCH   1   2
HETATM    2  C   UNL     1     -41.278 -52.805  13.080  1.00  0.00    -0.025 A 
HETATM    3  C   UNL     1     -41.667 -53.821  13.956  1.00  0.00     0.014 A 
HETATM    4  C   UNL     1     -42.943 -54.367  13.853  1.00  0.00     0.057 A 
HETATM    5  C   UNL     1     -43.778 -53.903  12.852  1.00  0.00     0.141 A 
HETATM    6  N   UNL     1     -43.423 -52.946  11.969  1.00  0.00    -0.346 N 
HETATM    7  C   UNL     1     -42.188 -52.417  12.102  1.00  0.00     0.099 A 
ATOM      8  HN  UNL     1     -44.060 -52.636  11.235  1.00  0.00     0.167 HD
BRANCH   5   9
HETATM    9  O   UNL     1     -45.057 -54.422  12.820  1.00  0.00    -0.334 OA
BRANCH   9  10
HETATM   10  C   UNL     1     -45.532 -54.770  14.122  1.00  0.00     0.203 C 
BRANCH  10  11
HETATM   11  C   UNL     1     -46.629 -53.794  14.534  1.00  0.00     0.193 C 
BRANCH  11  12
HETATM   12  O   UNL     1     -46.021 -52.608  15.047  1.00  0.00    -0.394 OA
HETATM   13  C   UNL     1     -46.684 -51.435  14.601  1.00  0.00     0.201 C 
ENDBRANCH  11  12
ENDBRANCH  10  11
ENDBRANCH   9  10
ENDBRANCH   5   9
ENDBRANCH   1   2
BRANCH   1  14
HETATM   14  N   UNL     1     -39.957 -50.758  12.725  1.00  0.00    -0.355 N 
HETATM   15  C   UNL     1     -39.962 -49.743  13.653  1.00  0.00     0.240 C 
HETATM   16  O   UNL     1     -40.101 -49.968  14.857  1.00  0.00    -0.271 OA
HETATM   17  H   UNL     1     -39.702 -50.557  11.765  1.00  0.00     0.162 HD
BRANCH  15  18
HETATM   18  C   UNL     1     -39.932 -48.300  13.136  1.00  0.00     0.179 C 
HETATM   19  C   UNL     1     -38.809 -47.540  13.868  1.00  0.00     0.037 C 
HETATM   20  C   UNL     1     -39.129 -46.057  13.673  1.00  0.00     0.022 C 
HETATM   21  C   UNL     1     -40.501 -46.036  13.021  1.00  0.00     0.127 C 
HETATM   22  N   UNL     1     -41.050 -47.362  13.266  1.00  0.00    -0.339 N 
HETATM   23  C   UNL     1     -42.336 -47.569  12.782  1.00  0.00     0.216 C 
HETATM   24  O   UNL     1     -42.984 -46.676  12.235  1.00  0.00    -0.274 OA
HETATM   25  C   UNL     1     -43.005 -48.872  13.125  1.00  0.00     0.117 C 
ENDBRANCH  15  18
ENDBRANCH   1  14
TORSDOF 7
ENDMDL
MODEL 8
REMARK VINA RESULT:      -5.5      2.347      3.522
REMARK  7 active torsions:
REMARK  status: ('A' for Active; 'I' for Inactive)
REMARK    1  A    between atoms: O_2  and  C_3 
REMARK    2  A    between atoms: C_3  and  C_4 
REMARK    3  A    between atoms: C_4  and  O_5 
REMARK    4  A    between atoms: O_5  and  C_6 
REMARK    5  A    between atoms: C_9  and  C_10 
REMARK    6  A    between atoms: C_10  and  N_11 
REMARK       I    between atoms: N_11  and  C_12 
REMARK    7  A    between atoms: C_12  and  C_14 
REMARK       I    between atoms: N_18  and  C_19 
ROOT
HETATM    1  C   UNL     1     -39.204 -51.564  13.321  1.00  0.00     0.162 C 
ENDROOT
BRANCH   1   2
HETATM    2  C   UNL     1     -39.893 -50.459  12.586  1.00  0.00    -0.025 A 
HETATM    3  C   UNL     1     -39.252 -49.248  12.316  1.00  0.00     0.014 A 
HETATM    4  C   UNL     1     -39.896 -48.285  11.545  1.00  0.00     0.057 A 
HETATM    5  C   UNL     1     -41.178 -48.551  11.097  1.00  0.00     0.141 A 
HETATM    6  N   UNL     1     -41.838 -49.697  11.365  1.00  0.00    -0.346 N 
HETATM    7  C   UNL     1     -41.184 -50.624  12.097  1.00  0.00     0.099 A 
ATOM      8  HN  UNL     1     -42.788 -49.856  11.029  1.00  0.00     0.167 HD
BRANCH   5   9
HETATM    9  O   UNL     1     -41.761 -47.601  10.283  1.00  0.00    -0.334 OA
BRANCH   9  10
HETATM   10  C   UNL     1     -42.648 -46.742  11.005  1.00  0.00     0.203 C 
BRANCH  10  11
HETATM   11  C   UNL     1     -42.018 -45.358  11.125  1.00  0.00     0.193 C 
BRANCH  11  12
HETATM   12  O   UNL     1     -41.144 -45.152  10.014  1.00  0.00    -0.394 OA
HETATM   13  C   UNL     1     -39.899 -44.600  10.412  1.00  0.00     0.201 C 
ENDBRANCH  11  12
ENDBRANCH  10  11
ENDBRANCH   9  10
ENDBRANCH   5   9
ENDBRANCH   1   2
BRANCH   1  14
HETATM   14  N   UNL     1     -40.029 -52.201  14.320  1.00  0.00    -0.355 N 
HETATM   15  C   UNL     1     -39.940 -53.568  14.446  1.00  0.00     0.240 C 
HETATM   16  O   UNL     1     -39.290 -54.250  13.652  1.00  0.00    -0.271 OA
HETATM   17  H   UNL     1     -40.452 -51.657  15.062  1.00  0.00     0.162 HD
BRANCH  15  18
HETATM   18  C   UNL     1     -40.793 -54.244  15.525  1.00  0.00     0.179 C 
HETATM   19  C   UNL     1     -39.898 -55.210  16.324  1.00  0.00     0.037 C 
HETATM   20  C   UNL     1     -40.861 -56.165  17.032  1.00  0.00     0.022 C 
HETATM   21  C   UNL     1     -42.229 -55.834  16.460  1.00  0.00     0.127 C 
HETATM   22  N   UNL     1     -41.952 -55.093  15.238  1.00  0.00    -0.339 N 
HETATM   23  C   UNL     1     -43.074 -54.709  14.512  1.00  0.00     0.216 C 
HETATM   24  O   UNL     1     -44.215 -55.021  14.852  1.00  0.00    -0.274 OA
HETATM   25  C   UNL     1     -42.844 -54.062  13.174  1.00  0.00     0.117 C 
ENDBRANCH  15  18
ENDBRANCH   1  14
TORSDOF 7
ENDMDL
MODEL 9
REMARK VINA RESULT:      -5.4      2.550      7.425
REMARK  7 active torsions:
REMARK  status: ('A' for Active; 'I' for Inactive)
REMARK    1  A    between atoms: O_2  and  C_3 
REMARK    2  A    between atoms: C_3  and  C_4 
REMARK    3  A    between atoms: C_4  and  O_5 
REMARK    4  A    between atoms: O_5  and  C_6 
REMARK    5  A    between atoms: C_9  and  C_10 
REMARK    6  A    between atoms: C_10  and  N_11 
REMARK       I    between atoms: N_11  and  C_12 
REMARK    7  A    between atoms: C_12  and  C_14 
REMARK       I    between atoms: N_18  and  C_19 
ROOT
HETATM    1  C   UNL     1     -38.592 -49.820  12.302  1.00  0.00     0.162 C 
ENDROOT
BRANCH   1   2
HETATM    2  C   UNL     1     -39.357 -51.090  12.493  1.00  0.00    -0.025 A 
HETATM    3  C   UNL     1     -39.119 -51.931  13.582  1.00  0.00     0.014 A 
HETATM    4  C   UNL     1     -39.921 -53.053  13.774  1.00  0.00     0.057 A 
HETATM    5  C   UNL     1     -40.914 -53.316  12.848  1.00  0.00     0.141 A 
HETATM    6  N   UNL     1     -41.152 -52.543  11.768  1.00  0.00    -0.346 N 
HETATM    7  C   UNL     1     -40.374 -51.449  11.615  1.00  0.00     0.099 A 
ATOM      8  HN  UNL     1     -41.885 -52.774  11.098  1.00  0.00     0.167 HD
BRANCH   5   9
HETATM    9  O   UNL     1     -41.730 -54.401  13.104  1.00  0.00    -0.334 OA
BRANCH   9  10
HETATM   10  C   UNL     1     -42.911 -54.032  13.820  1.00  0.00     0.203 C 
BRANCH  10  11
HETATM   11  C   UNL     1     -44.109 -54.098  12.878  1.00  0.00     0.193 C 
BRANCH  11  12
HETATM   12  O   UNL     1     -44.382 -52.785  12.388  1.00  0.00    -0.394 OA
HETATM   13  C   UNL     1     -44.319 -51.809  13.416  1.00  0.00     0.201 C 
ENDBRANCH  11  12
ENDBRANCH  10  11
ENDBRANCH   9  10
ENDBRANCH   5   9
ENDBRANCH   1   2
BRANCH   1  14
HETATM   14  N   UNL     1     -39.277 -48.845  11.486  1.00  0.00    -0.355 N 
HETATM   15  C   UNL     1     -39.786 -47.730  12.113  1.00  0.00     0.240 C 
HETATM   16  O   UNL     1     -39.784 -47.622  13.340  1.00  0.00    -0.271 OA
HETATM   17  H   UNL     1     -39.165 -48.845  10.479  1.00  0.00     0.162 HD
BRANCH  15  18
HETATM   18  C   UNL     1     -40.488 -46.679  11.245  1.00  0.00     0.179 C 
HETATM   19  C   UNL     1     -39.910 -45.293  11.590  1.00  0.00     0.037 C 
HETATM   20  C   UNL     1     -40.937 -44.285  11.070  1.00  0.00     0.022 C 
HETATM   21  C   UNL     1     -42.126 -45.127  10.639  1.00  0.00     0.127 C 
HETATM   22  N   UNL     1     -41.928 -46.413  11.290  1.00  0.00    -0.339 N 
HETATM   23  C   UNL     1     -42.929 -47.351  11.065  1.00  0.00     0.216 C 
HETATM   24  O   UNL     1     -43.936 -47.091  10.407  1.00  0.00    -0.274 OA
HETATM   25  C   UNL     1     -42.847 -48.648  11.822  1.00  0.00     0.117 C 
ENDBRANCH  15  18
ENDBRANCH   1  14
TORSDOF 7
ENDMDL
