MODEL 1
REMARK VINA RESULT:      -6.5      0.000      0.000
REMARK  3 active torsions:
REMARK  status: ('A' for Active; 'I' for Inactive)
REMARK    1  A    between atoms: C_6  and  N_7 
REMARK       I    between atoms: N_7  and  C_8 
REMARK       I    between atoms: C_8  and  N_10 
REMARK    2  A    between atoms: N_10  and  C_11 
REMARK    3  A    between atoms: C_14  and  O_15 
ROOT
HETATM    1  N   UNL     1     -40.359 -50.847  11.346  1.00  0.00    -0.295 N 
HETATM    2  C   UNL     1     -41.138 -51.852  11.855  1.00  0.00     0.322 C 
HETATM    3  O   UNL     1     -40.668 -52.978  12.000  1.00  0.00    -0.247 OA
HETATM    4  N   UNL     1     -42.404 -51.514  12.192  1.00  0.00    -0.338 N 
HETATM    5  H   UNL     1     -39.430 -51.157  11.098  1.00  0.00     0.172 HD
HETATM    6  H   UNL     1     -42.597 -50.517  12.088  1.00  0.00     0.164 HD
ENDROOT
BRANCH   1   7
HETATM    7  C   UNL     1     -40.646 -49.478  11.215  1.00  0.00     0.109 A 
HETATM    8  C   UNL     1     -39.876 -48.579  11.944  1.00  0.00     0.049 A 
HETATM    9  C   UNL     1     -40.139 -47.216  11.826  1.00  0.00     0.006 A 
HETATM   10  C   UNL     1     -41.167 -46.787  10.995  1.00  0.00     0.025 A 
HETATM   11  C   UNL     1     -41.911 -47.740  10.313  1.00  0.00     0.007 A 
HETATM   12  C   UNL     1     -43.074 -47.337   9.456  1.00  0.00     0.068 C 
HETATM   13  N   UNL     1     -41.655 -49.072  10.410  1.00  0.00    -0.346 N 
ATOM     14  HN  UNL     1     -42.210 -49.750   9.888  1.00  0.00     0.167 HD
ENDBRANCH   1   7
BRANCH   4  15
HETATM   15  C   UNL     1     -43.309 -52.252  13.041  1.00  0.00     0.086 C 
HETATM   16  C   UNL     1     -44.277 -51.430  13.895  1.00  0.00     0.028 C 
HETATM   17  C   UNL     1     -44.944 -52.347  14.935  1.00  0.00     0.034 C 
HETATM   18  C   UNL     1     -45.514 -53.652  14.354  1.00  0.00     0.118 C 
HETATM   19  C   UNL     1     -44.603 -54.330  13.326  1.00  0.00     0.034 C 
HETATM   20  C   UNL     1     -44.100 -53.331  12.296  1.00  0.00     0.028 C 
BRANCH  18  21
HETATM   21  O   UNL     1     -45.779 -54.568  15.419  1.00  0.00    -0.396 OA
HETATM   22  H   UNL     1     -45.456 -55.447  15.157  1.00  0.00     0.210 HD
ENDBRANCH  18  21
ENDBRANCH   4  15
TORSDOF 3
ENDMDL
MODEL 2
REMARK VINA RESULT:      -6.2      2.448      6.198
REMARK  3 active torsions:
REMARK  status: ('A' for Active; 'I' for Inactive)
REMARK    1  A    between atoms: C_6  and  N_7 
REMARK       I    between atoms: N_7  and  C_8 
REMARK       I    between atoms: C_8  and  N_10 
REMARK    2  A    between atoms: N_10  and  C_11 
REMARK    3  A    between atoms: C_14  and  O_15 
ROOT
HETATM    1  N   UNL     1     -43.426 -53.786  13.324  1.00  0.00    -0.295 N 
HETATM    2  C   UNL     1     -42.140 -53.393  13.065  1.00  0.00     0.322 C 
HETATM    3  O   UNL     1     -41.268 -54.237  12.873  1.00  0.00    -0.247 OA
HETATM    4  N   UNL     1     -41.921 -52.058  13.019  1.00  0.00    -0.338 N 
HETATM    5  H   UNL     1     -43.530 -54.790  13.362  1.00  0.00     0.172 HD
HETATM    6  H   UNL     1     -42.774 -51.505  13.113  1.00  0.00     0.164 HD
ENDROOT
BRANCH   1   7
HETATM    7  C   UNL     1     -44.587 -53.005  13.447  1.00  0.00     0.109 A 
HETATM    8  C   UNL     1     -44.958 -52.584  14.718  1.00  0.00     0.049 A 
HETATM    9  C   UNL     1     -46.103 -51.804  14.863  1.00  0.00     0.006 A 
HETATM   10  C   UNL     1     -46.851 -51.472  13.740  1.00  0.00     0.025 A 
HETATM   11  C   UNL     1     -46.436 -51.943  12.503  1.00  0.00     0.007 A 
HETATM   12  C   UNL     1     -47.242 -51.672  11.268  1.00  0.00     0.068 C 
HETATM   13  N   UNL     1     -45.313 -52.695  12.348  1.00  0.00    -0.346 N 
ATOM     14  HN  UNL     1     -45.024 -53.018  11.424  1.00  0.00     0.167 HD
ENDBRANCH   1   7
BRANCH   4  15
HETATM   15  C   UNL     1     -40.783 -51.379  12.447  1.00  0.00     0.086 C 
HETATM   16  C   UNL     1     -41.052 -50.030  11.776  1.00  0.00     0.028 C 
HETATM   17  C   UNL     1     -39.809 -49.600  10.977  1.00  0.00     0.034 C 
HETATM   18  C   UNL     1     -38.488 -49.702  11.759  1.00  0.00     0.118 C 
HETATM   19  C   UNL     1     -38.357 -50.974  12.603  1.00  0.00     0.034 C 
HETATM   20  C   UNL     1     -39.614 -51.221  13.423  1.00  0.00     0.028 C 
BRANCH  18  21
HETATM   21  O   UNL     1     -37.391 -49.631  10.847  1.00  0.00    -0.396 OA
HETATM   22  H   UNL     1     -37.079 -50.534  10.670  1.00  0.00     0.210 HD
ENDBRANCH  18  21
ENDBRANCH   4  15
TORSDOF 3
ENDMDL
MODEL 3
REMARK VINA RESULT:      -6.1      2.594      6.610
REMARK  3 active torsions:
REMARK  status: ('A' for Active; 'I' for Inactive)
REMARK    1  A    between atoms: C_6  and  N_7 
REMARK       I    between atoms: N_7  and  C_8 
REMARK       I    between atoms: C_8  and  N_10 
REMARK    2  A    between atoms: N_10  and  C_11 
REMARK    3  A    between atoms: C_14  and  O_15 
ROOT
HETATM    1  N   UNL     1     -42.842 -51.794  12.721  1.00  0.00    -0.295 N 
HETATM    2  C   UNL     1     -42.006 -50.813  12.257  1.00  0.00     0.322 C 
HETATM    3  O   UNL     1     -40.886 -51.106  11.848  1.00  0.00    -0.247 OA
HETATM    4  N   UNL     1     -42.502 -49.554  12.266  1.00  0.00    -0.338 N 
HETATM    5  H   UNL     1     -42.418 -52.711  12.706  1.00  0.00     0.172 HD
HETATM    6  H   UNL     1     -43.479 -49.506  12.554  1.00  0.00     0.164 HD
ENDROOT
BRANCH   1   7
HETATM    7  C   UNL     1     -44.189 -51.704  13.111  1.00  0.00     0.109 A 
HETATM    8  C   UNL     1     -44.469 -51.620  14.469  1.00  0.00     0.049 A 
HETATM    9  C   UNL     1     -45.797 -51.524  14.879  1.00  0.00     0.006 A 
HETATM   10  C   UNL     1     -46.809 -51.525  13.926  1.00  0.00     0.025 A 
HETATM   11  C   UNL     1     -46.460 -51.634  12.588  1.00  0.00     0.007 A 
HETATM   12  C   UNL     1     -47.513 -51.708  11.523  1.00  0.00     0.068 C 
HETATM   13  N   UNL     1     -45.166 -51.715  12.175  1.00  0.00    -0.346 N 
ATOM     14  HN  UNL     1     -44.938 -51.782  11.183  1.00  0.00     0.167 HD
ENDBRANCH   1   7
BRANCH   4  15
HETATM   15  C   UNL     1     -41.995 -48.412  11.542  1.00  0.00     0.086 C 
HETATM   16  C   UNL     1     -43.032 -47.419  11.009  1.00  0.00     0.028 C 
HETATM   17  C   UNL     1     -42.351 -46.447  10.030  1.00  0.00     0.034 C 
HETATM   18  C   UNL     1     -41.046 -45.827  10.559  1.00  0.00     0.118 C 
HETATM   19  C   UNL     1     -40.134 -46.816  11.290  1.00  0.00     0.034 C 
HETATM   20  C   UNL     1     -40.915 -47.638  12.303  1.00  0.00     0.028 C 
BRANCH  18  21
HETATM   21  O   UNL     1     -40.326 -45.241   9.473  1.00  0.00    -0.396 OA
HETATM   22  H   UNL     1     -39.706 -45.903   9.123  1.00  0.00     0.210 HD
ENDBRANCH  18  21
ENDBRANCH   4  15
TORSDOF 3
ENDMDL
MODEL 4
REMARK VINA RESULT:      -5.8      2.546      3.753
REMARK  3 active torsions:
REMARK  status: ('A' for Active; 'I' for Inactive)
REMARK    1  A    between atoms: C_6  and  N_7 
REMARK       I    between atoms: N_7  and  C_8 
REMARK       I    between atoms: C_8  and  N_10 
REMARK    2  A    between atoms: N_10  and  C_11 
REMARK    3  A    between atoms: C_14  and  O_15 
ROOT
HETATM    1  N   UNL     1     -42.144 -53.189  12.109  1.00  0.00    -0.295 N 
HETATM    2  C   UNL     1     -43.412 -53.036  12.602  1.00  0.00     0.322 C 
HETATM    3  O   UNL     1     -44.318 -53.760  12.196  1.00  0.00    -0.247 OA
HETATM    4  N   UNL     1     -43.575 -52.080  13.545  1.00  0.00    -0.338 N 
HETATM    5  H   UNL     1     -42.081 -53.905  11.398  1.00  0.00     0.172 HD
HETATM    6  H   UNL     1     -42.701 -51.637  13.826  1.00  0.00     0.164 HD
ENDROOT
BRANCH   1   7
HETATM    7  C   UNL     1     -40.951 -52.568  12.515  1.00  0.00     0.109 A 
HETATM    8  C   UNL     1     -40.252 -53.131  13.576  1.00  0.00     0.049 A 
HETATM    9  C   UNL     1     -39.064 -52.535  13.993  1.00  0.00     0.006 A 
HETATM   10  C   UNL     1     -38.609 -51.391  13.348  1.00  0.00     0.025 A 
HETATM   11  C   UNL     1     -39.367 -50.869  12.310  1.00  0.00     0.007 A 
HETATM   12  C   UNL     1     -38.960 -49.599  11.625  1.00  0.00     0.068 C 
HETATM   13  N   UNL     1     -40.522 -51.449  11.886  1.00  0.00    -0.346 N 
ATOM     14  HN  UNL     1     -41.053 -51.051  11.112  1.00  0.00     0.167 HD
ENDBRANCH   1   7
BRANCH   4  15
HETATM   15  C   UNL     1     -44.685 -51.934  14.457  1.00  0.00     0.086 C 
HETATM   16  C   UNL     1     -44.496 -50.956  15.620  1.00  0.00     0.028 C 
HETATM   17  C   UNL     1     -45.635 -51.146  16.636  1.00  0.00     0.034 C 
HETATM   18  C   UNL     1     -47.041 -51.174  16.012  1.00  0.00     0.118 C 
HETATM   19  C   UNL     1     -47.135 -51.985  14.717  1.00  0.00     0.034 C 
HETATM   20  C   UNL     1     -46.011 -51.622  13.759  1.00  0.00     0.028 C 
BRANCH  18  21
HETATM   21  O   UNL     1     -47.969 -51.700  16.962  1.00  0.00    -0.396 OA
HETATM   22  H   UNL     1     -48.239 -50.982  17.560  1.00  0.00     0.210 HD
ENDBRANCH  18  21
ENDBRANCH   4  15
TORSDOF 3
ENDMDL
MODEL 5
REMARK VINA RESULT:      -5.8      3.958      7.447
REMARK  3 active torsions:
REMARK  status: ('A' for Active; 'I' for Inactive)
REMARK    1  A    between atoms: C_6  and  N_7 
REMARK       I    between atoms: N_7  and  C_8 
REMARK       I    between atoms: C_8  and  N_10 
REMARK    2  A    between atoms: N_10  and  C_11 
REMARK    3  A    between atoms: C_14  and  O_15 
ROOT
HETATM    1  N   UNL     1     -41.690 -49.334  10.651  1.00  0.00    -0.295 N 
HETATM    2  C   UNL     1     -41.924 -48.046  10.249  1.00  0.00     0.322 C 
HETATM    3  O   UNL     1     -42.923 -47.784   9.584  1.00  0.00    -0.247 OA
HETATM    4  N   UNL     1     -41.016 -47.124  10.644  1.00  0.00    -0.338 N 
HETATM    5  H   UNL     1     -42.389 -49.984  10.317  1.00  0.00     0.172 HD
HETATM    6  H   UNL     1     -40.300 -47.501  11.263  1.00  0.00     0.164 HD
ENDROOT
BRANCH   1   7
HETATM    7  C   UNL     1     -40.695 -49.831  11.510  1.00  0.00     0.109 A 
HETATM    8  C   UNL     1     -41.061 -50.153  12.812  1.00  0.00     0.049 A 
HETATM    9  C   UNL     1     -40.093 -50.653  13.680  1.00  0.00     0.006 A 
HETATM   10  C   UNL     1     -38.787 -50.810  13.230  1.00  0.00     0.025 A 
HETATM   11  C   UNL     1     -38.486 -50.448  11.925  1.00  0.00     0.007 A 
HETATM   12  C   UNL     1     -37.080 -50.533  11.409  1.00  0.00     0.068 C 
HETATM   13  N   UNL     1     -39.426 -49.972  11.065  1.00  0.00    -0.346 N 
ATOM     14  HN  UNL     1     -39.179 -49.725  10.106  1.00  0.00     0.167 HD
ENDBRANCH   1   7
BRANCH   4  15
HETATM   15  C   UNL     1     -41.181 -45.689  10.660  1.00  0.00     0.086 C 
HETATM   16  C   UNL     1     -42.377 -45.143  11.444  1.00  0.00     0.028 C 
HETATM   17  C   UNL     1     -42.565 -43.652  11.113  1.00  0.00     0.034 C 
HETATM   18  C   UNL     1     -41.275 -42.817  11.200  1.00  0.00     0.118 C 
HETATM   19  C   UNL     1     -40.044 -43.503  10.601  1.00  0.00     0.034 C 
HETATM   20  C   UNL     1     -39.920 -44.937  11.094  1.00  0.00     0.028 C 
BRANCH  18  21
HETATM   21  O   UNL     1     -41.477 -41.564  10.545  1.00  0.00    -0.396 OA
HETATM   22  H   UNL     1     -42.002 -40.992  11.130  1.00  0.00     0.210 HD
ENDBRANCH  18  21
ENDBRANCH   4  15
TORSDOF 3
ENDMDL
MODEL 6
REMARK VINA RESULT:      -5.5      2.476      3.214
REMARK  3 active torsions:
REMARK  status: ('A' for Active; 'I' for Inactive)
REMARK    1  A    between atoms: C_6  and  N_7 
REMARK       I    between atoms: N_7  and  C_8 
REMARK       I    between atoms: C_8  and  N_10 
REMARK    2  A    between atoms: N_10  and  C_11 
REMARK    3  A    between atoms: C_14  and  O_15 
ROOT
HETATM    1  N   UNL     1     -39.676 -50.988  15.108  1.00  0.00    -0.295 N 
HETATM    2  C   UNL     1     -40.738 -51.840  15.252  1.00  0.00     0.322 C 
HETATM    3  O   UNL     1     -41.186 -52.078  16.371  1.00  0.00    -0.247 OA
HETATM    4  N   UNL     1     -41.245 -52.359  14.110  1.00  0.00    -0.338 N 
HETATM    5  H   UNL     1     -39.328 -50.642  15.992  1.00  0.00     0.172 HD
HETATM    6  H   UNL     1     -40.810 -51.984  13.267  1.00  0.00     0.164 HD
ENDROOT
BRANCH   1   7
HETATM    7  C   UNL     1     -39.093 -50.482  13.934  1.00  0.00     0.109 A 
HETATM    8  C   UNL     1     -37.990 -51.149  13.415  1.00  0.00     0.049 A 
HETATM    9  C   UNL     1     -37.399 -50.669  12.248  1.00  0.00     0.006 A 
HETATM   10  C   UNL     1     -37.917 -49.534  11.637  1.00  0.00     0.025 A 
HETATM   11  C   UNL     1     -39.007 -48.904  12.220  1.00  0.00     0.007 A 
HETATM   12  C   UNL     1     -39.564 -47.637  11.641  1.00  0.00     0.068 C 
HETATM   13  N   UNL     1     -39.600 -49.371  13.352  1.00  0.00    -0.346 N 
ATOM     14  HN  UNL     1     -40.408 -48.894  13.753  1.00  0.00     0.167 HD
ENDBRANCH   1   7
BRANCH   4  15
HETATM   15  C   UNL     1     -42.533 -52.989  13.934  1.00  0.00     0.086 C 
HETATM   16  C   UNL     1     -43.203 -52.816  12.568  1.00  0.00     0.028 C 
HETATM   17  C   UNL     1     -44.665 -53.288  12.654  1.00  0.00     0.034 C 
HETATM   18  C   UNL     1     -44.847 -54.665  13.315  1.00  0.00     0.118 C 
HETATM   19  C   UNL     1     -43.982 -54.881  14.560  1.00  0.00     0.034 C 
HETATM   20  C   UNL     1     -42.539 -54.475  14.303  1.00  0.00     0.028 C 
BRANCH  18  21
HETATM   21  O   UNL     1     -46.221 -54.845  13.664  1.00  0.00    -0.396 OA
HETATM   22  H   UNL     1     -46.378 -55.792  13.818  1.00  0.00     0.210 HD
ENDBRANCH  18  21
ENDBRANCH   4  15
TORSDOF 3
ENDMDL
MODEL 7
REMARK VINA RESULT:      -5.5      3.209      3.651
REMARK  3 active torsions:
REMARK  status: ('A' for Active; 'I' for Inactive)
REMARK    1  A    between atoms: C_6  and  N_7 
REMARK       I    between atoms: N_7  and  C_8 
REMARK       I    between atoms: C_8  and  N_10 
REMARK    2  A    between atoms: N_10  and  C_11 
REMARK    3  A    between atoms: C_14  and  O_15 
ROOT
HETATM    1  N   UNL     1     -38.518 -52.991  14.388  1.00  0.00    -0.295 N 
HETATM    2  C   UNL     1     -39.591 -53.836  14.291  1.00  0.00     0.322 C 
HETATM    3  O   UNL     1     -39.552 -54.939  14.831  1.00  0.00    -0.247 OA
HETATM    4  N   UNL     1     -40.658 -53.371  13.601  1.00  0.00    -0.338 N 
HETATM    5  H   UNL     1     -37.745 -53.393  14.900  1.00  0.00     0.172 HD
HETATM    6  H   UNL     1     -40.552 -52.403  13.298  1.00  0.00     0.164 HD
ENDROOT
BRANCH   1   7
HETATM    7  C   UNL     1     -38.396 -51.657  13.964  1.00  0.00     0.109 A 
HETATM    8  C   UNL     1     -38.812 -50.656  14.835  1.00  0.00     0.049 A 
HETATM    9  C   UNL     1     -38.695 -49.326  14.439  1.00  0.00     0.006 A 
HETATM   10  C   UNL     1     -38.177 -49.029  13.184  1.00  0.00     0.025 A 
HETATM   11  C   UNL     1     -37.802 -50.077  12.356  1.00  0.00     0.007 A 
HETATM   12  C   UNL     1     -37.301 -49.817  10.967  1.00  0.00     0.068 C 
HETATM   13  N   UNL     1     -37.899 -51.380  12.737  1.00  0.00    -0.346 N 
ATOM     14  HN  UNL     1     -37.604 -52.130  12.112  1.00  0.00     0.167 HD
ENDBRANCH   1   7
BRANCH   4  15
HETATM   15  C   UNL     1     -42.007 -53.885  13.629  1.00  0.00     0.086 C 
HETATM   16  C   UNL     1     -42.609 -54.164  15.008  1.00  0.00     0.028 C 
HETATM   17  C   UNL     1     -43.910 -54.970  14.843  1.00  0.00     0.034 C 
HETATM   18  C   UNL     1     -44.881 -54.396  13.797  1.00  0.00     0.118 C 
HETATM   19  C   UNL     1     -44.203 -53.916  12.511  1.00  0.00     0.034 C 
HETATM   20  C   UNL     1     -42.996 -53.043  12.818  1.00  0.00     0.028 C 
BRANCH  18  21
HETATM   21  O   UNL     1     -45.861 -55.383  13.470  1.00  0.00    -0.396 OA
HETATM   22  H   UNL     1     -46.618 -54.938  13.052  1.00  0.00     0.210 HD
ENDBRANCH  18  21
ENDBRANCH   4  15
TORSDOF 3
ENDMDL
MODEL 8
REMARK VINA RESULT:      -5.5      2.995      7.035
REMARK  3 active torsions:
REMARK  status: ('A' for Active; 'I' for Inactive)
REMARK    1  A    between atoms: C_6  and  N_7 
REMARK       I    between atoms: N_7  and  C_8 
REMARK       I    between atoms: C_8  and  N_10 
REMARK    2  A    between atoms: N_10  and  C_11 
REMARK    3  A    between atoms: C_14  and  O_15 
ROOT
HETATM    1  N   UNL     1     -43.208 -51.317  13.165  1.00  0.00    -0.295 N 
HETATM    2  C   UNL     1     -42.509 -50.262  12.643  1.00  0.00     0.322 C 
HETATM    3  O   UNL     1     -41.486 -50.465  11.994  1.00  0.00    -0.247 OA
HETATM    4  N   UNL     1     -43.026 -49.032  12.872  1.00  0.00    -0.338 N 
HETATM    5  H   UNL     1     -42.771 -52.209  12.977  1.00  0.00     0.172 HD
HETATM    6  H   UNL     1     -43.926 -49.055  13.351  1.00  0.00     0.164 HD
ENDROOT
BRANCH   1   7
HETATM    7  C   UNL     1     -44.451 -51.324  13.820  1.00  0.00     0.109 A 
HETATM    8  C   UNL     1     -45.588 -51.559  13.057  1.00  0.00     0.049 A 
HETATM    9  C   UNL     1     -46.831 -51.576  13.685  1.00  0.00     0.006 A 
HETATM   10  C   UNL     1     -46.907 -51.351  15.055  1.00  0.00     0.025 A 
HETATM   11  C   UNL     1     -45.735 -51.102  15.753  1.00  0.00     0.007 A 
HETATM   12  C   UNL     1     -45.766 -50.785  17.219  1.00  0.00     0.068 C 
HETATM   13  N   UNL     1     -44.514 -51.095  15.152  1.00  0.00    -0.346 N 
ATOM     14  HN  UNL     1     -43.667 -50.921  15.692  1.00  0.00     0.167 HD
ENDBRANCH   1   7
BRANCH   4  15
HETATM   15  C   UNL     1     -42.706 -47.808  12.177  1.00  0.00     0.086 C 
HETATM   16  C   UNL     1     -43.414 -47.569  10.840  1.00  0.00     0.028 C 
HETATM   17  C   UNL     1     -42.745 -46.390  10.112  1.00  0.00     0.034 C 
HETATM   18  C   UNL     1     -42.539 -45.142  10.987  1.00  0.00     0.118 C 
HETATM   19  C   UNL     1     -42.041 -45.446  12.403  1.00  0.00     0.034 C 
HETATM   20  C   UNL     1     -42.856 -46.556  13.046  1.00  0.00     0.028 C 
BRANCH  18  21
HETATM   21  O   UNL     1     -41.615 -44.262  10.345  1.00  0.00    -0.396 OA
HETATM   22  H   UNL     1     -42.112 -43.670   9.755  1.00  0.00     0.210 HD
ENDBRANCH  18  21
ENDBRANCH   4  15
TORSDOF 3
ENDMDL
MODEL 9
REMARK VINA RESULT:      -5.5      2.705      6.324
REMARK  3 active torsions:
REMARK  status: ('A' for Active; 'I' for Inactive)
REMARK    1  A    between atoms: C_6  and  N_7 
REMARK       I    between atoms: N_7  and  C_8 
REMARK       I    between atoms: C_8  and  N_10 
REMARK    2  A    between atoms: N_10  and  C_11 
REMARK    3  A    between atoms: C_14  and  O_15 
ROOT
HETATM    1  N   UNL     1     -42.523 -53.836  12.484  1.00  0.00    -0.295 N 
HETATM    2  C   UNL     1     -41.407 -53.066  12.682  1.00  0.00     0.322 C 
HETATM    3  O   UNL     1     -40.366 -53.334  12.088  1.00  0.00    -0.247 OA
HETATM    4  N   UNL     1     -41.546 -52.022  13.531  1.00  0.00    -0.338 N 
HETATM    5  H   UNL     1     -42.360 -54.609  11.855  1.00  0.00     0.172 HD
HETATM    6  H   UNL     1     -42.501 -51.895  13.864  1.00  0.00     0.164 HD
ENDROOT
BRANCH   1   7
HETATM    7  C   UNL     1     -43.833 -53.640  12.953  1.00  0.00     0.109 A 
HETATM    8  C   UNL     1     -44.238 -54.356  14.073  1.00  0.00     0.049 A 
HETATM    9  C   UNL     1     -45.530 -54.174  14.559  1.00  0.00     0.006 A 
HETATM   10  C   UNL     1     -46.387 -53.292  13.911  1.00  0.00     0.025 A 
HETATM   11  C   UNL     1     -45.925 -52.625  12.786  1.00  0.00     0.007 A 
HETATM   12  C   UNL     1     -46.828 -51.713  12.009  1.00  0.00     0.068 C 
HETATM   13  N   UNL     1     -44.661 -52.785  12.310  1.00  0.00    -0.346 N 
ATOM     14  HN  UNL     1     -44.344 -52.272  11.487  1.00  0.00     0.167 HD
ENDBRANCH   1   7
BRANCH   4  15
HETATM   15  C   UNL     1     -40.671 -50.880  13.659  1.00  0.00     0.086 C 
HETATM   16  C   UNL     1     -39.282 -51.139  14.248  1.00  0.00     0.028 C 
HETATM   17  C   UNL     1     -38.611 -49.796  14.583  1.00  0.00     0.034 C 
HETATM   18  C   UNL     1     -38.668 -48.760  13.446  1.00  0.00     0.118 C 
HETATM   19  C   UNL     1     -40.020 -48.692  12.729  1.00  0.00     0.034 C 
HETATM   20  C   UNL     1     -40.516 -50.082  12.361  1.00  0.00     0.028 C 
BRANCH  18  21
HETATM   21  O   UNL     1     -38.350 -47.468  13.967  1.00  0.00    -0.396 OA
HETATM   22  H   UNL     1     -37.392 -47.329  13.881  1.00  0.00     0.210 HD
ENDBRANCH  18  21
ENDBRANCH   4  15
TORSDOF 3
ENDMDL
