MODEL 1
REMARK VINA RESULT:      -6.2      0.000      0.000
REMARK  8 active torsions:
REMARK  status: ('A' for Active; 'I' for Inactive)
REMARK    1  A    between atoms: N_4  and  C_5 
REMARK    2  A    between atoms: C_5  and  C_6 
REMARK    3  A    between atoms: C_6  and  O_7 
REMARK    4  A    between atoms: C_6  and  C_8 
REMARK    5  A    between atoms: C_8  and  N_9 
REMARK    6  A    between atoms: N_9  and  C_10 
REMARK    7  A    between atoms: C_10  and  C_11 
REMARK    8  A    between atoms: C_11  and  N_12 
ROOT
HETATM    1  C   UNL     1     -40.978 -52.472  12.386  1.00  0.00     0.174 C 
ENDROOT
BRANCH   1   2
HETATM    2  C   UNL     1     -42.512 -52.346  12.561  1.00  0.00     0.305 C 
BRANCH   2   3
HETATM    3  N   UNL     1     -43.128 -53.476  13.276  1.00  0.00     0.096 N 
HETATM    4  C   UNL     1     -44.389 -53.056  13.926  1.00  0.00     0.303 C 
HETATM    5  C   UNL     1     -45.047 -54.214  14.708  1.00  0.00     0.146 C 
HETATM    6  C   UNL     1     -45.603 -55.302  13.791  1.00  0.00     0.041 C 
HETATM    7  O   UNL     1     -44.142 -54.756  15.685  1.00  0.00    -0.378 OA
HETATM    8  C   UNL     1     -42.891 -55.163  15.110  1.00  0.00     0.146 C 
HETATM    9  C   UNL     1     -42.232 -54.011  14.327  1.00  0.00     0.303 C 
HETATM   10  C   UNL     1     -41.979 -55.620  16.241  1.00  0.00     0.041 C 
ENDBRANCH   2   3
ENDBRANCH   1   2
BRANCH   1  11
HETATM   11  O   UNL     1     -40.631 -53.262  11.239  1.00  0.00    -0.392 OA
HETATM   12  H   UNL     1     -40.307 -52.653  10.555  1.00  0.00     0.210 HD
ENDBRANCH   1  11
BRANCH   1  13
HETATM   13  C   UNL     1     -40.362 -51.076  12.225  1.00  0.00     0.302 C 
BRANCH  13  14
HETATM   14  N   UNL     1     -40.754 -50.503  10.930  1.00  0.00     0.087 N 
HETATM   15  H   UNL     1     -41.678 -50.881  10.695  1.00  0.00     0.316 HD
BRANCH  14  16
HETATM   16  C   UNL     1     -40.789 -49.039  10.961  1.00  0.00     0.291 C 
BRANCH  16  17
HETATM   17  C   UNL     1     -42.200 -48.509  11.217  1.00  0.00     0.178 C 
BRANCH  17  18
HETATM   18  N   UNL     1     -42.693 -47.708  10.119  1.00  0.00    -0.302 N 
HETATM   19  C   UNL     1     -43.204 -46.446  10.196  1.00  0.00     0.111 A 
HETATM   20  C   UNL     1     -43.655 -46.152   8.931  1.00  0.00     0.037 A 
HETATM   21  C   UNL     1     -43.348 -47.291   8.164  1.00  0.00     0.108 A 
HETATM   22  N   UNL     1     -42.753 -48.242   8.884  1.00  0.00    -0.310 N 
ATOM     23  HN  UNL     1     -42.422 -49.155   8.574  1.00  0.00     0.186 HD
ENDBRANCH  17  18
ENDBRANCH  16  17
ENDBRANCH  14  16
ENDBRANCH  13  14
ENDBRANCH   1  13
TORSDOF 8
ENDMDL
MODEL 2
REMARK VINA RESULT:      -6.0      1.281      2.213
REMARK  8 active torsions:
REMARK  status: ('A' for Active; 'I' for Inactive)
REMARK    1  A    between atoms: N_4  and  C_5 
REMARK    2  A    between atoms: C_5  and  C_6 
REMARK    3  A    between atoms: C_6  and  O_7 
REMARK    4  A    between atoms: C_6  and  C_8 
REMARK    5  A    between atoms: C_8  and  N_9 
REMARK    6  A    between atoms: N_9  and  C_10 
REMARK    7  A    between atoms: C_10  and  C_11 
REMARK    8  A    between atoms: C_11  and  N_12 
ROOT
HETATM    1  C   UNL     1     -41.196 -52.457  12.402  1.00  0.00     0.174 C 
ENDROOT
BRANCH   1   2
HETATM    2  C   UNL     1     -42.736 -52.492  12.241  1.00  0.00     0.305 C 
BRANCH   2   3
HETATM    3  N   UNL     1     -43.466 -52.696  13.504  1.00  0.00     0.096 N 
HETATM    4  C   UNL     1     -43.814 -54.123  13.680  1.00  0.00     0.303 C 
HETATM    5  C   UNL     1     -44.604 -54.366  14.984  1.00  0.00     0.146 C 
HETATM    6  C   UNL     1     -43.748 -54.174  16.235  1.00  0.00     0.041 C 
HETATM    7  O   UNL     1     -45.792 -53.556  15.026  1.00  0.00    -0.378 OA
HETATM    8  C   UNL     1     -45.513 -52.160  14.842  1.00  0.00     0.146 C 
HETATM    9  C   UNL     1     -44.722 -51.913  13.542  1.00  0.00     0.303 C 
HETATM   10  C   UNL     1     -46.841 -51.415  14.799  1.00  0.00     0.041 C 
ENDBRANCH   2   3
ENDBRANCH   1   2
BRANCH   1  11
HETATM   11  O   UNL     1     -40.540 -53.339  11.479  1.00  0.00    -0.392 OA
HETATM   12  H   UNL     1     -39.602 -53.375  11.729  1.00  0.00     0.210 HD
ENDBRANCH   1  11
BRANCH   1  13
HETATM   13  C   UNL     1     -40.685 -51.030  12.165  1.00  0.00     0.302 C 
BRANCH  13  14
HETATM   14  N   UNL     1     -41.745 -50.216  11.554  1.00  0.00     0.087 N 
HETATM   15  H   UNL     1     -42.417 -49.982  12.292  1.00  0.00     0.316 HD
BRANCH  14  16
HETATM   16  C   UNL     1     -41.216 -48.997  10.934  1.00  0.00     0.291 C 
BRANCH  16  17
HETATM   17  C   UNL     1     -42.174 -47.816  11.096  1.00  0.00     0.178 C 
BRANCH  17  18
HETATM   18  N   UNL     1     -43.086 -47.692   9.982  1.00  0.00    -0.302 N 
HETATM   19  C   UNL     1     -44.433 -47.486  10.050  1.00  0.00     0.111 A 
HETATM   20  C   UNL     1     -44.885 -47.565   8.754  1.00  0.00     0.037 A 
HETATM   21  C   UNL     1     -43.731 -47.797   7.983  1.00  0.00     0.108 A 
HETATM   22  N   UNL     1     -42.628 -47.867   8.728  1.00  0.00    -0.310 N 
ATOM     23  HN  UNL     1     -41.667 -48.018   8.422  1.00  0.00     0.186 HD
ENDBRANCH  17  18
ENDBRANCH  16  17
ENDBRANCH  14  16
ENDBRANCH  13  14
ENDBRANCH   1  13
TORSDOF 8
ENDMDL
MODEL 3
REMARK VINA RESULT:      -5.9      1.938      2.715
REMARK  8 active torsions:
REMARK  status: ('A' for Active; 'I' for Inactive)
REMARK    1  A    between atoms: N_4  and  C_5 
REMARK    2  A    between atoms: C_5  and  C_6 
REMARK    3  A    between atoms: C_6  and  O_7 
REMARK    4  A    between atoms: C_6  and  C_8 
REMARK    5  A    between atoms: C_8  and  N_9 
REMARK    6  A    between atoms: N_9  and  C_10 
REMARK    7  A    between atoms: C_10  and  C_11 
REMARK    8  A    between atoms: C_11  and  N_12 
ROOT
HETATM    1  C   UNL     1     -40.931 -52.412  12.451  1.00  0.00     0.174 C 
ENDROOT
BRANCH   1   2
HETATM    2  C   UNL     1     -42.358 -51.825  12.306  1.00  0.00     0.305 C 
BRANCH   2   3
HETATM    3  N   UNL     1     -43.366 -52.488  13.150  1.00  0.00     0.096 N 
HETATM    4  C   UNL     1     -43.923 -53.674  12.463  1.00  0.00     0.303 C 
HETATM    5  C   UNL     1     -45.004 -54.377  13.312  1.00  0.00     0.146 C 
HETATM    6  C   UNL     1     -44.426 -55.067  14.547  1.00  0.00     0.041 C 
HETATM    7  O   UNL     1     -46.060 -53.464  13.662  1.00  0.00    -0.378 OA
HETATM    8  C   UNL     1     -45.572 -52.284  14.317  1.00  0.00     0.146 C 
HETATM    9  C   UNL     1     -44.491 -51.580  13.473  1.00  0.00     0.303 C 
HETATM   10  C   UNL     1     -46.753 -51.349  14.544  1.00  0.00     0.041 C 
ENDBRANCH   2   3
ENDBRANCH   1   2
BRANCH   1  11
HETATM   11  O   UNL     1     -40.600 -53.292  11.366  1.00  0.00    -0.392 OA
HETATM   12  H   UNL     1     -40.416 -54.166  11.748  1.00  0.00     0.210 HD
ENDBRANCH   1  11
BRANCH   1  13
HETATM   13  C   UNL     1     -39.906 -51.270  12.487  1.00  0.00     0.302 C 
BRANCH  13  14
HETATM   14  N   UNL     1     -40.036 -50.444  11.279  1.00  0.00     0.087 N 
HETATM   15  H   UNL     1     -40.915 -50.707  10.821  1.00  0.00     0.316 HD
BRANCH  14  16
HETATM   16  C   UNL     1     -40.025 -49.011  11.587  1.00  0.00     0.291 C 
BRANCH  16  17
HETATM   17  C   UNL     1     -41.177 -48.274  10.903  1.00  0.00     0.178 C 
BRANCH  17  18
HETATM   18  N   UNL     1     -40.990 -46.841  10.905  1.00  0.00    -0.302 N 
HETATM   19  C   UNL     1     -41.888 -45.902  11.319  1.00  0.00     0.111 A 
HETATM   20  C   UNL     1     -41.321 -44.687  11.014  1.00  0.00     0.037 A 
HETATM   21  C   UNL     1     -40.075 -45.004  10.442  1.00  0.00     0.108 A 
HETATM   22  N   UNL     1     -39.865 -46.320  10.381  1.00  0.00    -0.310 N 
ATOM     23  HN  UNL     1     -39.047 -46.813  10.022  1.00  0.00     0.186 HD
ENDBRANCH  17  18
ENDBRANCH  16  17
ENDBRANCH  14  16
ENDBRANCH  13  14
ENDBRANCH   1  13
TORSDOF 8
ENDMDL
MODEL 4
REMARK VINA RESULT:      -5.8      1.838      2.158
REMARK  8 active torsions:
REMARK  status: ('A' for Active; 'I' for Inactive)
REMARK    1  A    between atoms: N_4  and  C_5 
REMARK    2  A    between atoms: C_5  and  C_6 
REMARK    3  A    between atoms: C_6  and  O_7 
REMARK    4  A    between atoms: C_6  and  C_8 
REMARK    5  A    between atoms: C_8  and  N_9 
REMARK    6  A    between atoms: N_9  and  C_10 
REMARK    7  A    between atoms: C_10  and  C_11 
REMARK    8  A    between atoms: C_11  and  N_12 
ROOT
HETATM    1  C   UNL     1     -41.088 -52.620  12.397  1.00  0.00     0.174 C 
ENDROOT
BRANCH   1   2
HETATM    2  C   UNL     1     -42.635 -52.617  12.313  1.00  0.00     0.305 C 
BRANCH   2   3
HETATM    3  N   UNL     1     -43.281 -53.661  13.126  1.00  0.00     0.096 N 
HETATM    4  C   UNL     1     -44.474 -53.121  13.816  1.00  0.00     0.303 C 
HETATM    5  C   UNL     1     -45.159 -54.187  14.699  1.00  0.00     0.146 C 
HETATM    6  C   UNL     1     -45.835 -55.285  13.878  1.00  0.00     0.041 C 
HETATM    7  O   UNL     1     -44.237 -54.735  15.657  1.00  0.00    -0.378 OA
HETATM    8  C   UNL     1     -43.050 -55.257  15.041  1.00  0.00     0.146 C 
HETATM    9  C   UNL     1     -42.363 -54.197  14.157  1.00  0.00     0.303 C 
HETATM   10  C   UNL     1     -42.106 -55.710  16.147  1.00  0.00     0.041 C 
ENDBRANCH   2   3
ENDBRANCH   1   2
BRANCH   1  11
HETATM   11  O   UNL     1     -40.492 -53.309  11.288  1.00  0.00    -0.392 OA
HETATM   12  H   UNL     1     -39.562 -53.033  11.241  1.00  0.00     0.210 HD
ENDBRANCH   1  11
BRANCH   1  13
HETATM   13  C   UNL     1     -40.571 -51.175  12.413  1.00  0.00     0.302 C 
BRANCH  13  14
HETATM   14  N   UNL     1     -40.747 -50.567  11.087  1.00  0.00     0.087 N 
HETATM   15  H   UNL     1     -41.551 -51.024  10.644  1.00  0.00     0.316 HD
BRANCH  14  16
HETATM   16  C   UNL     1     -40.958 -49.119  11.168  1.00  0.00     0.291 C 
BRANCH  16  17
HETATM   17  C   UNL     1     -39.725 -48.395  11.710  1.00  0.00     0.178 C 
BRANCH  17  18
HETATM   18  N   UNL     1     -39.830 -46.959  11.580  1.00  0.00    -0.302 N 
HETATM   19  C   UNL     1     -39.731 -46.040  12.583  1.00  0.00     0.111 A 
HETATM   20  C   UNL     1     -40.022 -44.828  12.005  1.00  0.00     0.037 A 
HETATM   21  C   UNL     1     -40.260 -45.122  10.649  1.00  0.00     0.108 A 
HETATM   22  N   UNL     1     -40.135 -46.423  10.383  1.00  0.00    -0.310 N 
ATOM     23  HN  UNL     1     -40.245 -46.898   9.488  1.00  0.00     0.186 HD
ENDBRANCH  17  18
ENDBRANCH  16  17
ENDBRANCH  14  16
ENDBRANCH  13  14
ENDBRANCH   1  13
TORSDOF 8
ENDMDL
MODEL 5
REMARK VINA RESULT:      -5.7      1.989      2.534
REMARK  8 active torsions:
REMARK  status: ('A' for Active; 'I' for Inactive)
REMARK    1  A    between atoms: N_4  and  C_5 
REMARK    2  A    between atoms: C_5  and  C_6 
REMARK    3  A    between atoms: C_6  and  O_7 
REMARK    4  A    between atoms: C_6  and  C_8 
REMARK    5  A    between atoms: C_8  and  N_9 
REMARK    6  A    between atoms: N_9  and  C_10 
REMARK    7  A    between atoms: C_10  and  C_11 
REMARK    8  A    between atoms: C_11  and  N_12 
ROOT
HETATM    1  C   UNL     1     -40.360 -49.871  11.505  1.00  0.00     0.174 C 
ENDROOT
BRANCH   1   2
HETATM    2  C   UNL     1     -41.746 -50.151  12.137  1.00  0.00     0.305 C 
BRANCH   2   3
HETATM    3  N   UNL     1     -42.002 -51.575  12.412  1.00  0.00     0.096 N 
HETATM    4  C   UNL     1     -43.025 -51.726  13.470  1.00  0.00     0.303 C 
HETATM    5  C   UNL     1     -43.297 -53.209  13.801  1.00  0.00     0.146 C 
HETATM    6  C   UNL     1     -44.017 -53.942  12.669  1.00  0.00     0.041 C 
HETATM    7  O   UNL     1     -42.085 -53.884  14.182  1.00  0.00    -0.378 OA
HETATM    8  C   UNL     1     -41.050 -53.753  13.196  1.00  0.00     0.146 C 
HETATM    9  C   UNL     1     -40.777 -52.274  12.862  1.00  0.00     0.303 C 
HETATM   10  C   UNL     1     -39.790 -54.410  13.746  1.00  0.00     0.041 C 
ENDBRANCH   2   3
ENDBRANCH   1   2
BRANCH   1  11
HETATM   11  O   UNL     1     -40.409 -49.890  10.071  1.00  0.00    -0.392 OA
HETATM   12  H   UNL     1     -39.658 -50.424   9.762  1.00  0.00     0.210 HD
ENDBRANCH   1  11
BRANCH   1  13
HETATM   13  C   UNL     1     -39.854 -48.495  11.960  1.00  0.00     0.302 C 
BRANCH  13  14
HETATM   14  N   UNL     1     -39.966 -47.532  10.856  1.00  0.00     0.087 N 
HETATM   15  H   UNL     1     -40.493 -47.988  10.103  1.00  0.00     0.316 HD
BRANCH  14  16
HETATM   16  C   UNL     1     -40.626 -46.292  11.270  1.00  0.00     0.291 C 
BRANCH  16  17
HETATM   17  C   UNL     1     -42.100 -46.519  11.608  1.00  0.00     0.178 C 
BRANCH  17  18
HETATM   18  N   UNL     1     -42.939 -46.523  10.431  1.00  0.00    -0.302 N 
HETATM   19  C   UNL     1     -43.199 -47.587   9.618  1.00  0.00     0.111 A 
HETATM   20  C   UNL     1     -43.934 -47.083   8.572  1.00  0.00     0.037 A 
HETATM   21  C   UNL     1     -44.081 -45.714   8.860  1.00  0.00     0.108 A 
HETATM   22  N   UNL     1     -43.482 -45.368  10.000  1.00  0.00    -0.310 N 
ATOM     23  HN  UNL     1     -43.444 -44.450  10.440  1.00  0.00     0.186 HD
ENDBRANCH  17  18
ENDBRANCH  16  17
ENDBRANCH  14  16
ENDBRANCH  13  14
ENDBRANCH   1  13
TORSDOF 8
ENDMDL
MODEL 6
REMARK VINA RESULT:      -5.6      2.007      3.042
REMARK  8 active torsions:
REMARK  status: ('A' for Active; 'I' for Inactive)
REMARK    1  A    between atoms: N_4  and  C_5 
REMARK    2  A    between atoms: C_5  and  C_6 
REMARK    3  A    between atoms: C_6  and  O_7 
REMARK    4  A    between atoms: C_6  and  C_8 
REMARK    5  A    between atoms: C_8  and  N_9 
REMARK    6  A    between atoms: N_9  and  C_10 
REMARK    7  A    between atoms: C_10  and  C_11 
REMARK    8  A    between atoms: C_11  and  N_12 
ROOT
HETATM    1  C   UNL     1     -41.045 -52.850  12.614  1.00  0.00     0.174 C 
ENDROOT
BRANCH   1   2
HETATM    2  C   UNL     1     -42.311 -53.593  13.108  1.00  0.00     0.305 C 
BRANCH   2   3
HETATM    3  N   UNL     1     -43.409 -52.700  13.515  1.00  0.00     0.096 N 
HETATM    4  C   UNL     1     -43.960 -53.115  14.824  1.00  0.00     0.303 C 
HETATM    5  C   UNL     1     -45.132 -52.212  15.267  1.00  0.00     0.146 C 
HETATM    6  C   UNL     1     -44.681 -50.800  15.636  1.00  0.00     0.041 C 
HETATM    7  O   UNL     1     -46.173 -52.193  14.274  1.00  0.00    -0.378 OA
HETATM    8  C   UNL     1     -45.688 -51.814  12.977  1.00  0.00     0.146 C 
HETATM    9  C   UNL     1     -44.516 -52.711  12.531  1.00  0.00     0.303 C 
HETATM   10  C   UNL     1     -46.842 -51.929  11.990  1.00  0.00     0.041 C 
ENDBRANCH   2   3
ENDBRANCH   1   2
BRANCH   1  11
HETATM   11  O   UNL     1     -40.536 -53.408  11.393  1.00  0.00    -0.392 OA
HETATM   12  H   UNL     1     -40.475 -54.370  11.518  1.00  0.00     0.210 HD
ENDBRANCH   1  11
BRANCH   1  13
HETATM   13  C   UNL     1     -41.375 -51.370  12.378  1.00  0.00     0.302 C 
BRANCH  13  14
HETATM   14  N   UNL     1     -40.744 -50.911  11.132  1.00  0.00     0.087 N 
HETATM   15  H   UNL     1     -41.407 -51.086  10.370  1.00  0.00     0.316 HD
BRANCH  14  16
HETATM   16  C   UNL     1     -40.384 -49.492  11.187  1.00  0.00     0.291 C 
BRANCH  16  17
HETATM   17  C   UNL     1     -41.588 -48.590  10.912  1.00  0.00     0.178 C 
BRANCH  17  18
HETATM   18  N   UNL     1     -41.233 -47.189  10.901  1.00  0.00    -0.302 N 
HETATM   19  C   UNL     1     -42.073 -46.133  11.103  1.00  0.00     0.111 A 
HETATM   20  C   UNL     1     -41.317 -45.009  10.873  1.00  0.00     0.037 A 
HETATM   21  C   UNL     1     -40.033 -45.494  10.563  1.00  0.00     0.108 A 
HETATM   22  N   UNL     1     -39.975 -46.826  10.586  1.00  0.00    -0.310 N 
ATOM     23  HN  UNL     1     -39.170 -47.427  10.408  1.00  0.00     0.186 HD
ENDBRANCH  17  18
ENDBRANCH  16  17
ENDBRANCH  14  16
ENDBRANCH  13  14
ENDBRANCH   1  13
TORSDOF 8
ENDMDL
MODEL 7
REMARK VINA RESULT:      -5.4      1.986      2.936
REMARK  8 active torsions:
REMARK  status: ('A' for Active; 'I' for Inactive)
REMARK    1  A    between atoms: N_4  and  C_5 
REMARK    2  A    between atoms: C_5  and  C_6 
REMARK    3  A    between atoms: C_6  and  O_7 
REMARK    4  A    between atoms: C_6  and  C_8 
REMARK    5  A    between atoms: C_8  and  N_9 
REMARK    6  A    between atoms: N_9  and  C_10 
REMARK    7  A    between atoms: C_10  and  C_11 
REMARK    8  A    between atoms: C_11  and  N_12 
ROOT
HETATM    1  C   UNL     1     -40.421 -52.510  12.516  1.00  0.00     0.174 C 
ENDROOT
BRANCH   1   2
HETATM    2  C   UNL     1     -41.432 -52.877  13.631  1.00  0.00     0.305 C 
BRANCH   2   3
HETATM    3  N   UNL     1     -40.831 -53.584  14.775  1.00  0.00     0.096 N 
HETATM    4  C   UNL     1     -39.508 -54.137  14.410  1.00  0.00     0.303 C 
HETATM    5  C   UNL     1     -38.863 -54.908  15.582  1.00  0.00     0.146 C 
HETATM    6  C   UNL     1     -38.430 -53.989  16.723  1.00  0.00     0.041 C 
HETATM    7  O   UNL     1     -39.729 -55.958  16.047  1.00  0.00    -0.378 OA
HETATM    8  C   UNL     1     -41.036 -55.479  16.398  1.00  0.00     0.146 C 
HETATM    9  C   UNL     1     -41.682 -54.707  15.231  1.00  0.00     0.303 C 
HETATM   10  C   UNL     1     -41.893 -56.680  16.773  1.00  0.00     0.041 C 
ENDBRANCH   2   3
ENDBRANCH   1   2
BRANCH   1  11
HETATM   11  O   UNL     1     -40.694 -53.209  11.292  1.00  0.00    -0.392 OA
HETATM   12  H   UNL     1     -41.153 -54.033  11.525  1.00  0.00     0.210 HD
ENDBRANCH   1  11
BRANCH   1  13
HETATM   13  C   UNL     1     -40.481 -51.001  12.244  1.00  0.00     0.302 C 
BRANCH  13  14
HETATM   14  N   UNL     1     -41.787 -50.648  11.670  1.00  0.00     0.087 N 
HETATM   15  H   UNL     1     -42.492 -51.233  12.131  1.00  0.00     0.316 HD
BRANCH  14  16
HETATM   16  C   UNL     1     -42.101 -49.228  11.843  1.00  0.00     0.291 C 
BRANCH  16  17
HETATM   17  C   UNL     1     -41.500 -48.373  10.727  1.00  0.00     0.178 C 
BRANCH  17  18
HETATM   18  N   UNL     1     -42.512 -47.773   9.888  1.00  0.00    -0.302 N 
HETATM   19  C   UNL     1     -43.400 -46.802  10.248  1.00  0.00     0.111 A 
HETATM   20  C   UNL     1     -44.238 -46.648   9.169  1.00  0.00     0.037 A 
HETATM   21  C   UNL     1     -43.756 -47.554   8.206  1.00  0.00     0.108 A 
HETATM   22  N   UNL     1     -42.696 -48.238   8.638  1.00  0.00    -0.310 N 
ATOM     23  HN  UNL     1     -42.155 -48.945   8.141  1.00  0.00     0.186 HD
ENDBRANCH  17  18
ENDBRANCH  16  17
ENDBRANCH  14  16
ENDBRANCH  13  14
ENDBRANCH   1  13
TORSDOF 8
ENDMDL
MODEL 8
REMARK VINA RESULT:      -5.3      2.431      6.721
REMARK  8 active torsions:
REMARK  status: ('A' for Active; 'I' for Inactive)
REMARK    1  A    between atoms: N_4  and  C_5 
REMARK    2  A    between atoms: C_5  and  C_6 
REMARK    3  A    between atoms: C_6  and  O_7 
REMARK    4  A    between atoms: C_6  and  C_8 
REMARK    5  A    between atoms: C_8  and  N_9 
REMARK    6  A    between atoms: N_9  and  C_10 
REMARK    7  A    between atoms: C_10  and  C_11 
REMARK    8  A    between atoms: C_11  and  N_12 
ROOT
HETATM    1  C   UNL     1     -41.133 -52.428  12.166  1.00  0.00     0.174 C 
ENDROOT
BRANCH   1   2
HETATM    2  C   UNL     1     -40.114 -51.344  12.601  1.00  0.00     0.305 C 
BRANCH   2   3
HETATM    3  N   UNL     1     -40.621 -49.966  12.488  1.00  0.00     0.096 N 
HETATM    4  C   UNL     1     -40.777 -49.583  11.068  1.00  0.00     0.303 C 
HETATM    5  C   UNL     1     -41.283 -48.132  10.916  1.00  0.00     0.146 C 
HETATM    6  C   UNL     1     -42.733 -47.963  11.368  1.00  0.00     0.041 C 
HETATM    7  O   UNL     1     -40.408 -47.207  11.586  1.00  0.00    -0.378 OA
HETATM    8  C   UNL     1     -40.207 -47.544  12.967  1.00  0.00     0.146 C 
HETATM    9  C   UNL     1     -39.704 -48.993  13.124  1.00  0.00     0.303 C 
HETATM   10  C   UNL     1     -39.191 -46.569  13.547  1.00  0.00     0.041 C 
ENDBRANCH   2   3
ENDBRANCH   1   2
BRANCH   1  11
HETATM   11  O   UNL     1     -40.526 -53.435  11.343  1.00  0.00    -0.392 OA
HETATM   12  H   UNL     1     -40.384 -54.218  11.901  1.00  0.00     0.210 HD
ENDBRANCH   1  11
BRANCH   1  13
HETATM   13  C   UNL     1     -41.729 -53.102  13.409  1.00  0.00     0.302 C 
BRANCH  13  14
HETATM   14  N   UNL     1     -42.680 -54.146  13.002  1.00  0.00     0.087 N 
HETATM   15  H   UNL     1     -42.133 -54.954  12.688  1.00  0.00     0.316 HD
BRANCH  14  16
HETATM   16  C   UNL     1     -43.582 -54.526  14.092  1.00  0.00     0.291 C 
BRANCH  16  17
HETATM   17  C   UNL     1     -45.027 -54.665  13.612  1.00  0.00     0.178 C 
BRANCH  17  18
HETATM   18  N   UNL     1     -45.729 -53.401  13.610  1.00  0.00    -0.302 N 
HETATM   19  C   UNL     1     -45.972 -52.604  12.530  1.00  0.00     0.111 A 
HETATM   20  C   UNL     1     -46.549 -51.463  13.034  1.00  0.00     0.037 A 
HETATM   21  C   UNL     1     -46.631 -51.682  14.422  1.00  0.00     0.108 A 
HETATM   22  N   UNL     1     -46.138 -52.869  14.778  1.00  0.00    -0.310 N 
ATOM     23  HN  UNL     1     -46.083 -53.276  15.711  1.00  0.00     0.186 HD
ENDBRANCH  17  18
ENDBRANCH  16  17
ENDBRANCH  14  16
ENDBRANCH  13  14
ENDBRANCH   1  13
TORSDOF 8
ENDMDL
MODEL 9
REMARK VINA RESULT:      -5.3      2.677      6.681
REMARK  8 active torsions:
REMARK  status: ('A' for Active; 'I' for Inactive)
REMARK    1  A    between atoms: N_4  and  C_5 
REMARK    2  A    between atoms: C_5  and  C_6 
REMARK    3  A    between atoms: C_6  and  O_7 
REMARK    4  A    between atoms: C_6  and  C_8 
REMARK    5  A    between atoms: C_8  and  N_9 
REMARK    6  A    between atoms: N_9  and  C_10 
REMARK    7  A    between atoms: C_10  and  C_11 
REMARK    8  A    between atoms: C_11  and  N_12 
ROOT
HETATM    1  C   UNL     1     -41.366 -53.108  12.532  1.00  0.00     0.174 C 
ENDROOT
BRANCH   1   2
HETATM    2  C   UNL     1     -41.121 -51.765  13.263  1.00  0.00     0.305 C 
BRANCH   2   3
HETATM    3  N   UNL     1     -40.325 -50.797  12.488  1.00  0.00     0.096 N 
HETATM    4  C   UNL     1     -39.181 -50.305  13.288  1.00  0.00     0.303 C 
HETATM    5  C   UNL     1     -38.341 -49.267  12.511  1.00  0.00     0.146 C 
HETATM    6  C   UNL     1     -37.569 -49.887  11.348  1.00  0.00     0.041 C 
HETATM    7  O   UNL     1     -39.156 -48.164  12.078  1.00  0.00    -0.378 OA
HETATM    8  C   UNL     1     -40.294 -48.588  11.312  1.00  0.00     0.146 C 
HETATM    9  C   UNL     1     -41.134 -49.626  12.082  1.00  0.00     0.303 C 
HETATM   10  C   UNL     1     -41.135 -47.358  10.998  1.00  0.00     0.041 C 
ENDBRANCH   2   3
ENDBRANCH   1   2
BRANCH   1  11
HETATM   11  O   UNL     1     -40.617 -53.199  11.311  1.00  0.00    -0.392 OA
HETATM   12  H   UNL     1     -39.995 -53.940  11.407  1.00  0.00     0.210 HD
ENDBRANCH   1  11
BRANCH   1  13
HETATM   13  C   UNL     1     -40.960 -54.273  13.445  1.00  0.00     0.302 C 
BRANCH  13  14
HETATM   14  N   UNL     1     -41.741 -54.227  14.689  1.00  0.00     0.087 N 
HETATM   15  H   UNL     1     -41.652 -53.280  15.072  1.00  0.00     0.316 HD
BRANCH  14  16
HETATM   16  C   UNL     1     -43.150 -54.565  14.469  1.00  0.00     0.291 C 
BRANCH  16  17
HETATM   17  C   UNL     1     -44.085 -53.602  15.200  1.00  0.00     0.178 C 
BRANCH  17  18
HETATM   18  N   UNL     1     -44.943 -52.874  14.293  1.00  0.00    -0.302 N 
HETATM   19  C   UNL     1     -45.742 -51.812  14.601  1.00  0.00     0.111 A 
HETATM   20  C   UNL     1     -46.456 -51.543  13.457  1.00  0.00     0.037 A 
HETATM   21  C   UNL     1     -45.997 -52.481  12.515  1.00  0.00     0.108 A 
HETATM   22  N   UNL     1     -45.066 -53.292  13.019  1.00  0.00    -0.310 N 
ATOM     23  HN  UNL     1     -44.567 -54.048  12.551  1.00  0.00     0.186 HD
ENDBRANCH  17  18
ENDBRANCH  16  17
ENDBRANCH  14  16
ENDBRANCH  13  14
ENDBRANCH   1  13
TORSDOF 8
ENDMDL
