MODEL 1
REMARK VINA RESULT:      -5.7      0.000      0.000
REMARK  5 active torsions:
REMARK  status: ('A' for Active; 'I' for Inactive)
REMARK    1  A    between atoms: O_2  and  C_3 
REMARK    2  A    between atoms: C_3  and  C_4 
REMARK    3  A    between atoms: C_4  and  O_5 
REMARK    4  A    between atoms: O_5  and  C_6 
REMARK    5  A    between atoms: C_9  and  N_10 
REMARK       I    between atoms: N_10  and  C_11 
REMARK       I    between atoms: C_11  and  N_13 
ROOT
HETATM    1  C   UNL     1     -41.187 -46.119  10.293  1.00  0.00     0.141 A 
HETATM    2  C   UNL     1     -42.523 -46.442  10.140  1.00  0.00     0.058 A 
HETATM    3  C   UNL     1     -42.964 -47.679  10.603  1.00  0.00     0.035 A 
HETATM    4  C   UNL     1     -42.072 -48.567  11.206  1.00  0.00     0.051 A 
HETATM    5  C   UNL     1     -40.753 -48.128  11.328  1.00  0.00     0.119 A 
HETATM    6  N   UNL     1     -40.285 -46.929  10.884  1.00  0.00    -0.345 N 
ATOM      7  HN  UNL     1     -39.308 -46.659  10.993  1.00  0.00     0.167 HD
ENDROOT
BRANCH   4   8
HETATM    8  N   UNL     1     -42.449 -49.846  11.705  1.00  0.00    -0.307 N 
HETATM    9  C   UNL     1     -42.997 -50.062  12.950  1.00  0.00     0.323 C 
HETATM   10  O   UNL     1     -43.326 -49.123  13.671  1.00  0.00    -0.247 OA
HETATM   11  N   UNL     1     -43.158 -51.378  13.359  1.00  0.00    -0.326 N 
HETATM   12  C   UNL     1     -42.850 -52.582  12.567  1.00  0.00     0.158 C 
HETATM   13  C   UNL     1     -43.659 -51.719  14.723  1.00  0.00     0.113 C 
HETATM   14  C   UNL     1     -44.051 -53.557  12.524  1.00  0.00     0.291 C 
HETATM   15  N   UNL     1     -44.639 -53.898  13.834  1.00  0.00     0.087 N 
HETATM   16  C   UNL     1     -43.811 -54.839  14.585  1.00  0.00     0.310 C 
HETATM   17  C   UNL     1     -44.889 -52.660  14.604  1.00  0.00     0.296 C 
HETATM   18  C   UNL     1     -44.010 -50.588  15.699  1.00  0.00     0.034 C 
HETATM   19  H   UNL     1     -42.541 -50.573  11.018  1.00  0.00     0.170 HD
ENDBRANCH   4   8
BRANCH   1  20
HETATM   20  O   UNL     1     -40.833 -44.846   9.902  1.00  0.00    -0.334 OA
BRANCH  20  21
HETATM   21  C   UNL     1     -40.039 -44.148  10.859  1.00  0.00     0.203 C 
BRANCH  21  22
HETATM   22  C   UNL     1     -40.914 -43.060  11.476  1.00  0.00     0.193 C 
BRANCH  22  23
HETATM   23  O   UNL     1     -41.849 -42.578  10.511  1.00  0.00    -0.394 OA
HETATM   24  C   UNL     1     -43.172 -42.562  11.032  1.00  0.00     0.201 C 
ENDBRANCH  22  23
ENDBRANCH  21  22
ENDBRANCH  20  21
ENDBRANCH   1  20
TORSDOF 5
ENDMDL
MODEL 2
REMARK VINA RESULT:      -5.5      1.465      2.040
REMARK  5 active torsions:
REMARK  status: ('A' for Active; 'I' for Inactive)
REMARK    1  A    between atoms: O_2  and  C_3 
REMARK    2  A    between atoms: C_3  and  C_4 
REMARK    3  A    between atoms: C_4  and  O_5 
REMARK    4  A    between atoms: O_5  and  C_6 
REMARK    5  A    between atoms: C_9  and  N_10 
REMARK       I    between atoms: N_10  and  C_11 
REMARK       I    between atoms: C_11  and  N_13 
ROOT
HETATM    1  C   UNL     1     -40.876 -46.610  11.181  1.00  0.00     0.141 A 
HETATM    2  C   UNL     1     -41.094 -46.718  12.542  1.00  0.00     0.058 A 
HETATM    3  C   UNL     1     -41.804 -47.819  13.015  1.00  0.00     0.035 A 
HETATM    4  C   UNL     1     -42.281 -48.786  12.130  1.00  0.00     0.051 A 
HETATM    5  C   UNL     1     -41.984 -48.588  10.781  1.00  0.00     0.119 A 
HETATM    6  N   UNL     1     -41.297 -47.524  10.282  1.00  0.00    -0.345 N 
ATOM      7  HN  UNL     1     -41.111 -47.423   9.284  1.00  0.00     0.167 HD
ENDROOT
BRANCH   4   8
HETATM    8  N   UNL     1     -43.012 -49.938  12.540  1.00  0.00    -0.307 N 
HETATM    9  C   UNL     1     -42.452 -51.180  12.740  1.00  0.00     0.323 C 
HETATM   10  O   UNL     1     -41.235 -51.342  12.706  1.00  0.00    -0.247 OA
HETATM   11  N   UNL     1     -43.316 -52.241  12.975  1.00  0.00    -0.326 N 
HETATM   12  C   UNL     1     -44.784 -52.163  13.088  1.00  0.00     0.158 C 
HETATM   13  C   UNL     1     -42.817 -53.641  13.116  1.00  0.00     0.113 C 
HETATM   14  C   UNL     1     -45.290 -52.838  14.386  1.00  0.00     0.291 C 
HETATM   15  N   UNL     1     -44.793 -54.207  14.624  1.00  0.00     0.087 N 
HETATM   16  C   UNL     1     -45.452 -55.192  13.770  1.00  0.00     0.310 C 
HETATM   17  C   UNL     1     -43.324 -54.239  14.456  1.00  0.00     0.296 C 
HETATM   18  C   UNL     1     -41.313 -53.917  13.002  1.00  0.00     0.034 C 
HETATM   19  H   UNL     1     -43.920 -49.762  12.930  1.00  0.00     0.170 HD
ENDBRANCH   4   8
BRANCH   1  20
HETATM   20  O   UNL     1     -40.088 -45.552  10.786  1.00  0.00    -0.334 OA
BRANCH  20  21
HETATM   21  C   UNL     1     -39.995 -44.508  11.753  1.00  0.00     0.203 C 
BRANCH  21  22
HETATM   22  C   UNL     1     -40.444 -43.215  11.078  1.00  0.00     0.193 C 
BRANCH  22  23
HETATM   23  O   UNL     1     -41.834 -43.284  10.763  1.00  0.00    -0.394 OA
HETATM   24  C   UNL     1     -42.633 -43.317  11.940  1.00  0.00     0.201 C 
ENDBRANCH  22  23
ENDBRANCH  21  22
ENDBRANCH  20  21
ENDBRANCH   1  20
TORSDOF 5
ENDMDL
MODEL 3
REMARK VINA RESULT:      -5.3      2.444      3.579
REMARK  5 active torsions:
REMARK  status: ('A' for Active; 'I' for Inactive)
REMARK    1  A    between atoms: O_2  and  C_3 
REMARK    2  A    between atoms: C_3  and  C_4 
REMARK    3  A    between atoms: C_4  and  O_5 
REMARK    4  A    between atoms: O_5  and  C_6 
REMARK    5  A    between atoms: C_9  and  N_10 
REMARK       I    between atoms: N_10  and  C_11 
REMARK       I    between atoms: C_11  and  N_13 
ROOT
HETATM    1  C   UNL     1     -42.037 -48.282  10.687  1.00  0.00     0.141 A 
HETATM    2  C   UNL     1     -43.020 -48.190  11.655  1.00  0.00     0.058 A 
HETATM    3  C   UNL     1     -43.034 -49.134  12.679  1.00  0.00     0.035 A 
HETATM    4  C   UNL     1     -42.074 -50.145  12.721  1.00  0.00     0.051 A 
HETATM    5  C   UNL     1     -41.116 -50.129  11.706  1.00  0.00     0.119 A 
HETATM    6  N   UNL     1     -41.073 -49.226  10.688  1.00  0.00    -0.345 N 
ATOM      7  HN  UNL     1     -40.353 -49.262   9.966  1.00  0.00     0.167 HD
ENDROOT
BRANCH   4   8
HETATM    8  N   UNL     1     -42.023 -51.142  13.736  1.00  0.00    -0.307 N 
HETATM    9  C   UNL     1     -42.811 -52.271  13.755  1.00  0.00     0.323 C 
HETATM   10  O   UNL     1     -43.529 -52.561  12.801  1.00  0.00    -0.247 OA
HETATM   11  N   UNL     1     -42.766 -53.065  14.893  1.00  0.00    -0.326 N 
HETATM   12  C   UNL     1     -41.911 -52.849  16.074  1.00  0.00     0.158 C 
HETATM   13  C   UNL     1     -43.647 -54.260  15.050  1.00  0.00     0.113 C 
HETATM   14  C   UNL     1     -41.111 -54.124  16.436  1.00  0.00     0.291 C 
HETATM   15  N   UNL     1     -41.907 -55.361  16.553  1.00  0.00     0.087 N 
HETATM   16  C   UNL     1     -42.679 -55.408  17.793  1.00  0.00     0.310 C 
HETATM   17  C   UNL     1     -42.776 -55.507  15.366  1.00  0.00     0.296 C 
HETATM   18  C   UNL     1     -44.624 -54.626  13.925  1.00  0.00     0.034 C 
HETATM   19  H   UNL     1     -41.205 -51.129  14.320  1.00  0.00     0.170 HD
ENDBRANCH   4   8
BRANCH   1  20
HETATM   20  O   UNL     1     -42.020 -47.266   9.757  1.00  0.00    -0.334 OA
BRANCH  20  21
HETATM   21  C   UNL     1     -42.977 -46.239  10.006  1.00  0.00     0.203 C 
BRANCH  21  22
HETATM   22  C   UNL     1     -43.823 -46.083   8.745  1.00  0.00     0.193 C 
BRANCH  22  23
HETATM   23  O   UNL     1     -44.461 -47.319   8.429  1.00  0.00    -0.394 OA
HETATM   24  C   UNL     1     -45.687 -47.468   9.135  1.00  0.00     0.201 C 
ENDBRANCH  22  23
ENDBRANCH  21  22
ENDBRANCH  20  21
ENDBRANCH   1  20
TORSDOF 5
ENDMDL
MODEL 4
REMARK VINA RESULT:      -5.2      4.211      5.863
REMARK  5 active torsions:
REMARK  status: ('A' for Active; 'I' for Inactive)
REMARK    1  A    between atoms: O_2  and  C_3 
REMARK    2  A    between atoms: C_3  and  C_4 
REMARK    3  A    between atoms: C_4  and  O_5 
REMARK    4  A    between atoms: O_5  and  C_6 
REMARK    5  A    between atoms: C_9  and  N_10 
REMARK       I    between atoms: N_10  and  C_11 
REMARK       I    between atoms: C_11  and  N_13 
ROOT
HETATM    1  C   UNL     1     -42.817 -46.691  10.054  1.00  0.00     0.141 A 
HETATM    2  C   UNL     1     -43.346 -47.332  11.159  1.00  0.00     0.058 A 
HETATM    3  C   UNL     1     -42.500 -47.624  12.225  1.00  0.00     0.035 A 
HETATM    4  C   UNL     1     -41.150 -47.275  12.172  1.00  0.00     0.051 A 
HETATM    5  C   UNL     1     -40.730 -46.612  11.019  1.00  0.00     0.119 A 
HETATM    6  N   UNL     1     -41.526 -46.313   9.956  1.00  0.00    -0.345 N 
ATOM      7  HN  UNL     1     -41.167 -45.831   9.132  1.00  0.00     0.167 HD
ENDROOT
BRANCH   4   8
HETATM    8  N   UNL     1     -40.226 -47.539  13.223  1.00  0.00    -0.307 N 
HETATM    9  C   UNL     1     -39.647 -48.766  13.456  1.00  0.00     0.323 C 
HETATM   10  O   UNL     1     -39.794 -49.699  12.670  1.00  0.00    -0.247 OA
HETATM   11  N   UNL     1     -38.897 -48.910  14.616  1.00  0.00    -0.326 N 
HETATM   12  C   UNL     1     -38.608 -47.857  15.605  1.00  0.00     0.158 C 
HETATM   13  C   UNL     1     -38.302 -50.223  15.005  1.00  0.00     0.113 C 
HETATM   14  C   UNL     1     -37.091 -47.751  15.895  1.00  0.00     0.291 C 
HETATM   15  N   UNL     1     -36.419 -49.020  16.234  1.00  0.00     0.087 N 
HETATM   16  C   UNL     1     -36.721 -49.461  17.594  1.00  0.00     0.310 C 
HETATM   17  C   UNL     1     -36.776 -50.052  15.237  1.00  0.00     0.296 C 
HETATM   18  C   UNL     1     -38.520 -51.444  14.103  1.00  0.00     0.034 C 
HETATM   19  H   UNL     1     -39.804 -46.731  13.646  1.00  0.00     0.170 HD
ENDBRANCH   4   8
BRANCH   1  20
HETATM   20  O   UNL     1     -43.723 -46.345   9.075  1.00  0.00    -0.334 OA
BRANCH  20  21
HETATM   21  C   UNL     1     -44.732 -47.328   8.849  1.00  0.00     0.203 C 
BRANCH  21  22
HETATM   22  C   UNL     1     -46.085 -46.624   8.926  1.00  0.00     0.193 C 
BRANCH  22  23
HETATM   23  O   UNL     1     -47.137 -47.564   8.716  1.00  0.00    -0.394 OA
HETATM   24  C   UNL     1     -46.630 -48.840   8.347  1.00  0.00     0.201 C 
ENDBRANCH  22  23
ENDBRANCH  21  22
ENDBRANCH  20  21
ENDBRANCH   1  20
TORSDOF 5
ENDMDL
MODEL 5
REMARK VINA RESULT:      -5.1      3.723      4.450
REMARK  5 active torsions:
REMARK  status: ('A' for Active; 'I' for Inactive)
REMARK    1  A    between atoms: O_2  and  C_3 
REMARK    2  A    between atoms: C_3  and  C_4 
REMARK    3  A    between atoms: C_4  and  O_5 
REMARK    4  A    between atoms: O_5  and  C_6 
REMARK    5  A    between atoms: C_9  and  N_10 
REMARK       I    between atoms: N_10  and  C_11 
REMARK       I    between atoms: C_11  and  N_13 
ROOT
HETATM    1  C   UNL     1     -42.163 -48.204  10.627  1.00  0.00     0.141 A 
HETATM    2  C   UNL     1     -42.913 -48.488  11.753  1.00  0.00     0.058 A 
HETATM    3  C   UNL     1     -42.533 -49.566  12.549  1.00  0.00     0.035 A 
HETATM    4  C   UNL     1     -41.419 -50.335  12.212  1.00  0.00     0.051 A 
HETATM    5  C   UNL     1     -40.722 -49.943  11.068  1.00  0.00     0.119 A 
HETATM    6  N   UNL     1     -41.066 -48.900  10.264  1.00  0.00    -0.345 N 
ATOM      7  HN  UNL     1     -40.525 -48.659   9.434  1.00  0.00     0.167 HD
ENDROOT
BRANCH   4   8
HETATM    8  N   UNL     1     -40.968 -51.448  12.978  1.00  0.00    -0.307 N 
HETATM    9  C   UNL     1     -40.128 -51.353  14.064  1.00  0.00     0.323 C 
HETATM   10  O   UNL     1     -39.814 -50.261  14.532  1.00  0.00    -0.247 OA
HETATM   11  N   UNL     1     -39.644 -52.536  14.605  1.00  0.00    -0.326 N 
HETATM   12  C   UNL     1     -39.985 -53.900  14.166  1.00  0.00     0.158 C 
HETATM   13  C   UNL     1     -38.658 -52.539  15.726  1.00  0.00     0.113 C 
HETATM   14  C   UNL     1     -40.448 -54.780  15.352  1.00  0.00     0.291 C 
HETATM   15  N   UNL     1     -39.551 -54.790  16.524  1.00  0.00     0.087 N 
HETATM   16  C   UNL     1     -38.355 -55.598  16.298  1.00  0.00     0.310 C 
HETATM   17  C   UNL     1     -39.205 -53.401  16.896  1.00  0.00     0.296 C 
HETATM   18  C   UNL     1     -38.167 -51.203  16.299  1.00  0.00     0.034 C 
HETATM   19  H   UNL     1     -41.489 -52.299  12.859  1.00  0.00     0.170 HD
ENDBRANCH   4   8
BRANCH   1  20
HETATM   20  O   UNL     1     -42.533 -47.071   9.935  1.00  0.00    -0.334 OA
BRANCH  20  21
HETATM   21  C   UNL     1     -43.212 -47.339   8.710  1.00  0.00     0.203 C 
BRANCH  21  22
HETATM   22  C   UNL     1     -44.630 -46.788   8.842  1.00  0.00     0.193 C 
BRANCH  22  23
HETATM   23  O   UNL     1     -45.581 -47.824   8.599  1.00  0.00    -0.394 OA
HETATM   24  C   UNL     1     -46.856 -47.496   9.138  1.00  0.00     0.201 C 
ENDBRANCH  22  23
ENDBRANCH  21  22
ENDBRANCH  20  21
ENDBRANCH   1  20
TORSDOF 5
ENDMDL
MODEL 6
REMARK VINA RESULT:      -4.9      2.486      8.458
REMARK  5 active torsions:
REMARK  status: ('A' for Active; 'I' for Inactive)
REMARK    1  A    between atoms: O_2  and  C_3 
REMARK    2  A    between atoms: C_3  and  C_4 
REMARK    3  A    between atoms: C_4  and  O_5 
REMARK    4  A    between atoms: O_5  and  C_6 
REMARK    5  A    between atoms: C_9  and  N_10 
REMARK       I    between atoms: N_10  and  C_11 
REMARK       I    between atoms: C_11  and  N_13 
ROOT
HETATM    1  C   UNL     1     -43.516 -52.776  12.578  1.00  0.00     0.141 A 
HETATM    2  C   UNL     1     -42.198 -52.574  12.212  1.00  0.00     0.058 A 
HETATM    3  C   UNL     1     -41.680 -51.283  12.277  1.00  0.00     0.035 A 
HETATM    4  C   UNL     1     -42.479 -50.223  12.705  1.00  0.00     0.051 A 
HETATM    5  C   UNL     1     -43.787 -50.544  13.072  1.00  0.00     0.119 A 
HETATM    6  N   UNL     1     -44.328 -51.792  13.017  1.00  0.00    -0.345 N 
ATOM      7  HN  UNL     1     -45.294 -51.973  13.291  1.00  0.00     0.167 HD
ENDROOT
BRANCH   4   8
HETATM    8  N   UNL     1     -42.020 -48.878  12.800  1.00  0.00    -0.307 N 
HETATM    9  C   UNL     1     -42.349 -47.881  11.909  1.00  0.00     0.323 C 
HETATM   10  O   UNL     1     -43.188 -48.065  11.030  1.00  0.00    -0.247 OA
HETATM   11  N   UNL     1     -41.692 -46.665  12.037  1.00  0.00    -0.326 N 
HETATM   12  C   UNL     1     -40.708 -46.310  13.076  1.00  0.00     0.158 C 
HETATM   13  C   UNL     1     -41.910 -45.551  11.068  1.00  0.00     0.113 C 
HETATM   14  C   UNL     1     -41.081 -44.984  13.782  1.00  0.00     0.291 C 
HETATM   15  N   UNL     1     -41.368 -43.846  12.886  1.00  0.00     0.087 N 
HETATM   16  C   UNL     1     -40.153 -43.279  12.305  1.00  0.00     0.310 C 
HETATM   17  C   UNL     1     -42.324 -44.267  11.839  1.00  0.00     0.296 C 
HETATM   18  C   UNL     1     -42.887 -45.749   9.902  1.00  0.00     0.034 C 
HETATM   19  H   UNL     1     -41.645 -48.607  13.692  1.00  0.00     0.170 HD
ENDBRANCH   4   8
BRANCH   1  20
HETATM   20  O   UNL     1     -43.940 -54.086  12.582  1.00  0.00    -0.334 OA
BRANCH  20  21
HETATM   21  C   UNL     1     -44.198 -54.606  13.885  1.00  0.00     0.203 C 
BRANCH  21  22
HETATM   22  C   UNL     1     -45.637 -55.114  13.901  1.00  0.00     0.193 C 
BRANCH  22  23
HETATM   23  O   UNL     1     -46.266 -54.764  15.133  1.00  0.00    -0.394 OA
HETATM   24  C   UNL     1     -45.444 -53.901  15.910  1.00  0.00     0.201 C 
ENDBRANCH  22  23
ENDBRANCH  21  22
ENDBRANCH  20  21
ENDBRANCH   1  20
TORSDOF 5
ENDMDL
MODEL 7
REMARK VINA RESULT:      -4.9      6.725      9.977
REMARK  5 active torsions:
REMARK  status: ('A' for Active; 'I' for Inactive)
REMARK    1  A    between atoms: O_2  and  C_3 
REMARK    2  A    between atoms: C_3  and  C_4 
REMARK    3  A    between atoms: C_4  and  O_5 
REMARK    4  A    between atoms: O_5  and  C_6 
REMARK    5  A    between atoms: C_9  and  N_10 
REMARK       I    between atoms: N_10  and  C_11 
REMARK       I    between atoms: C_11  and  N_13 
ROOT
HETATM    1  C   UNL     1     -41.624 -54.233  13.843  1.00  0.00     0.141 A 
HETATM    2  C   UNL     1     -40.284 -54.271  13.504  1.00  0.00     0.058 A 
HETATM    3  C   UNL     1     -39.367 -54.689  14.466  1.00  0.00     0.035 A 
HETATM    4  C   UNL     1     -39.799 -55.058  15.740  1.00  0.00     0.051 A 
HETATM    5  C   UNL     1     -41.175 -55.003  15.964  1.00  0.00     0.119 A 
HETATM    6  N   UNL     1     -42.100 -54.597  15.051  1.00  0.00    -0.345 N 
ATOM      7  HN  UNL     1     -43.096 -54.570  15.269  1.00  0.00     0.167 HD
ENDROOT
BRANCH   4   8
HETATM    8  N   UNL     1     -38.923 -55.497  16.773  1.00  0.00    -0.307 N 
HETATM    9  C   UNL     1     -38.929 -56.766  17.308  1.00  0.00     0.323 C 
HETATM   10  O   UNL     1     -39.618 -57.659  16.820  1.00  0.00    -0.247 OA
HETATM   11  N   UNL     1     -38.132 -56.996  18.421  1.00  0.00    -0.326 N 
HETATM   12  C   UNL     1     -37.228 -56.024  19.062  1.00  0.00     0.158 C 
HETATM   13  C   UNL     1     -38.135 -58.310  19.128  1.00  0.00     0.113 C 
HETATM   14  C   UNL     1     -35.802 -56.602  19.232  1.00  0.00     0.291 C 
HETATM   15  N   UNL     1     -35.727 -57.929  19.875  1.00  0.00     0.087 N 
HETATM   16  C   UNL     1     -35.948 -57.859  21.317  1.00  0.00     0.310 C 
HETATM   17  C   UNL     1     -36.682 -58.851  19.223  1.00  0.00     0.296 C 
HETATM   18  C   UNL     1     -39.037 -59.439  18.613  1.00  0.00     0.034 C 
HETATM   19  H   UNL     1     -38.114 -54.923  16.933  1.00  0.00     0.170 HD
ENDBRANCH   4   8
BRANCH   1  20
HETATM   20  O   UNL     1     -42.487 -53.904  12.821  1.00  0.00    -0.334 OA
BRANCH  20  21
HETATM   21  C   UNL     1     -43.198 -52.686  13.036  1.00  0.00     0.203 C 
BRANCH  21  22
HETATM   22  C   UNL     1     -44.677 -53.035  13.176  1.00  0.00     0.193 C 
BRANCH  22  23
HETATM   23  O   UNL     1     -44.906 -54.375  12.744  1.00  0.00    -0.394 OA
HETATM   24  C   UNL     1     -45.542 -55.147  13.756  1.00  0.00     0.201 C 
ENDBRANCH  22  23
ENDBRANCH  21  22
ENDBRANCH  20  21
ENDBRANCH   1  20
TORSDOF 5
ENDMDL
MODEL 8
REMARK VINA RESULT:      -4.8      4.351      6.095
REMARK  5 active torsions:
REMARK  status: ('A' for Active; 'I' for Inactive)
REMARK    1  A    between atoms: O_2  and  C_3 
REMARK    2  A    between atoms: C_3  and  C_4 
REMARK    3  A    between atoms: C_4  and  O_5 
REMARK    4  A    between atoms: O_5  and  C_6 
REMARK    5  A    between atoms: C_9  and  N_10 
REMARK       I    between atoms: N_10  and  C_11 
REMARK       I    between atoms: C_11  and  N_13 
ROOT
HETATM    1  C   UNL     1     -42.211 -46.933   9.637  1.00  0.00     0.141 A 
HETATM    2  C   UNL     1     -42.321 -48.108  10.357  1.00  0.00     0.058 A 
HETATM    3  C   UNL     1     -41.412 -48.344  11.386  1.00  0.00     0.035 A 
HETATM    4  C   UNL     1     -40.417 -47.411  11.678  1.00  0.00     0.051 A 
HETATM    5  C   UNL     1     -40.414 -46.250  10.903  1.00  0.00     0.119 A 
HETATM    6  N   UNL     1     -41.282 -45.988   9.888  1.00  0.00    -0.345 N 
ATOM      7  HN  UNL     1     -41.232 -45.124   9.347  1.00  0.00     0.167 HD
ENDROOT
BRANCH   4   8
HETATM    8  N   UNL     1     -39.456 -47.581  12.714  1.00  0.00    -0.307 N 
HETATM    9  C   UNL     1     -39.605 -47.102  13.997  1.00  0.00     0.323 C 
HETATM   10  O   UNL     1     -40.663 -46.600  14.369  1.00  0.00    -0.247 OA
HETATM   11  N   UNL     1     -38.513 -47.200  14.848  1.00  0.00    -0.326 N 
HETATM   12  C   UNL     1     -37.215 -47.823  14.534  1.00  0.00     0.158 C 
HETATM   13  C   UNL     1     -38.542 -46.631  16.228  1.00  0.00     0.113 C 
HETATM   14  C   UNL     1     -36.809 -48.863  15.607  1.00  0.00     0.291 C 
HETATM   15  N   UNL     1     -36.867 -48.390  17.004  1.00  0.00     0.087 N 
HETATM   16  C   UNL     1     -35.752 -47.506  17.336  1.00  0.00     0.310 C 
HETATM   17  C   UNL     1     -38.170 -47.737  17.253  1.00  0.00     0.296 C 
HETATM   18  C   UNL     1     -39.810 -45.921  16.721  1.00  0.00     0.034 C 
HETATM   19  H   UNL     1     -38.763 -48.292  12.555  1.00  0.00     0.170 HD
ENDBRANCH   4   8
BRANCH   1  20
HETATM   20  O   UNL     1     -43.195 -46.715   8.698  1.00  0.00    -0.334 OA
BRANCH  20  21
HETATM   21  C   UNL     1     -44.145 -45.722   9.077  1.00  0.00     0.203 C 
BRANCH  21  22
HETATM   22  C   UNL     1     -45.533 -46.349   8.972  1.00  0.00     0.193 C 
BRANCH  22  23
HETATM   23  O   UNL     1     -45.422 -47.723   8.603  1.00  0.00    -0.394 OA
HETATM   24  C   UNL     1     -46.649 -48.415   8.797  1.00  0.00     0.201 C 
ENDBRANCH  22  23
ENDBRANCH  21  22
ENDBRANCH  20  21
ENDBRANCH   1  20
TORSDOF 5
ENDMDL
MODEL 9
REMARK VINA RESULT:      -4.8      3.689      4.761
REMARK  5 active torsions:
REMARK  status: ('A' for Active; 'I' for Inactive)
REMARK    1  A    between atoms: O_2  and  C_3 
REMARK    2  A    between atoms: C_3  and  C_4 
REMARK    3  A    between atoms: C_4  and  O_5 
REMARK    4  A    between atoms: O_5  and  C_6 
REMARK    5  A    between atoms: C_9  and  N_10 
REMARK       I    between atoms: N_10  and  C_11 
REMARK       I    between atoms: C_11  and  N_13 
ROOT
HETATM    1  C   UNL     1     -41.053 -49.557  11.537  1.00  0.00     0.141 A 
HETATM    2  C   UNL     1     -40.908 -49.157  12.853  1.00  0.00     0.058 A 
HETATM    3  C   UNL     1     -40.524 -50.106  13.797  1.00  0.00     0.035 A 
HETATM    4  C   UNL     1     -40.293 -51.428  13.416  1.00  0.00     0.051 A 
HETATM    5  C   UNL     1     -40.447 -51.715  12.059  1.00  0.00     0.119 A 
HETATM    6  N   UNL     1     -40.824 -50.815  11.109  1.00  0.00    -0.345 N 
ATOM      7  HN  UNL     1     -40.929 -51.079  10.129  1.00  0.00     0.167 HD
ENDROOT
BRANCH   4   8
HETATM    8  N   UNL     1     -39.896 -52.452  14.322  1.00  0.00    -0.307 N 
HETATM    9  C   UNL     1     -40.769 -53.310  14.953  1.00  0.00     0.323 C 
HETATM   10  O   UNL     1     -41.962 -53.331  14.662  1.00  0.00    -0.247 OA
HETATM   11  N   UNL     1     -40.250 -54.144  15.935  1.00  0.00    -0.326 N 
HETATM   12  C   UNL     1     -38.835 -54.245  16.336  1.00  0.00     0.158 C 
HETATM   13  C   UNL     1     -41.126 -55.046  16.739  1.00  0.00     0.113 C 
HETATM   14  C   UNL     1     -38.342 -55.712  16.315  1.00  0.00     0.291 C 
HETATM   15  N   UNL     1     -39.189 -56.677  17.043  1.00  0.00     0.087 N 
HETATM   16  C   UNL     1     -39.031 -56.569  18.492  1.00  0.00     0.310 C 
HETATM   17  C   UNL     1     -40.601 -56.504  16.637  1.00  0.00     0.296 C 
HETATM   18  C   UNL     1     -42.637 -55.058  16.475  1.00  0.00     0.034 C 
HETATM   19  H   UNL     1     -38.923 -52.703  14.298  1.00  0.00     0.170 HD
ENDBRANCH   4   8
BRANCH   1  20
HETATM   20  O   UNL     1     -41.341 -48.554  10.638  1.00  0.00    -0.334 OA
BRANCH  20  21
HETATM   21  C   UNL     1     -40.829 -47.277  11.014  1.00  0.00     0.203 C 
BRANCH  21  22
HETATM   22  C   UNL     1     -41.824 -46.223  10.532  1.00  0.00     0.193 C 
BRANCH  22  23
HETATM   23  O   UNL     1     -41.128 -45.133   9.930  1.00  0.00    -0.394 OA
HETATM   24  C   UNL     1     -39.749 -45.139  10.280  1.00  0.00     0.201 C 
ENDBRANCH  22  23
ENDBRANCH  21  22
ENDBRANCH  20  21
ENDBRANCH   1  20
TORSDOF 5
ENDMDL
