MODEL 1
REMARK VINA RESULT:      -4.6      0.000      0.000
REMARK  3 active torsions:
REMARK  status: ('A' for Active; 'I' for Inactive)
REMARK    1  A    between atoms: N_1  and  C_2 
REMARK    2  A    between atoms: C_2  and  C_3 
REMARK    3  A    between atoms: C_9  and  N_10 
ROOT
HETATM    1  C   UNL     1     -45.517 -52.172  13.663  1.00  0.00     0.013 A 
HETATM    2  C   UNL     1     -46.627 -51.666  14.363  1.00  0.00     0.014 A 
HETATM    3  C   UNL     1     -46.469 -51.146  15.640  1.00  0.00     0.018 A 
HETATM    4  C   UNL     1     -45.210 -51.181  16.193  1.00  0.00     0.089 A 
HETATM    5  N   UNL     1     -44.122 -51.677  15.563  1.00  0.00    -0.352 N 
ATOM      6  HN  UNL     1     -43.210 -51.678  16.021  1.00  0.00     0.166 HD
HETATM    7  C   UNL     1     -44.265 -52.173  14.310  1.00  0.00     0.111 A 
ENDROOT
BRANCH   7   8
HETATM    8  N   UNL     1     -43.115 -52.552  13.624  1.00  0.00    -0.363 N 
HETATM    9  C   UNL     1     -42.306 -51.451  13.071  1.00  0.00     0.150 C 
HETATM   10  C   UNL     1     -41.414 -52.054  11.971  1.00  0.00     0.187 C 
HETATM   11  O   UNL     1     -40.582 -53.117  12.475  1.00  0.00    -0.388 OA
HETATM   12  C   UNL     1     -41.377 -54.146  13.098  1.00  0.00     0.187 C 
HETATM   13  C   UNL     1     -42.248 -53.573  14.234  1.00  0.00     0.150 C 
ENDBRANCH   7   8
BRANCH   1  14
HETATM   14  C   UNL     1     -45.693 -52.703  12.259  1.00  0.00     0.309 C 
BRANCH  14  15
HETATM   15  N   UNL     1     -46.846 -52.141  11.547  1.00  0.00     0.082 N 
HETATM   16  H   UNL     1     -47.675 -52.264  12.125  1.00  0.00     0.313 HD
HETATM   17  H   UNL     1     -47.002 -52.707  10.712  1.00  0.00     0.313 HD
ENDBRANCH  14  15
ENDBRANCH   1  14
TORSDOF 3
ENDMDL
MODEL 2
REMARK VINA RESULT:      -4.5      1.127      2.922
REMARK  3 active torsions:
REMARK  status: ('A' for Active; 'I' for Inactive)
REMARK    1  A    between atoms: N_1  and  C_2 
REMARK    2  A    between atoms: C_2  and  C_3 
REMARK    3  A    between atoms: C_9  and  N_10 
ROOT
HETATM    1  C   UNL     1     -44.563 -51.510  14.435  1.00  0.00     0.013 A 
HETATM    2  C   UNL     1     -45.948 -51.277  14.503  1.00  0.00     0.014 A 
HETATM    3  C   UNL     1     -46.780 -51.702  13.477  1.00  0.00     0.018 A 
HETATM    4  C   UNL     1     -46.195 -52.316  12.393  1.00  0.00     0.089 A 
HETATM    5  N   UNL     1     -44.867 -52.541  12.279  1.00  0.00    -0.352 N 
ATOM      6  HN  UNL     1     -44.487 -53.002  11.452  1.00  0.00     0.166 HD
HETATM    7  C   UNL     1     -44.050 -52.143  13.284  1.00  0.00     0.111 A 
ENDROOT
BRANCH   7   8
HETATM    8  N   UNL     1     -42.708 -52.503  13.214  1.00  0.00    -0.363 N 
HETATM    9  C   UNL     1     -42.426 -53.947  13.316  1.00  0.00     0.150 C 
HETATM   10  C   UNL     1     -40.947 -54.089  13.718  1.00  0.00     0.187 C 
HETATM   11  O   UNL     1     -40.067 -53.446  12.774  1.00  0.00    -0.388 OA
HETATM   12  C   UNL     1     -40.411 -52.056  12.612  1.00  0.00     0.187 C 
HETATM   13  C   UNL     1     -41.878 -51.888  12.167  1.00  0.00     0.150 C 
ENDBRANCH   7   8
BRANCH   1  14
HETATM   14  C   UNL     1     -43.671 -51.076  15.574  1.00  0.00     0.309 C 
BRANCH  14  15
HETATM   15  N   UNL     1     -43.524 -52.078  16.635  1.00  0.00     0.082 N 
HETATM   16  H   UNL     1     -43.856 -51.675  17.510  1.00  0.00     0.313 HD
HETATM   17  H   UNL     1     -42.527 -52.249  16.768  1.00  0.00     0.313 HD
ENDBRANCH  14  15
ENDBRANCH   1  14
TORSDOF 3
ENDMDL
MODEL 3
REMARK VINA RESULT:      -4.5      6.893      8.161
REMARK  3 active torsions:
REMARK  status: ('A' for Active; 'I' for Inactive)
REMARK    1  A    between atoms: N_1  and  C_2 
REMARK    2  A    between atoms: C_2  and  C_3 
REMARK    3  A    between atoms: C_9  and  N_10 
ROOT
HETATM    1  C   UNL     1     -42.255 -47.162  10.290  1.00  0.00     0.013 A 
HETATM    2  C   UNL     1     -42.996 -47.711   9.228  1.00  0.00     0.014 A 
HETATM    3  C   UNL     1     -43.931 -46.938   8.555  1.00  0.00     0.018 A 
HETATM    4  C   UNL     1     -44.121 -45.645   8.988  1.00  0.00     0.089 A 
HETATM    5  N   UNL     1     -43.445 -45.086  10.016  1.00  0.00    -0.352 N 
ATOM      6  HN  UNL     1     -43.627 -44.122  10.295  1.00  0.00     0.166 HD
HETATM    7  C   UNL     1     -42.520 -45.831  10.668  1.00  0.00     0.111 A 
ENDROOT
BRANCH   7   8
HETATM    8  N   UNL     1     -41.738 -45.200  11.631  1.00  0.00    -0.363 N 
HETATM    9  C   UNL     1     -40.699 -44.289  11.117  1.00  0.00     0.150 C 
HETATM   10  C   UNL     1     -39.664 -44.104  12.241  1.00  0.00     0.187 C 
HETATM   11  O   UNL     1     -40.264 -43.592  13.447  1.00  0.00    -0.388 OA
HETATM   12  C   UNL     1     -41.341 -44.442  13.891  1.00  0.00     0.187 C 
HETATM   13  C   UNL     1     -42.414 -44.607  12.796  1.00  0.00     0.150 C 
ENDBRANCH   7   8
BRANCH   1  14
HETATM   14  C   UNL     1     -41.214 -48.002  10.993  1.00  0.00     0.309 C 
BRANCH  14  15
HETATM   15  N   UNL     1     -40.959 -49.298  10.354  1.00  0.00     0.082 N 
HETATM   16  H   UNL     1     -41.834 -49.816  10.312  1.00  0.00     0.313 HD
HETATM   17  H   UNL     1     -40.347 -49.834  10.970  1.00  0.00     0.313 HD
ENDBRANCH  14  15
ENDBRANCH   1  14
TORSDOF 3
ENDMDL
MODEL 4
REMARK VINA RESULT:      -4.4      2.972      3.657
REMARK  3 active torsions:
REMARK  status: ('A' for Active; 'I' for Inactive)
REMARK    1  A    between atoms: N_1  and  C_2 
REMARK    2  A    between atoms: C_2  and  C_3 
REMARK    3  A    between atoms: C_9  and  N_10 
ROOT
HETATM    1  C   UNL     1     -43.002 -53.129  12.935  1.00  0.00     0.013 A 
HETATM    2  C   UNL     1     -44.308 -53.389  12.486  1.00  0.00     0.014 A 
HETATM    3  C   UNL     1     -45.107 -54.307  13.151  1.00  0.00     0.018 A 
HETATM    4  C   UNL     1     -44.561 -54.966  14.229  1.00  0.00     0.089 A 
HETATM    5  N   UNL     1     -43.303 -54.761  14.681  1.00  0.00    -0.352 N 
ATOM      6  HN  UNL     1     -42.949 -55.279  15.485  1.00  0.00     0.166 HD
HETATM    7  C   UNL     1     -42.523 -53.855  14.044  1.00  0.00     0.111 A 
ENDROOT
BRANCH   7   8
HETATM    8  N   UNL     1     -41.284 -53.556  14.604  1.00  0.00    -0.363 N 
HETATM    9  C   UNL     1     -41.274 -53.339  16.062  1.00  0.00     0.150 C 
HETATM   10  C   UNL     1     -39.991 -52.556  16.392  1.00  0.00     0.187 C 
HETATM   11  O   UNL     1     -38.807 -53.253  15.956  1.00  0.00    -0.388 OA
HETATM   12  C   UNL     1     -38.868 -53.544  14.545  1.00  0.00     0.187 C 
HETATM   13  C   UNL     1     -40.125 -54.366  14.195  1.00  0.00     0.150 C 
ENDBRANCH   7   8
BRANCH   1  14
HETATM   14  C   UNL     1     -42.153 -52.101  12.225  1.00  0.00     0.309 C 
BRANCH  14  15
HETATM   15  N   UNL     1     -41.293 -52.656  11.174  1.00  0.00     0.082 N 
HETATM   16  H   UNL     1     -40.509 -53.132  11.615  1.00  0.00     0.313 HD
HETATM   17  H   UNL     1     -40.890 -51.875  10.656  1.00  0.00     0.313 HD
ENDBRANCH  14  15
ENDBRANCH   1  14
TORSDOF 3
ENDMDL
MODEL 5
REMARK VINA RESULT:      -4.3      2.420      4.500
REMARK  3 active torsions:
REMARK  status: ('A' for Active; 'I' for Inactive)
REMARK    1  A    between atoms: N_1  and  C_2 
REMARK    2  A    between atoms: C_2  and  C_3 
REMARK    3  A    between atoms: C_9  and  N_10 
ROOT
HETATM    1  C   UNL     1     -41.918 -52.283  13.100  1.00  0.00     0.013 A 
HETATM    2  C   UNL     1     -41.132 -51.226  12.609  1.00  0.00     0.014 A 
HETATM    3  C   UNL     1     -41.703 -49.984  12.369  1.00  0.00     0.018 A 
HETATM    4  C   UNL     1     -43.053 -49.848  12.594  1.00  0.00     0.089 A 
HETATM    5  N   UNL     1     -43.848 -50.844  13.046  1.00  0.00    -0.352 N 
ATOM      6  HN  UNL     1     -44.845 -50.687  13.195  1.00  0.00     0.166 HD
HETATM    7  C   UNL     1     -43.294 -52.055  13.297  1.00  0.00     0.111 A 
ENDROOT
BRANCH   7   8
HETATM    8  N   UNL     1     -44.095 -53.027  13.890  1.00  0.00    -0.363 N 
HETATM    9  C   UNL     1     -44.754 -52.633  15.148  1.00  0.00     0.150 C 
HETATM   10  C   UNL     1     -45.150 -53.931  15.875  1.00  0.00     0.187 C 
HETATM   11  O   UNL     1     -46.008 -54.760  15.068  1.00  0.00    -0.388 OA
HETATM   12  C   UNL     1     -45.392 -55.063  13.800  1.00  0.00     0.187 C 
HETATM   13  C   UNL     1     -45.026 -53.777  13.032  1.00  0.00     0.150 C 
ENDBRANCH   7   8
BRANCH   1  14
HETATM   14  C   UNL     1     -41.279 -53.621  13.393  1.00  0.00     0.309 C 
BRANCH  14  15
HETATM   15  N   UNL     1     -40.911 -54.384  12.195  1.00  0.00     0.082 N 
HETATM   16  H   UNL     1     -41.749 -54.828  11.825  1.00  0.00     0.313 HD
HETATM   17  H   UNL     1     -40.297 -55.145  12.487  1.00  0.00     0.313 HD
ENDBRANCH  14  15
ENDBRANCH   1  14
TORSDOF 3
ENDMDL
MODEL 6
REMARK VINA RESULT:      -4.2      6.655      7.994
REMARK  3 active torsions:
REMARK  status: ('A' for Active; 'I' for Inactive)
REMARK    1  A    between atoms: N_1  and  C_2 
REMARK    2  A    between atoms: C_2  and  C_3 
REMARK    3  A    between atoms: C_9  and  N_10 
ROOT
HETATM    1  C   UNL     1     -39.151 -47.995  13.244  1.00  0.00     0.013 A 
HETATM    2  C   UNL     1     -38.159 -48.881  13.701  1.00  0.00     0.014 A 
HETATM    3  C   UNL     1     -37.628 -49.836  12.847  1.00  0.00     0.018 A 
HETATM    4  C   UNL     1     -38.131 -49.900  11.568  1.00  0.00     0.089 A 
HETATM    5  N   UNL     1     -39.098 -49.081  11.095  1.00  0.00    -0.352 N 
ATOM      6  HN  UNL     1     -39.434 -49.173  10.137  1.00  0.00     0.166 HD
HETATM    7  C   UNL     1     -39.610 -48.136  11.920  1.00  0.00     0.111 A 
ENDROOT
BRANCH   7   8
HETATM    8  N   UNL     1     -40.503 -47.215  11.379  1.00  0.00    -0.363 N 
HETATM    9  C   UNL     1     -39.896 -46.028  10.749  1.00  0.00     0.150 C 
HETATM   10  C   UNL     1     -40.988 -44.946  10.680  1.00  0.00     0.187 C 
HETATM   11  O   UNL     1     -42.146 -45.396   9.949  1.00  0.00    -0.388 OA
HETATM   12  C   UNL     1     -42.678 -46.610  10.517  1.00  0.00     0.187 C 
HETATM   13  C   UNL     1     -41.613 -47.724  10.557  1.00  0.00     0.150 C 
ENDBRANCH   7   8
BRANCH   1  14
HETATM   14  C   UNL     1     -39.697 -46.935  14.172  1.00  0.00     0.309 C 
BRANCH  14  15
HETATM   15  N   UNL     1     -38.859 -45.735  14.270  1.00  0.00     0.082 N 
HETATM   16  H   UNL     1     -38.045 -45.953  14.841  1.00  0.00     0.313 HD
HETATM   17  H   UNL     1     -39.384 -45.030  14.788  1.00  0.00     0.313 HD
ENDBRANCH  14  15
ENDBRANCH   1  14
TORSDOF 3
ENDMDL
MODEL 7
REMARK VINA RESULT:      -4.1      3.017      4.825
REMARK  3 active torsions:
REMARK  status: ('A' for Active; 'I' for Inactive)
REMARK    1  A    between atoms: N_1  and  C_2 
REMARK    2  A    between atoms: C_2  and  C_3 
REMARK    3  A    between atoms: C_9  and  N_10 
ROOT
HETATM    1  C   UNL     1     -41.051 -53.229  13.565  1.00  0.00     0.013 A 
HETATM    2  C   UNL     1     -42.030 -54.239  13.559  1.00  0.00     0.014 A 
HETATM    3  C   UNL     1     -43.281 -53.996  13.011  1.00  0.00     0.018 A 
HETATM    4  C   UNL     1     -43.528 -52.735  12.517  1.00  0.00     0.089 A 
HETATM    5  N   UNL     1     -42.622 -51.731  12.522  1.00  0.00    -0.352 N 
ATOM      6  HN  UNL     1     -42.860 -50.815  12.142  1.00  0.00     0.166 HD
HETATM    7  C   UNL     1     -41.394 -51.967  13.042  1.00  0.00     0.111 A 
ENDROOT
BRANCH   7   8
HETATM    8  N   UNL     1     -40.431 -50.969  12.916  1.00  0.00    -0.363 N 
HETATM    9  C   UNL     1     -40.310 -50.361  11.578  1.00  0.00     0.150 C 
HETATM   10  C   UNL     1     -38.927 -49.690  11.511  1.00  0.00     0.187 C 
HETATM   11  O   UNL     1     -38.752 -48.710  12.553  1.00  0.00    -0.388 OA
HETATM   12  C   UNL     1     -38.964 -49.294  13.854  1.00  0.00     0.187 C 
HETATM   13  C   UNL     1     -40.362 -49.935  13.960  1.00  0.00     0.150 C 
ENDBRANCH   7   8
BRANCH   1  14
HETATM   14  C   UNL     1     -39.680 -53.516  14.131  1.00  0.00     0.309 C 
BRANCH  14  15
HETATM   15  N   UNL     1     -39.067 -54.748  13.622  1.00  0.00     0.082 N 
HETATM   16  H   UNL     1     -38.631 -55.239  14.401  1.00  0.00     0.313 HD
HETATM   17  H   UNL     1     -38.304 -54.481  12.999  1.00  0.00     0.313 HD
ENDBRANCH  14  15
ENDBRANCH   1  14
TORSDOF 3
ENDMDL
MODEL 8
REMARK VINA RESULT:      -4.1      2.162      2.467
REMARK  3 active torsions:
REMARK  status: ('A' for Active; 'I' for Inactive)
REMARK    1  A    between atoms: N_1  and  C_2 
REMARK    2  A    between atoms: C_2  and  C_3 
REMARK    3  A    between atoms: C_9  and  N_10 
ROOT
HETATM    1  C   UNL     1     -44.880 -52.804  13.490  1.00  0.00     0.013 A 
HETATM    2  C   UNL     1     -46.018 -52.044  13.164  1.00  0.00     0.014 A 
HETATM    3  C   UNL     1     -46.706 -51.358  14.154  1.00  0.00     0.018 A 
HETATM    4  C   UNL     1     -46.255 -51.481  15.448  1.00  0.00     0.089 A 
HETATM    5  N   UNL     1     -45.179 -52.217  15.806  1.00  0.00    -0.352 N 
ATOM      6  HN  UNL     1     -44.889 -52.274  16.783  1.00  0.00     0.166 HD
HETATM    7  C   UNL     1     -44.494 -52.878  14.843  1.00  0.00     0.111 A 
ENDROOT
BRANCH   7   8
HETATM    8  N   UNL     1     -43.312 -53.518  15.207  1.00  0.00    -0.363 N 
HETATM    9  C   UNL     1     -42.147 -52.640  15.416  1.00  0.00     0.150 C 
HETATM   10  C   UNL     1     -40.891 -53.523  15.307  1.00  0.00     0.187 C 
HETATM   11  O   UNL     1     -40.911 -54.607  16.257  1.00  0.00    -0.388 OA
HETATM   12  C   UNL     1     -42.101 -55.406  16.106  1.00  0.00     0.187 C 
HETATM   13  C   UNL     1     -43.375 -54.550  16.254  1.00  0.00     0.150 C 
ENDBRANCH   7   8
BRANCH   1  14
HETATM   14  C   UNL     1     -44.117 -53.519  12.399  1.00  0.00     0.309 C 
BRANCH  14  15
HETATM   15  N   UNL     1     -43.045 -52.720  11.795  1.00  0.00     0.082 N 
HETATM   16  H   UNL     1     -42.280 -53.343  11.543  1.00  0.00     0.313 HD
HETATM   17  H   UNL     1     -42.675 -52.100  12.516  1.00  0.00     0.313 HD
ENDBRANCH  14  15
ENDBRANCH   1  14
TORSDOF 3
ENDMDL
MODEL 9
REMARK VINA RESULT:      -4.1      5.011      6.284
REMARK  3 active torsions:
REMARK  status: ('A' for Active; 'I' for Inactive)
REMARK    1  A    between atoms: N_1  and  C_2 
REMARK    2  A    between atoms: C_2  and  C_3 
REMARK    3  A    between atoms: C_9  and  N_10 
ROOT
HETATM    1  C   UNL     1     -40.798 -47.619  12.495  1.00  0.00     0.013 A 
HETATM    2  C   UNL     1     -41.743 -46.708  11.991  1.00  0.00     0.014 A 
HETATM    3  C   UNL     1     -42.372 -46.952  10.778  1.00  0.00     0.018 A 
HETATM    4  C   UNL     1     -42.009 -48.085  10.087  1.00  0.00     0.089 A 
HETATM    5  N   UNL     1     -41.091 -48.976  10.526  1.00  0.00    -0.352 N 
ATOM      6  HN  UNL     1     -40.861 -49.800   9.971  1.00  0.00     0.166 HD
HETATM    7  C   UNL     1     -40.485 -48.751  11.716  1.00  0.00     0.111 A 
ENDROOT
BRANCH   7   8
HETATM    8  N   UNL     1     -39.647 -49.744  12.217  1.00  0.00    -0.363 N 
HETATM    9  C   UNL     1     -40.279 -51.053  12.461  1.00  0.00     0.150 C 
HETATM   10  C   UNL     1     -39.371 -51.816  13.442  1.00  0.00     0.187 C 
HETATM   11  O   UNL     1     -38.032 -51.965  12.932  1.00  0.00    -0.388 OA
HETATM   12  C   UNL     1     -37.455 -50.684  12.608  1.00  0.00     0.187 C 
HETATM   13  C   UNL     1     -38.326 -49.917  11.592  1.00  0.00     0.150 C 
ENDBRANCH   7   8
BRANCH   1  14
HETATM   14  C   UNL     1     -40.146 -47.363  13.833  1.00  0.00     0.309 C 
BRANCH  14  15
HETATM   15  N   UNL     1     -38.877 -46.632  13.751  1.00  0.00     0.082 N 
HETATM   16  H   UNL     1     -38.394 -46.721  14.643  1.00  0.00     0.313 HD
HETATM   17  H   UNL     1     -39.094 -45.640  13.650  1.00  0.00     0.313 HD
ENDBRANCH  14  15
ENDBRANCH   1  14
TORSDOF 3
ENDMDL
