MODEL 1
REMARK VINA RESULT:      -7.1      0.000      0.000
REMARK  4 active torsions:
REMARK  status: ('A' for Active; 'I' for Inactive)
REMARK    1  A    between atoms: N_2  and  C_10 
REMARK    2  A    between atoms: C_6  and  N_7 
REMARK    3  A    between atoms: C_9  and  C_10 
REMARK    4  A    between atoms: C_9  and  O_23 
ROOT
HETATM    1  C   UNL     1     -41.575 -49.488  11.725  1.00  0.00     0.117 A 
HETATM    2  N   UNL     1     -41.674 -47.386  11.115  1.00  0.00    -0.324 N 
HETATM    3  C   UNL     1     -40.792 -48.395  11.384  1.00  0.00     0.140 A 
HETATM    4  N   UNL     1     -42.912 -49.131  11.715  1.00  0.00    -0.346 N 
ATOM      5  HN  UNL     1     -43.712 -49.721  11.945  1.00  0.00     0.167 HD
HETATM    6  C   UNL     1     -40.898 -50.706  11.992  1.00  0.00     0.114 A 
HETATM    7  C   UNL     1     -42.932 -47.868  11.346  1.00  0.00     0.185 A 
HETATM    8  N   UNL     1     -39.455 -48.334  11.301  1.00  0.00    -0.336 N 
ATOM      9  HN  UNL     1     -38.928 -47.497  11.052  1.00  0.00     0.168 HD
HETATM   10  N   UNL     1     -39.535 -50.668  11.926  1.00  0.00    -0.341 N 
ATOM     11  HN  UNL     1     -38.993 -51.507  12.133  1.00  0.00     0.167 HD
HETATM   12  C   UNL     1     -38.904 -49.525  11.588  1.00  0.00     0.183 A 
ENDROOT
BRANCH   6  13
HETATM   13  N   UNL     1     -41.545 -51.926  12.308  1.00  0.00    -0.262 NA
HETATM   14  C   UNL     1     -42.526 -51.773  13.400  1.00  0.00     0.137 C 
HETATM   15  C   UNL     1     -43.242 -53.106  13.697  1.00  0.00     0.096 C 
HETATM   16  O   UNL     1     -42.281 -54.152  13.974  1.00  0.00    -0.376 OA
HETATM   17  C   UNL     1     -44.233 -53.530  12.618  1.00  0.00     0.067 C 
HETATM   18  C   UNL     1     -44.141 -52.941  14.938  1.00  0.00     0.207 C 
HETATM   19  C   UNL     1     -41.303 -54.308  12.933  1.00  0.00     0.183 C 
HETATM   20  C   UNL     1     -40.573 -53.003  12.584  1.00  0.00     0.123 C 
HETATM   21  C   UNL     1     -45.336 -54.188  13.413  1.00  0.00     0.170 C 
HETATM   22  O   UNL     1     -45.455 -53.425  14.612  1.00  0.00    -0.388 OA
ENDBRANCH   6  13
BRANCH   2  23
HETATM   23  C   UNL     1     -41.341 -46.104  10.532  1.00  0.00     0.172 C 
BRANCH  23  24
HETATM   24  C   UNL     1     -40.988 -44.990  11.530  1.00  0.00     0.102 C 
HETATM   25  C   UNL     1     -42.190 -44.232  12.131  1.00  0.00     0.153 C 
HETATM   26  O   UNL     1     -41.781 -42.855  12.309  1.00  0.00    -0.383 OA
HETATM   27  C   UNL     1     -42.694 -44.735  13.473  1.00  0.00     0.042 C 
HETATM   28  C   UNL     1     -40.453 -42.710  11.788  1.00  0.00     0.171 C 
HETATM   29  C   UNL     1     -40.272 -43.851  10.814  1.00  0.00     0.068 C 
BRANCH  24  30
HETATM   30  O   UNL     1     -40.076 -45.459  12.532  1.00  0.00    -0.385 OA
HETATM   31  H   UNL     1     -39.735 -44.703  13.047  1.00  0.00     0.210 HD
ENDBRANCH  24  30
ENDBRANCH  23  24
ENDBRANCH   2  23
TORSDOF 4
ENDMDL
MODEL 2
REMARK VINA RESULT:      -6.9      2.757      7.584
REMARK  4 active torsions:
REMARK  status: ('A' for Active; 'I' for Inactive)
REMARK    1  A    between atoms: N_2  and  C_10 
REMARK    2  A    between atoms: C_6  and  N_7 
REMARK    3  A    between atoms: C_9  and  C_10 
REMARK    4  A    between atoms: C_9  and  O_23 
ROOT
HETATM    1  C   UNL     1     -40.797 -49.497  12.920  1.00  0.00     0.117 A 
HETATM    2  N   UNL     1     -40.259 -50.963  14.458  1.00  0.00    -0.324 N 
HETATM    3  C   UNL     1     -39.747 -50.268  13.398  1.00  0.00     0.140 A 
HETATM    4  N   UNL     1     -41.945 -49.763  13.648  1.00  0.00    -0.346 N 
ATOM      5  HN  UNL     1     -42.872 -49.362  13.508  1.00  0.00     0.167 HD
HETATM    6  C   UNL     1     -40.512 -48.619  11.844  1.00  0.00     0.114 A 
HETATM    7  C   UNL     1     -41.584 -50.643  14.557  1.00  0.00     0.185 A 
HETATM    8  N   UNL     1     -38.485 -50.309  12.947  1.00  0.00    -0.336 N 
ATOM      9  HN  UNL     1     -37.751 -50.903  13.333  1.00  0.00     0.168 HD
HETATM   10  N   UNL     1     -39.237 -48.650  11.357  1.00  0.00    -0.341 N 
ATOM     11  HN  UNL     1     -38.980 -48.059  10.568  1.00  0.00     0.167 HD
HETATM   12  C   UNL     1     -38.317 -49.461  11.919  1.00  0.00     0.183 A 
ENDROOT
BRANCH   6  13
HETATM   13  N   UNL     1     -41.454 -47.731  11.267  1.00  0.00    -0.262 NA
HETATM   14  C   UNL     1     -42.009 -48.249  10.001  1.00  0.00     0.137 C 
HETATM   15  C   UNL     1     -43.058 -47.283   9.416  1.00  0.00     0.096 C 
HETATM   16  O   UNL     1     -42.502 -45.956   9.261  1.00  0.00    -0.376 OA
HETATM   17  C   UNL     1     -44.371 -47.250  10.193  1.00  0.00     0.067 C 
HETATM   18  C   UNL     1     -43.498 -47.782   8.027  1.00  0.00     0.207 C 
HETATM   19  C   UNL     1     -41.938 -45.437  10.477  1.00  0.00     0.183 C 
HETATM   20  C   UNL     1     -40.899 -46.372  11.113  1.00  0.00     0.123 C 
HETATM   21  C   UNL     1     -45.402 -47.058   9.105  1.00  0.00     0.170 C 
HETATM   22  O   UNL     1     -44.935 -47.821   7.994  1.00  0.00    -0.388 OA
ENDBRANCH   6  13
BRANCH   2  23
HETATM   23  C   UNL     1     -39.496 -51.755  15.398  1.00  0.00     0.172 C 
BRANCH  23  24
HETATM   24  C   UNL     1     -39.405 -53.257  15.085  1.00  0.00     0.102 C 
HETATM   25  C   UNL     1     -40.735 -54.034  15.170  1.00  0.00     0.153 C 
HETATM   26  O   UNL     1     -40.426 -55.356  15.672  1.00  0.00    -0.383 OA
HETATM   27  C   UNL     1     -41.495 -54.207  13.866  1.00  0.00     0.042 C 
HETATM   28  C   UNL     1     -39.024 -55.407  15.968  1.00  0.00     0.171 C 
HETATM   29  C   UNL     1     -38.597 -53.970  16.161  1.00  0.00     0.068 C 
BRANCH  24  30
HETATM   30  O   UNL     1     -38.711 -53.491  13.852  1.00  0.00    -0.385 OA
HETATM   31  H   UNL     1     -39.013 -52.854  13.177  1.00  0.00     0.210 HD
ENDBRANCH  24  30
ENDBRANCH  23  24
ENDBRANCH   2  23
TORSDOF 4
ENDMDL
MODEL 3
REMARK VINA RESULT:      -6.8      1.876      8.285
REMARK  4 active torsions:
REMARK  status: ('A' for Active; 'I' for Inactive)
REMARK    1  A    between atoms: N_2  and  C_10 
REMARK    2  A    between atoms: C_6  and  N_7 
REMARK    3  A    between atoms: C_9  and  C_10 
REMARK    4  A    between atoms: C_9  and  O_23 
ROOT
HETATM    1  C   UNL     1     -42.414 -49.896  12.712  1.00  0.00     0.117 A 
HETATM    2  N   UNL     1     -42.724 -51.934  13.457  1.00  0.00    -0.324 N 
HETATM    3  C   UNL     1     -42.832 -50.620  13.820  1.00  0.00     0.140 A 
HETATM    4  N   UNL     1     -42.006 -50.761  11.711  1.00  0.00    -0.346 N 
ATOM      5  HN  UNL     1     -41.631 -50.514  10.795  1.00  0.00     0.167 HD
HETATM    6  C   UNL     1     -42.491 -48.483  12.802  1.00  0.00     0.114 A 
HETATM    7  C   UNL     1     -42.205 -51.970  12.192  1.00  0.00     0.185 A 
HETATM    8  N   UNL     1     -43.280 -50.147  14.991  1.00  0.00    -0.336 N 
ATOM      9  HN  UNL     1     -43.568 -50.728  15.779  1.00  0.00     0.168 HD
HETATM   10  N   UNL     1     -42.932 -47.974  13.989  1.00  0.00    -0.341 N 
ATOM     11  HN  UNL     1     -42.985 -46.965  14.122  1.00  0.00     0.167 HD
HETATM   12  C   UNL     1     -43.299 -48.804  14.988  1.00  0.00     0.183 A 
ENDROOT
BRANCH   6  13
HETATM   13  N   UNL     1     -42.149 -47.596  11.751  1.00  0.00    -0.262 NA
HETATM   14  C   UNL     1     -41.882 -46.228  12.238  1.00  0.00     0.137 C 
HETATM   15  C   UNL     1     -41.475 -45.295  11.080  1.00  0.00     0.096 C 
HETATM   16  O   UNL     1     -42.474 -45.313  10.033  1.00  0.00    -0.376 OA
HETATM   17  C   UNL     1     -40.081 -45.568  10.526  1.00  0.00     0.067 C 
HETATM   18  C   UNL     1     -41.356 -43.850  11.602  1.00  0.00     0.207 C 
HETATM   19  C   UNL     1     -42.765 -46.636   9.555  1.00  0.00     0.183 C 
HETATM   20  C   UNL     1     -43.158 -47.614  10.673  1.00  0.00     0.123 C 
HETATM   21  C   UNL     1     -39.583 -44.187  10.171  1.00  0.00     0.170 C 
HETATM   22  O   UNL     1     -40.085 -43.323  11.189  1.00  0.00    -0.388 OA
ENDBRANCH   6  13
BRANCH   2  23
HETATM   23  C   UNL     1     -43.224 -53.064  14.210  1.00  0.00     0.172 C 
BRANCH  23  24
HETATM   24  C   UNL     1     -44.643 -53.529  13.849  1.00  0.00     0.102 C 
HETATM   25  C   UNL     1     -45.789 -52.655  14.401  1.00  0.00     0.153 C 
HETATM   26  O   UNL     1     -46.887 -53.543  14.721  1.00  0.00    -0.383 OA
HETATM   27  C   UNL     1     -46.324 -51.585  13.464  1.00  0.00     0.042 C 
HETATM   28  C   UNL     1     -46.461 -54.889  14.478  1.00  0.00     0.171 C 
HETATM   29  C   UNL     1     -44.951 -54.855  14.535  1.00  0.00     0.068 C 
BRANCH  24  30
HETATM   30  O   UNL     1     -44.768 -53.776  12.442  1.00  0.00    -0.385 OA
HETATM   31  H   UNL     1     -44.477 -54.685  12.240  1.00  0.00     0.210 HD
ENDBRANCH  24  30
ENDBRANCH  23  24
ENDBRANCH   2  23
TORSDOF 4
ENDMDL
MODEL 4
REMARK VINA RESULT:      -6.7      3.909      6.818
REMARK  4 active torsions:
REMARK  status: ('A' for Active; 'I' for Inactive)
REMARK    1  A    between atoms: N_2  and  C_10 
REMARK    2  A    between atoms: C_6  and  N_7 
REMARK    3  A    between atoms: C_9  and  C_10 
REMARK    4  A    between atoms: C_9  and  O_23 
ROOT
HETATM    1  C   UNL     1     -40.179 -49.171  13.217  1.00  0.00     0.117 A 
HETATM    2  N   UNL     1     -39.271 -50.281  14.874  1.00  0.00    -0.324 N 
HETATM    3  C   UNL     1     -39.090 -49.960  13.558  1.00  0.00     0.140 A 
HETATM    4  N   UNL     1     -41.037 -49.061  14.298  1.00  0.00    -0.346 N 
ATOM      5  HN  UNL     1     -41.926 -48.562  14.335  1.00  0.00     0.167 HD
HETATM    6  C   UNL     1     -40.204 -48.642  11.902  1.00  0.00     0.114 A 
HETATM    7  C   UNL     1     -40.461 -49.737  15.270  1.00  0.00     0.185 A 
HETATM    8  N   UNL     1     -38.056 -50.314  12.781  1.00  0.00    -0.336 N 
ATOM      9  HN  UNL     1     -37.282 -50.906  13.082  1.00  0.00     0.168 HD
HETATM   10  N   UNL     1     -39.169 -48.997  11.086  1.00  0.00    -0.341 N 
ATOM     11  HN  UNL     1     -39.145 -48.668  10.121  1.00  0.00     0.167 HD
HETATM   12  C   UNL     1     -38.177 -49.783  11.554  1.00  0.00     0.183 A 
ENDROOT
BRANCH   6  13
HETATM   13  N   UNL     1     -41.216 -47.783  11.405  1.00  0.00    -0.262 NA
HETATM   14  C   UNL     1     -41.772 -48.257  10.122  1.00  0.00     0.137 C 
HETATM   15  C   UNL     1     -42.896 -47.326   9.625  1.00  0.00     0.096 C 
HETATM   16  O   UNL     1     -42.430 -45.959   9.542  1.00  0.00    -0.376 OA
HETATM   17  C   UNL     1     -44.186 -47.427  10.434  1.00  0.00     0.067 C 
HETATM   18  C   UNL     1     -43.342 -47.766   8.218  1.00  0.00     0.207 C 
HETATM   19  C   UNL     1     -41.866 -45.481  10.774  1.00  0.00     0.183 C 
HETATM   20  C   UNL     1     -40.752 -46.384  11.325  1.00  0.00     0.123 C 
HETATM   21  C   UNL     1     -45.257 -47.235   9.385  1.00  0.00     0.170 C 
HETATM   22  O   UNL     1     -44.774 -47.896   8.216  1.00  0.00    -0.388 OA
ENDBRANCH   6  13
BRANCH   2  23
HETATM   23  C   UNL     1     -38.300 -50.931  15.728  1.00  0.00     0.172 C 
BRANCH  23  24
HETATM   24  C   UNL     1     -37.375 -49.993  16.519  1.00  0.00     0.102 C 
HETATM   25  C   UNL     1     -36.336 -49.220  15.679  1.00  0.00     0.153 C 
HETATM   26  O   UNL     1     -35.139 -49.102  16.483  1.00  0.00    -0.383 OA
HETATM   27  C   UNL     1     -36.735 -47.821  15.243  1.00  0.00     0.042 C 
HETATM   28  C   UNL     1     -35.351 -49.810  17.711  1.00  0.00     0.171 C 
HETATM   29  C   UNL     1     -36.453 -50.803  17.422  1.00  0.00     0.068 C 
BRANCH  24  30
HETATM   30  O   UNL     1     -38.124 -49.135  17.390  1.00  0.00    -0.385 OA
HETATM   31  H   UNL     1     -37.833 -49.266  18.312  1.00  0.00     0.210 HD
ENDBRANCH  24  30
ENDBRANCH  23  24
ENDBRANCH   2  23
TORSDOF 4
ENDMDL
MODEL 5
REMARK VINA RESULT:      -6.6      1.769      8.174
REMARK  4 active torsions:
REMARK  status: ('A' for Active; 'I' for Inactive)
REMARK    1  A    between atoms: N_2  and  C_10 
REMARK    2  A    between atoms: C_6  and  N_7 
REMARK    3  A    between atoms: C_9  and  C_10 
REMARK    4  A    between atoms: C_9  and  O_23 
ROOT
HETATM    1  C   UNL     1     -40.914 -47.673  12.435  1.00  0.00     0.117 A 
HETATM    2  N   UNL     1     -40.404 -49.789  12.685  1.00  0.00    -0.324 N 
HETATM    3  C   UNL     1     -41.026 -48.919  11.835  1.00  0.00     0.140 A 
HETATM    4  N   UNL     1     -40.279 -47.796  13.659  1.00  0.00    -0.346 N 
ATOM      5  HN  UNL     1     -40.079 -47.053  14.329  1.00  0.00     0.167 HD
HETATM    6  C   UNL     1     -41.430 -46.565  11.716  1.00  0.00     0.114 A 
HETATM    7  C   UNL     1     -39.989 -49.074  13.774  1.00  0.00     0.185 A 
HETATM    8  N   UNL     1     -41.594 -49.217  10.657  1.00  0.00    -0.336 N 
ATOM      9  HN  UNL     1     -41.656 -50.157  10.266  1.00  0.00     0.168 HD
HETATM   10  N   UNL     1     -42.024 -46.842  10.519  1.00  0.00    -0.341 N 
ATOM     11  HN  UNL     1     -42.436 -46.089   9.969  1.00  0.00     0.167 HD
HETATM   12  C   UNL     1     -42.069 -48.110  10.062  1.00  0.00     0.183 A 
ENDROOT
BRANCH   6  13
HETATM   13  N   UNL     1     -41.357 -45.221  12.160  1.00  0.00    -0.262 NA
HETATM   14  C   UNL     1     -42.460 -44.396  11.629  1.00  0.00     0.137 C 
HETATM   15  C   UNL     1     -42.379 -42.950  12.159  1.00  0.00     0.096 C 
HETATM   16  O   UNL     1     -41.083 -42.372  11.874  1.00  0.00    -0.376 OA
HETATM   17  C   UNL     1     -42.739 -42.811  13.635  1.00  0.00     0.067 C 
HETATM   18  C   UNL     1     -43.450 -42.088  11.465  1.00  0.00     0.207 C 
HETATM   19  C   UNL     1     -39.992 -43.168  12.365  1.00  0.00     0.183 C 
HETATM   20  C   UNL     1     -40.035 -44.625  11.882  1.00  0.00     0.123 C 
HETATM   21  C   UNL     1     -43.440 -41.473  13.685  1.00  0.00     0.170 C 
HETATM   22  O   UNL     1     -44.193 -41.387  12.477  1.00  0.00    -0.388 OA
ENDBRANCH   6  13
BRANCH   2  23
HETATM   23  C   UNL     1     -40.095 -51.174  12.401  1.00  0.00     0.172 C 
BRANCH  23  24
HETATM   24  C   UNL     1     -41.261 -52.163  12.560  1.00  0.00     0.102 C 
HETATM   25  C   UNL     1     -42.199 -51.898  13.756  1.00  0.00     0.153 C 
HETATM   26  O   UNL     1     -42.630 -53.186  14.255  1.00  0.00    -0.383 OA
HETATM   27  C   UNL     1     -43.445 -51.081  13.460  1.00  0.00     0.042 C 
HETATM   28  C   UNL     1     -41.963 -54.206  13.500  1.00  0.00     0.171 C 
HETATM   29  C   UNL     1     -40.732 -53.545  12.923  1.00  0.00     0.068 C 
BRANCH  24  30
HETATM   30  O   UNL     1     -41.975 -52.328  11.327  1.00  0.00    -0.385 OA
HETATM   31  H   UNL     1     -42.933 -52.371  11.505  1.00  0.00     0.210 HD
ENDBRANCH  24  30
ENDBRANCH  23  24
ENDBRANCH   2  23
TORSDOF 4
ENDMDL
MODEL 6
REMARK VINA RESULT:      -6.4      3.308      7.672
REMARK  4 active torsions:
REMARK  status: ('A' for Active; 'I' for Inactive)
REMARK    1  A    between atoms: N_2  and  C_10 
REMARK    2  A    between atoms: C_6  and  N_7 
REMARK    3  A    between atoms: C_9  and  C_10 
REMARK    4  A    between atoms: C_9  and  O_23 
ROOT
HETATM    1  C   UNL     1     -41.349 -51.088  13.621  1.00  0.00     0.117 A 
HETATM    2  N   UNL     1     -42.890 -52.532  13.036  1.00  0.00    -0.324 N 
HETATM    3  C   UNL     1     -42.566 -51.206  12.966  1.00  0.00     0.140 A 
HETATM    4  N   UNL     1     -40.967 -52.318  14.129  1.00  0.00    -0.346 N 
ATOM      5  HN  UNL     1     -40.131 -52.530  14.674  1.00  0.00     0.167 HD
HETATM    6  C   UNL     1     -40.749 -49.803  13.637  1.00  0.00     0.114 A 
HETATM    7  C   UNL     1     -41.912 -53.156  13.760  1.00  0.00     0.185 A 
HETATM    8  N   UNL     1     -43.272 -50.240  12.360  1.00  0.00    -0.336 N 
ATOM      9  HN  UNL     1     -44.170 -50.381  11.898  1.00  0.00     0.168 HD
HETATM   10  N   UNL     1     -41.453 -48.799  13.038  1.00  0.00    -0.341 N 
ATOM     11  HN  UNL     1     -41.083 -47.848  13.039  1.00  0.00     0.167 HD
HETATM   12  C   UNL     1     -42.635 -49.060  12.444  1.00  0.00     0.183 A 
ENDROOT
BRANCH   6  13
HETATM   13  N   UNL     1     -39.490 -49.517  14.220  1.00  0.00    -0.262 NA
HETATM   14  C   UNL     1     -39.572 -49.374  15.687  1.00  0.00     0.137 C 
HETATM   15  C   UNL     1     -38.183 -49.102  16.299  1.00  0.00     0.096 C 
HETATM   16  O   UNL     1     -37.566 -47.951  15.676  1.00  0.00    -0.376 OA
HETATM   17  C   UNL     1     -37.253 -50.311  16.284  1.00  0.00     0.067 C 
HETATM   18  C   UNL     1     -38.333 -48.807  17.804  1.00  0.00     0.207 C 
HETATM   19  C   UNL     1     -37.491 -48.059  14.245  1.00  0.00     0.183 C 
HETATM   20  C   UNL     1     -38.847 -48.349  13.585  1.00  0.00     0.123 C 
HETATM   21  C   UNL     1     -36.480 -50.157  17.574  1.00  0.00     0.170 C 
HETATM   22  O   UNL     1     -37.414 -49.646  18.523  1.00  0.00    -0.388 OA
ENDBRANCH   6  13
BRANCH   2  23
HETATM   23  C   UNL     1     -43.977 -53.176  12.330  1.00  0.00     0.172 C 
BRANCH  23  24
HETATM   24  C   UNL     1     -45.267 -53.382  13.138  1.00  0.00     0.102 C 
HETATM   25  C   UNL     1     -45.353 -52.597  14.464  1.00  0.00     0.153 C 
HETATM   26  O   UNL     1     -46.067 -53.430  15.408  1.00  0.00    -0.383 OA
HETATM   27  C   UNL     1     -46.068 -51.258  14.404  1.00  0.00     0.042 C 
HETATM   28  C   UNL     1     -46.349 -54.685  14.776  1.00  0.00     0.171 C 
HETATM   29  C   UNL     1     -45.340 -54.812  13.657  1.00  0.00     0.068 C 
BRANCH  24  30
HETATM   30  O   UNL     1     -46.430 -53.202  12.317  1.00  0.00    -0.385 OA
HETATM   31  H   UNL     1     -47.082 -52.649  12.787  1.00  0.00     0.210 HD
ENDBRANCH  24  30
ENDBRANCH  23  24
ENDBRANCH   2  23
TORSDOF 4
ENDMDL
MODEL 7
REMARK VINA RESULT:      -6.4      2.003      3.108
REMARK  4 active torsions:
REMARK  status: ('A' for Active; 'I' for Inactive)
REMARK    1  A    between atoms: N_2  and  C_10 
REMARK    2  A    between atoms: C_6  and  N_7 
REMARK    3  A    between atoms: C_9  and  C_10 
REMARK    4  A    between atoms: C_9  and  O_23 
ROOT
HETATM    1  C   UNL     1     -42.500 -50.463  13.517  1.00  0.00     0.117 A 
HETATM    2  N   UNL     1     -41.612 -48.479  13.236  1.00  0.00    -0.324 N 
HETATM    3  C   UNL     1     -41.499 -49.782  12.839  1.00  0.00     0.140 A 
HETATM    4  N   UNL     1     -43.175 -49.593  14.356  1.00  0.00    -0.346 N 
ATOM      5  HN  UNL     1     -43.942 -49.816  14.991  1.00  0.00     0.167 HD
HETATM    6  C   UNL     1     -42.646 -51.844  13.231  1.00  0.00     0.114 A 
HETATM    7  C   UNL     1     -42.617 -48.417  14.162  1.00  0.00     0.185 A 
HETATM    8  N   UNL     1     -40.621 -50.277  11.954  1.00  0.00    -0.336 N 
ATOM      9  HN  UNL     1     -39.898 -49.729  11.489  1.00  0.00     0.168 HD
HETATM   10  N   UNL     1     -41.756 -52.376  12.342  1.00  0.00    -0.341 N 
ATOM     11  HN  UNL     1     -41.796 -53.369  12.115  1.00  0.00     0.167 HD
HETATM   12  C   UNL     1     -40.825 -51.590  11.763  1.00  0.00     0.183 A 
ENDROOT
BRANCH   6  13
HETATM   13  N   UNL     1     -43.643 -52.676  13.798  1.00  0.00    -0.262 NA
HETATM   14  C   UNL     1     -43.269 -53.161  15.141  1.00  0.00     0.137 C 
HETATM   15  C   UNL     1     -44.387 -54.031  15.750  1.00  0.00     0.096 C 
HETATM   16  O   UNL     1     -44.733 -55.117  14.858  1.00  0.00    -0.376 OA
HETATM   17  C   UNL     1     -45.622 -53.243  16.175  1.00  0.00     0.067 C 
HETATM   18  C   UNL     1     -43.898 -54.640  17.078  1.00  0.00     0.207 C 
HETATM   19  C   UNL     1     -45.083 -54.672  13.538  1.00  0.00     0.183 C 
HETATM   20  C   UNL     1     -44.010 -53.783  12.891  1.00  0.00     0.123 C 
HETATM   21  C   UNL     1     -46.079 -53.977  17.415  1.00  0.00     0.170 C 
HETATM   22  O   UNL     1     -44.886 -54.375  18.088  1.00  0.00    -0.388 OA
ENDBRANCH   6  13
BRANCH   2  23
HETATM   23  C   UNL     1     -40.910 -47.354  12.658  1.00  0.00     0.172 C 
BRANCH  23  24
HETATM   24  C   UNL     1     -41.340 -46.960  11.236  1.00  0.00     0.102 C 
HETATM   25  C   UNL     1     -41.084 -45.489  10.848  1.00  0.00     0.153 C 
HETATM   26  O   UNL     1     -42.171 -45.079   9.985  1.00  0.00    -0.383 OA
HETATM   27  C   UNL     1     -39.785 -45.208  10.111  1.00  0.00     0.042 C 
HETATM   28  C   UNL     1     -43.101 -46.165   9.888  1.00  0.00     0.171 C 
HETATM   29  C   UNL     1     -42.858 -47.020  11.110  1.00  0.00     0.068 C 
BRANCH  24  30
HETATM   30  O   UNL     1     -40.829 -47.882  10.263  1.00  0.00    -0.385 OA
HETATM   31  H   UNL     1     -39.898 -48.092  10.465  1.00  0.00     0.210 HD
ENDBRANCH  24  30
ENDBRANCH  23  24
ENDBRANCH   2  23
TORSDOF 4
ENDMDL
MODEL 8
REMARK VINA RESULT:      -6.4      3.100      8.781
REMARK  4 active torsions:
REMARK  status: ('A' for Active; 'I' for Inactive)
REMARK    1  A    between atoms: N_2  and  C_10 
REMARK    2  A    between atoms: C_6  and  N_7 
REMARK    3  A    between atoms: C_9  and  C_10 
REMARK    4  A    between atoms: C_9  and  O_23 
ROOT
HETATM    1  C   UNL     1     -42.039 -45.617  11.494  1.00  0.00     0.117 A 
HETATM    2  N   UNL     1     -41.691 -47.758  11.188  1.00  0.00    -0.324 N 
HETATM    3  C   UNL     1     -41.136 -46.529  10.968  1.00  0.00     0.140 A 
HETATM    4  N   UNL     1     -43.153 -46.283  11.977  1.00  0.00    -0.346 N 
ATOM      5  HN  UNL     1     -43.986 -45.870  12.398  1.00  0.00     0.167 HD
HETATM    6  C   UNL     1     -41.669 -44.249  11.453  1.00  0.00     0.114 A 
HETATM    7  C   UNL     1     -42.909 -47.560  11.777  1.00  0.00     0.185 A 
HETATM    8  N   UNL     1     -39.951 -46.276  10.393  1.00  0.00    -0.336 N 
ATOM      9  HN  UNL     1     -39.328 -46.989  10.014  1.00  0.00     0.168 HD
HETATM   10  N   UNL     1     -40.473 -43.962  10.861  1.00  0.00    -0.341 N 
ATOM     11  HN  UNL     1     -40.164 -42.994  10.780  1.00  0.00     0.167 HD
HETATM   12  C   UNL     1     -39.697 -44.957  10.384  1.00  0.00     0.183 A 
ENDROOT
BRANCH   6  13
HETATM   13  N   UNL     1     -42.451 -43.193  11.986  1.00  0.00    -0.262 NA
HETATM   14  C   UNL     1     -42.188 -41.907  11.310  1.00  0.00     0.137 C 
HETATM   15  C   UNL     1     -43.079 -40.786  11.882  1.00  0.00     0.096 C 
HETATM   16  O   UNL     1     -42.920 -40.687  13.317  1.00  0.00    -0.376 OA
HETATM   17  C   UNL     1     -44.549 -40.903  11.490  1.00  0.00     0.067 C 
HETATM   18  C   UNL     1     -42.669 -39.437  11.261  1.00  0.00     0.207 C 
HETATM   19  C   UNL     1     -43.152 -41.932  13.996  1.00  0.00     0.183 C 
HETATM   20  C   UNL     1     -42.302 -43.090  13.451  1.00  0.00     0.123 C 
HETATM   21  C   UNL     1     -44.971 -39.461  11.333  1.00  0.00     0.170 C 
HETATM   22  O   UNL     1     -43.851 -38.792  10.758  1.00  0.00    -0.388 OA
ENDBRANCH   6  13
BRANCH   2  23
HETATM   23  C   UNL     1     -41.034 -49.032  10.987  1.00  0.00     0.172 C 
BRANCH  23  24
HETATM   24  C   UNL     1     -40.111 -49.493  12.126  1.00  0.00     0.102 C 
HETATM   25  C   UNL     1     -38.953 -50.423  11.708  1.00  0.00     0.153 C 
HETATM   26  O   UNL     1     -38.747 -51.362  12.790  1.00  0.00    -0.383 OA
HETATM   27  C   UNL     1     -37.621 -49.748  11.428  1.00  0.00     0.042 C 
HETATM   28  C   UNL     1     -39.742 -51.117  13.792  1.00  0.00     0.171 C 
HETATM   29  C   UNL     1     -40.871 -50.407  13.080  1.00  0.00     0.068 C 
BRANCH  24  30
HETATM   30  O   UNL     1     -39.666 -48.382  12.917  1.00  0.00    -0.385 OA
HETATM   31  H   UNL     1     -39.200 -48.708  13.710  1.00  0.00     0.210 HD
ENDBRANCH  24  30
ENDBRANCH  23  24
ENDBRANCH   2  23
TORSDOF 4
ENDMDL
MODEL 9
REMARK VINA RESULT:      -6.3      4.228      5.853
REMARK  4 active torsions:
REMARK  status: ('A' for Active; 'I' for Inactive)
REMARK    1  A    between atoms: N_2  and  C_10 
REMARK    2  A    between atoms: C_6  and  N_7 
REMARK    3  A    between atoms: C_9  and  C_10 
REMARK    4  A    between atoms: C_9  and  O_23 
ROOT
HETATM    1  C   UNL     1     -39.397 -48.707  13.658  1.00  0.00     0.117 A 
HETATM    2  N   UNL     1     -41.333 -48.357  12.694  1.00  0.00    -0.324 N 
HETATM    3  C   UNL     1     -40.098 -48.902  12.478  1.00  0.00     0.140 A 
HETATM    4  N   UNL     1     -40.178 -48.004  14.559  1.00  0.00    -0.346 N 
ATOM      5  HN  UNL     1     -39.919 -47.699  15.498  1.00  0.00     0.167 HD
HETATM    6  C   UNL     1     -38.086 -49.244  13.724  1.00  0.00     0.114 A 
HETATM    7  C   UNL     1     -41.328 -47.813  13.948  1.00  0.00     0.185 A 
HETATM    8  N   UNL     1     -39.679 -49.520  11.364  1.00  0.00    -0.336 N 
ATOM      9  HN  UNL     1     -40.237 -49.629  10.517  1.00  0.00     0.168 HD
HETATM   10  N   UNL     1     -37.630 -49.868  12.599  1.00  0.00    -0.341 N 
ATOM     11  HN  UNL     1     -36.686 -50.253  12.578  1.00  0.00     0.167 HD
HETATM   12  C   UNL     1     -38.425 -49.977  11.515  1.00  0.00     0.183 A 
ENDROOT
BRANCH   6  13
HETATM   13  N   UNL     1     -37.251 -49.176  14.867  1.00  0.00    -0.262 NA
HETATM   14  C   UNL     1     -37.835 -49.875  16.029  1.00  0.00     0.137 C 
HETATM   15  C   UNL     1     -36.889 -49.819  17.245  1.00  0.00     0.096 C 
HETATM   16  O   UNL     1     -36.536 -48.450  17.556  1.00  0.00    -0.376 OA
HETATM   17  C   UNL     1     -35.650 -50.697  17.107  1.00  0.00     0.067 C 
HETATM   18  C   UNL     1     -37.597 -50.421  18.474  1.00  0.00     0.207 C 
HETATM   19  C   UNL     1     -35.983 -47.743  16.435  1.00  0.00     0.183 C 
HETATM   20  C   UNL     1     -36.878 -47.784  15.187  1.00  0.00     0.123 C 
HETATM   21  C   UNL     1     -35.424 -51.186  18.518  1.00  0.00     0.170 C 
HETATM   22  O   UNL     1     -36.724 -51.399  19.065  1.00  0.00    -0.388 OA
ENDBRANCH   6  13
BRANCH   2  23
HETATM   23  C   UNL     1     -42.479 -48.486  11.820  1.00  0.00     0.172 C 
BRANCH  23  24
HETATM   24  C   UNL     1     -42.442 -47.634  10.542  1.00  0.00     0.102 C 
HETATM   25  C   UNL     1     -41.985 -46.172  10.731  1.00  0.00     0.153 C 
HETATM   26  O   UNL     1     -42.739 -45.365   9.795  1.00  0.00    -0.383 OA
HETATM   27  C   UNL     1     -40.511 -45.895  10.490  1.00  0.00     0.042 C 
HETATM   28  C   UNL     1     -43.667 -46.218   9.113  1.00  0.00     0.171 C 
HETATM   29  C   UNL     1     -43.854 -47.417  10.013  1.00  0.00     0.068 C 
BRANCH  24  30
HETATM   30  O   UNL     1     -41.727 -48.301   9.492  1.00  0.00    -0.385 OA
HETATM   31  H   UNL     1     -41.880 -47.841   8.646  1.00  0.00     0.210 HD
ENDBRANCH  24  30
ENDBRANCH  23  24
ENDBRANCH   2  23
TORSDOF 4
ENDMDL
