MODEL 1
REMARK VINA RESULT:      -5.8      0.000      0.000
REMARK  7 active torsions:
REMARK  status: ('A' for Active; 'I' for Inactive)
REMARK    1  A    between atoms: O_1  and  C_2 
REMARK    2  A    between atoms: C_2  and  C_3 
REMARK    3  A    between atoms: C_3  and  C_4 
REMARK    4  A    between atoms: N_13  and  C_14 
REMARK    5  A    between atoms: C_14  and  C_15 
REMARK    6  A    between atoms: C_15  and  O_16 
REMARK    7  A    between atoms: O_16  and  C_17 
ROOT
HETATM    1  C   UNL     1     -42.394 -50.540  12.660  1.00  0.00     0.086 A 
HETATM    2  N   UNL     1     -43.633 -50.202  12.951  1.00  0.00    -0.344 N 
ATOM      3  HN  UNL     1     -44.005 -49.258  13.050  1.00  0.00     0.167 HD
HETATM    4  C   UNL     1     -44.322 -51.377  13.092  1.00  0.00     0.060 A 
HETATM    5  C   UNL     1     -45.676 -51.576  13.398  1.00  0.00     0.032 A 
HETATM    6  C   UNL     1     -46.159 -52.886  13.493  1.00  0.00     0.002 A 
HETATM    7  C   UNL     1     -45.310 -53.972  13.285  1.00  0.00     0.002 A 
HETATM    8  C   UNL     1     -43.955 -53.791  12.974  1.00  0.00     0.032 A 
HETATM    9  C   UNL     1     -43.489 -52.472  12.888  1.00  0.00     0.062 A 
HETATM   10  N   UNL     1     -42.259 -51.914  12.608  1.00  0.00    -0.333 N 
ENDROOT
BRANCH  10  11
HETATM   11  C   UNL     1     -41.049 -52.646  12.284  1.00  0.00     0.157 C 
BRANCH  11  12
HETATM   12  C   UNL     1     -40.297 -53.066  13.542  1.00  0.00     0.196 C 
BRANCH  12  13
HETATM   13  O   UNL     1     -38.896 -52.823  13.380  1.00  0.00    -0.350 OA
BRANCH  13  14
HETATM   14  C   UNL     1     -38.503 -51.512  13.499  1.00  0.00     0.068 A 
HETATM   15  C   UNL     1     -37.908 -50.752  12.491  1.00  0.00     0.037 A 
HETATM   16  C   UNL     1     -37.526 -49.427  12.732  1.00  0.00     0.003 A 
HETATM   17  C   UNL     1     -37.745 -48.855  13.981  1.00  0.00     0.000 A 
HETATM   18  C   UNL     1     -38.350 -49.599  14.989  1.00  0.00     0.003 A 
HETATM   19  C   UNL     1     -38.729 -50.924  14.748  1.00  0.00     0.037 A 
ENDBRANCH  13  14
ENDBRANCH  12  13
ENDBRANCH  11  12
ENDBRANCH  10  11
BRANCH   1  20
HETATM   20  C   UNL     1     -41.289 -49.566  12.430  1.00  0.00     0.102 C 
BRANCH  20  21
HETATM   21  C   UNL     1     -41.305 -49.046  10.998  1.00  0.00     0.171 C 
BRANCH  21  22
HETATM   22  O   UNL     1     -40.513 -49.896  10.177  1.00  0.00    -0.400 OA
HETATM   23  H   UNL     1     -41.126 -50.494   9.715  1.00  0.00     0.209 HD
ENDBRANCH  21  22
ENDBRANCH  20  21
ENDBRANCH   1  20
TORSDOF 7
ENDMDL
MODEL 2
REMARK VINA RESULT:      -5.8      2.289      6.288
REMARK  7 active torsions:
REMARK  status: ('A' for Active; 'I' for Inactive)
REMARK    1  A    between atoms: O_1  and  C_2 
REMARK    2  A    between atoms: C_2  and  C_3 
REMARK    3  A    between atoms: C_3  and  C_4 
REMARK    4  A    between atoms: N_13  and  C_14 
REMARK    5  A    between atoms: C_14  and  C_15 
REMARK    6  A    between atoms: C_15  and  O_16 
REMARK    7  A    between atoms: O_16  and  C_17 
ROOT
HETATM    1  C   UNL     1     -40.461 -47.821  11.658  1.00  0.00     0.086 A 
HETATM    2  N   UNL     1     -39.288 -48.095  11.123  1.00  0.00    -0.344 N 
ATOM      3  HN  UNL     1     -38.839 -47.610  10.347  1.00  0.00     0.167 HD
HETATM    4  C   UNL     1     -38.796 -49.164  11.822  1.00  0.00     0.060 A 
HETATM    5  C   UNL     1     -37.580 -49.844  11.656  1.00  0.00     0.032 A 
HETATM    6  C   UNL     1     -37.292 -50.923  12.500  1.00  0.00     0.002 A 
HETATM    7  C   UNL     1     -38.195 -51.312  13.488  1.00  0.00     0.002 A 
HETATM    8  C   UNL     1     -39.413 -50.640  13.670  1.00  0.00     0.032 A 
HETATM    9  C   UNL     1     -39.686 -49.566  12.814  1.00  0.00     0.062 A 
HETATM   10  N   UNL     1     -40.744 -48.690  12.693  1.00  0.00    -0.333 N 
ENDROOT
BRANCH  10  11
HETATM   11  C   UNL     1     -41.927 -48.669  13.533  1.00  0.00     0.157 C 
BRANCH  11  12
HETATM   12  C   UNL     1     -43.037 -49.540  12.955  1.00  0.00     0.196 C 
BRANCH  12  13
HETATM   13  O   UNL     1     -43.179 -50.733  13.732  1.00  0.00    -0.350 OA
BRANCH  13  14
HETATM   14  C   UNL     1     -44.417 -50.933  14.292  1.00  0.00     0.068 A 
HETATM   15  C   UNL     1     -44.724 -50.795  15.646  1.00  0.00     0.037 A 
HETATM   16  C   UNL     1     -46.020 -51.047  16.110  1.00  0.00     0.003 A 
HETATM   17  C   UNL     1     -47.017 -51.432  15.219  1.00  0.00     0.000 A 
HETATM   18  C   UNL     1     -46.725 -51.559  13.865  1.00  0.00     0.003 A 
HETATM   19  C   UNL     1     -45.428 -51.309  13.402  1.00  0.00     0.037 A 
ENDBRANCH  13  14
ENDBRANCH  12  13
ENDBRANCH  11  12
ENDBRANCH  10  11
BRANCH   1  20
HETATM   20  C   UNL     1     -41.360 -46.725  11.195  1.00  0.00     0.102 C 
BRANCH  20  21
HETATM   21  C   UNL     1     -42.303 -47.213  10.102  1.00  0.00     0.171 C 
BRANCH  21  22
HETATM   22  O   UNL     1     -41.792 -48.414   9.537  1.00  0.00    -0.400 OA
HETATM   23  H   UNL     1     -42.319 -48.597   8.740  1.00  0.00     0.209 HD
ENDBRANCH  21  22
ENDBRANCH  20  21
ENDBRANCH   1  20
TORSDOF 7
ENDMDL
MODEL 3
REMARK VINA RESULT:      -5.7      2.136      5.474
REMARK  7 active torsions:
REMARK  status: ('A' for Active; 'I' for Inactive)
REMARK    1  A    between atoms: O_1  and  C_2 
REMARK    2  A    between atoms: C_2  and  C_3 
REMARK    3  A    between atoms: C_3  and  C_4 
REMARK    4  A    between atoms: N_13  and  C_14 
REMARK    5  A    between atoms: C_14  and  C_15 
REMARK    6  A    between atoms: C_15  and  O_16 
REMARK    7  A    between atoms: O_16  and  C_17 
ROOT
HETATM    1  C   UNL     1     -39.180 -48.999  12.164  1.00  0.00     0.086 A 
HETATM    2  N   UNL     1     -39.340 -47.912  11.436  1.00  0.00    -0.344 N 
ATOM      3  HN  UNL     1     -38.606 -47.320  11.049  1.00  0.00     0.167 HD
HETATM    4  C   UNL     1     -40.692 -47.741  11.305  1.00  0.00     0.060 A 
HETATM    5  C   UNL     1     -41.393 -46.738  10.621  1.00  0.00     0.032 A 
HETATM    6  C   UNL     1     -42.793 -46.770  10.629  1.00  0.00     0.002 A 
HETATM    7  C   UNL     1     -43.475 -47.782  11.302  1.00  0.00     0.002 A 
HETATM    8  C   UNL     1     -42.789 -48.796  11.987  1.00  0.00     0.032 A 
HETATM    9  C   UNL     1     -41.389 -48.744  11.971  1.00  0.00     0.062 A 
HETATM   10  N   UNL     1     -40.402 -49.541  12.512  1.00  0.00    -0.333 N 
ENDROOT
BRANCH  10  11
HETATM   11  C   UNL     1     -40.616 -50.754  13.279  1.00  0.00     0.157 C 
BRANCH  11  12
HETATM   12  C   UNL     1     -40.871 -51.951  12.370  1.00  0.00     0.196 C 
BRANCH  12  13
HETATM   13  O   UNL     1     -40.902 -53.156  13.142  1.00  0.00    -0.350 OA
BRANCH  13  14
HETATM   14  C   UNL     1     -42.153 -53.659  13.406  1.00  0.00     0.068 A 
HETATM   15  C   UNL     1     -42.470 -54.530  14.450  1.00  0.00     0.037 A 
HETATM   16  C   UNL     1     -43.779 -54.999  14.611  1.00  0.00     0.003 A 
HETATM   17  C   UNL     1     -44.778 -54.593  13.732  1.00  0.00     0.000 A 
HETATM   18  C   UNL     1     -44.476 -53.714  12.697  1.00  0.00     0.003 A 
HETATM   19  C   UNL     1     -43.166 -53.248  12.535  1.00  0.00     0.037 A 
ENDBRANCH  13  14
ENDBRANCH  12  13
ENDBRANCH  11  12
ENDBRANCH  10  11
BRANCH   1  20
HETATM   20  C   UNL     1     -37.855 -49.555  12.564  1.00  0.00     0.102 C 
BRANCH  20  21
HETATM   21  C   UNL     1     -37.330 -50.527  11.516  1.00  0.00     0.171 C 
BRANCH  21  22
HETATM   22  O   UNL     1     -37.577 -50.003  10.217  1.00  0.00    -0.400 OA
HETATM   23  H   UNL     1     -37.212 -49.102  10.202  1.00  0.00     0.209 HD
ENDBRANCH  21  22
ENDBRANCH  20  21
ENDBRANCH   1  20
TORSDOF 7
ENDMDL
MODEL 4
REMARK VINA RESULT:      -5.7      2.387      5.912
REMARK  7 active torsions:
REMARK  status: ('A' for Active; 'I' for Inactive)
REMARK    1  A    between atoms: O_1  and  C_2 
REMARK    2  A    between atoms: C_2  and  C_3 
REMARK    3  A    between atoms: C_3  and  C_4 
REMARK    4  A    between atoms: N_13  and  C_14 
REMARK    5  A    between atoms: C_14  and  C_15 
REMARK    6  A    between atoms: C_15  and  O_16 
REMARK    7  A    between atoms: O_16  and  C_17 
ROOT
HETATM    1  C   UNL     1     -39.779 -49.518  11.791  1.00  0.00     0.086 A 
HETATM    2  N   UNL     1     -39.532 -48.289  11.385  1.00  0.00    -0.344 N 
ATOM      3  HN  UNL     1     -38.618 -47.853  11.270  1.00  0.00     0.167 HD
HETATM    4  C   UNL     1     -40.753 -47.716  11.151  1.00  0.00     0.060 A 
HETATM    5  C   UNL     1     -41.050 -46.422  10.702  1.00  0.00     0.032 A 
HETATM    6  C   UNL     1     -42.392 -46.058  10.537  1.00  0.00     0.002 A 
HETATM    7  C   UNL     1     -43.412 -46.967  10.812  1.00  0.00     0.002 A 
HETATM    8  C   UNL     1     -43.133 -48.267  11.258  1.00  0.00     0.032 A 
HETATM    9  C   UNL     1     -41.785 -48.611  11.421  1.00  0.00     0.062 A 
HETATM   10  N   UNL     1     -41.138 -49.760  11.825  1.00  0.00    -0.333 N 
ENDROOT
BRANCH  10  11
HETATM   11  C   UNL     1     -41.778 -51.011  12.189  1.00  0.00     0.157 C 
BRANCH  11  12
HETATM   12  C   UNL     1     -42.008 -51.103  13.693  1.00  0.00     0.196 C 
BRANCH  12  13
HETATM   13  O   UNL     1     -42.990 -50.144  14.099  1.00  0.00    -0.350 OA
BRANCH  13  14
HETATM   14  C   UNL     1     -44.260 -50.635  14.281  1.00  0.00     0.068 A 
HETATM   15  C   UNL     1     -45.105 -51.087  13.266  1.00  0.00     0.037 A 
HETATM   16  C   UNL     1     -46.392 -51.546  13.566  1.00  0.00     0.003 A 
HETATM   17  C   UNL     1     -46.837 -51.563  14.884  1.00  0.00     0.000 A 
HETATM   18  C   UNL     1     -45.998 -51.128  15.905  1.00  0.00     0.003 A 
HETATM   19  C   UNL     1     -44.712 -50.666  15.604  1.00  0.00     0.037 A 
ENDBRANCH  13  14
ENDBRANCH  12  13
ENDBRANCH  11  12
ENDBRANCH  10  11
BRANCH   1  20
HETATM   20  C   UNL     1     -38.727 -50.505  12.169  1.00  0.00     0.102 C 
BRANCH  20  21
HETATM   21  C   UNL     1     -37.375 -50.117  11.584  1.00  0.00     0.171 C 
BRANCH  21  22
HETATM   22  O   UNL     1     -37.455 -50.114  10.164  1.00  0.00    -0.400 OA
HETATM   23  H   UNL     1     -37.282 -51.026   9.870  1.00  0.00     0.209 HD
ENDBRANCH  21  22
ENDBRANCH  20  21
ENDBRANCH   1  20
TORSDOF 7
ENDMDL
MODEL 5
REMARK VINA RESULT:      -5.7      1.448      3.047
REMARK  7 active torsions:
REMARK  status: ('A' for Active; 'I' for Inactive)
REMARK    1  A    between atoms: O_1  and  C_2 
REMARK    2  A    between atoms: C_2  and  C_3 
REMARK    3  A    between atoms: C_3  and  C_4 
REMARK    4  A    between atoms: N_13  and  C_14 
REMARK    5  A    between atoms: C_14  and  C_15 
REMARK    6  A    between atoms: C_15  and  O_16 
REMARK    7  A    between atoms: O_16  and  C_17 
ROOT
HETATM    1  C   UNL     1     -42.315 -53.162  12.998  1.00  0.00     0.086 A 
HETATM    2  N   UNL     1     -43.163 -54.082  13.410  1.00  0.00    -0.344 N 
ATOM      3  HN  UNL     1     -42.978 -55.078  13.530  1.00  0.00     0.167 HD
HETATM    4  C   UNL     1     -44.343 -53.430  13.646  1.00  0.00     0.060 A 
HETATM    5  C   UNL     1     -45.564 -53.949  14.102  1.00  0.00     0.032 A 
HETATM    6  C   UNL     1     -46.646 -53.078  14.266  1.00  0.00     0.002 A 
HETATM    7  C   UNL     1     -46.512 -51.719  13.985  1.00  0.00     0.002 A 
HETATM    8  C   UNL     1     -45.297 -51.182  13.533  1.00  0.00     0.032 A 
HETATM    9  C   UNL     1     -44.227 -52.071  13.370  1.00  0.00     0.062 A 
HETATM   10  N   UNL     1     -42.919 -51.920  12.960  1.00  0.00    -0.333 N 
ENDROOT
BRANCH  10  11
HETATM   11  C   UNL     1     -42.285 -50.668  12.590  1.00  0.00     0.157 C 
BRANCH  11  12
HETATM   12  C   UNL     1     -41.743 -49.935  13.811  1.00  0.00     0.196 C 
BRANCH  12  13
HETATM   13  O   UNL     1     -40.728 -49.007  13.417  1.00  0.00    -0.350 OA
BRANCH  13  14
HETATM   14  C   UNL     1     -39.550 -49.565  12.983  1.00  0.00     0.068 A 
HETATM   15  C   UNL     1     -38.931 -49.299  11.760  1.00  0.00     0.037 A 
HETATM   16  C   UNL     1     -37.741 -49.946  11.412  1.00  0.00     0.003 A 
HETATM   17  C   UNL     1     -37.159 -50.858  12.288  1.00  0.00     0.000 A 
HETATM   18  C   UNL     1     -37.760 -51.119  13.515  1.00  0.00     0.003 A 
HETATM   19  C   UNL     1     -38.953 -50.474  13.862  1.00  0.00     0.037 A 
ENDBRANCH  13  14
ENDBRANCH  12  13
ENDBRANCH  11  12
ENDBRANCH  10  11
BRANCH   1  20
HETATM   20  C   UNL     1     -40.899 -53.434  12.617  1.00  0.00     0.102 C 
BRANCH  20  21
HETATM   21  C   UNL     1     -40.122 -54.031  13.783  1.00  0.00     0.171 C 
BRANCH  21  22
HETATM   22  O   UNL     1     -38.949 -54.670  13.293  1.00  0.00    -0.400 OA
HETATM   23  H   UNL     1     -39.238 -55.483  12.844  1.00  0.00     0.209 HD
ENDBRANCH  21  22
ENDBRANCH  20  21
ENDBRANCH   1  20
TORSDOF 7
ENDMDL
MODEL 6
REMARK VINA RESULT:      -5.6      1.934      6.703
REMARK  7 active torsions:
REMARK  status: ('A' for Active; 'I' for Inactive)
REMARK    1  A    between atoms: O_1  and  C_2 
REMARK    2  A    between atoms: C_2  and  C_3 
REMARK    3  A    between atoms: C_3  and  C_4 
REMARK    4  A    between atoms: N_13  and  C_14 
REMARK    5  A    between atoms: C_14  and  C_15 
REMARK    6  A    between atoms: C_15  and  O_16 
REMARK    7  A    between atoms: O_16  and  C_17 
ROOT
HETATM    1  C   UNL     1     -39.855 -52.682  14.105  1.00  0.00     0.086 A 
HETATM    2  N   UNL     1     -38.839 -51.974  14.556  1.00  0.00    -0.344 N 
ATOM      3  HN  UNL     1     -38.263 -52.178  15.372  1.00  0.00     0.167 HD
HETATM    4  C   UNL     1     -38.715 -50.908  13.707  1.00  0.00     0.060 A 
HETATM    5  C   UNL     1     -37.788 -49.857  13.738  1.00  0.00     0.032 A 
HETATM    6  C   UNL     1     -37.859 -48.867  12.750  1.00  0.00     0.002 A 
HETATM    7  C   UNL     1     -38.832 -48.928  11.754  1.00  0.00     0.002 A 
HETATM    8  C   UNL     1     -39.764 -49.975  11.705  1.00  0.00     0.032 A 
HETATM    9  C   UNL     1     -39.680 -50.953  12.704  1.00  0.00     0.062 A 
HETATM   10  N   UNL     1     -40.396 -52.100  12.976  1.00  0.00    -0.333 N 
ENDROOT
BRANCH  10  11
HETATM   11  C   UNL     1     -41.502 -52.615  12.191  1.00  0.00     0.157 C 
BRANCH  11  12
HETATM   12  C   UNL     1     -42.827 -51.995  12.619  1.00  0.00     0.196 C 
BRANCH  12  13
HETATM   13  O   UNL     1     -43.904 -52.895  12.340  1.00  0.00    -0.350 OA
BRANCH  13  14
HETATM   14  C   UNL     1     -44.953 -52.859  13.226  1.00  0.00     0.068 A 
HETATM   15  C   UNL     1     -45.469 -53.959  13.913  1.00  0.00     0.037 A 
HETATM   16  C   UNL     1     -46.559 -53.808  14.777  1.00  0.00     0.003 A 
HETATM   17  C   UNL     1     -47.133 -52.555  14.965  1.00  0.00     0.000 A 
HETATM   18  C   UNL     1     -46.617 -51.449  14.296  1.00  0.00     0.003 A 
HETATM   19  C   UNL     1     -45.528 -51.601  13.430  1.00  0.00     0.037 A 
ENDBRANCH  13  14
ENDBRANCH  12  13
ENDBRANCH  11  12
ENDBRANCH  10  11
BRANCH   1  20
HETATM   20  C   UNL     1     -40.352 -53.937  14.740  1.00  0.00     0.102 C 
BRANCH  20  21
HETATM   21  C   UNL     1     -39.306 -55.042  14.664  1.00  0.00     0.171 C 
BRANCH  21  22
HETATM   22  O   UNL     1     -38.632 -54.971  13.413  1.00  0.00    -0.400 OA
HETATM   23  H   UNL     1     -38.537 -54.027  13.197  1.00  0.00     0.209 HD
ENDBRANCH  21  22
ENDBRANCH  20  21
ENDBRANCH   1  20
TORSDOF 7
ENDMDL
MODEL 7
REMARK VINA RESULT:      -5.5      3.354      6.994
REMARK  7 active torsions:
REMARK  status: ('A' for Active; 'I' for Inactive)
REMARK    1  A    between atoms: O_1  and  C_2 
REMARK    2  A    between atoms: C_2  and  C_3 
REMARK    3  A    between atoms: C_3  and  C_4 
REMARK    4  A    between atoms: N_13  and  C_14 
REMARK    5  A    between atoms: C_14  and  C_15 
REMARK    6  A    between atoms: C_15  and  O_16 
REMARK    7  A    between atoms: O_16  and  C_17 
ROOT
HETATM    1  C   UNL     1     -42.307 -47.087  10.016  1.00  0.00     0.086 A 
HETATM    2  N   UNL     1     -41.902 -45.836   9.931  1.00  0.00    -0.344 N 
ATOM      3  HN  UNL     1     -42.191 -45.143   9.241  1.00  0.00     0.167 HD
HETATM    4  C   UNL     1     -41.016 -45.655  10.958  1.00  0.00     0.060 A 
HETATM    5  C   UNL     1     -40.301 -44.503  11.316  1.00  0.00     0.032 A 
HETATM    6  C   UNL     1     -39.441 -44.559  12.419  1.00  0.00     0.002 A 
HETATM    7  C   UNL     1     -39.300 -45.739  13.148  1.00  0.00     0.002 A 
HETATM    8  C   UNL     1     -40.011 -46.899  12.807  1.00  0.00     0.032 A 
HETATM    9  C   UNL     1     -40.864 -46.824  11.698  1.00  0.00     0.062 A 
HETATM   10  N   UNL     1     -41.703 -47.727  11.080  1.00  0.00    -0.333 N 
ENDROOT
BRANCH  10  11
HETATM   11  C   UNL     1     -41.931 -49.097  11.500  1.00  0.00     0.157 C 
BRANCH  11  12
HETATM   12  C   UNL     1     -43.009 -49.178  12.575  1.00  0.00     0.196 C 
BRANCH  12  13
HETATM   13  O   UNL     1     -43.189 -50.536  12.988  1.00  0.00    -0.350 OA
BRANCH  13  14
HETATM   14  C   UNL     1     -44.312 -50.784  13.741  1.00  0.00     0.068 A 
HETATM   15  C   UNL     1     -44.414 -50.609  15.122  1.00  0.00     0.037 A 
HETATM   16  C   UNL     1     -45.604 -50.916  15.790  1.00  0.00     0.003 A 
HETATM   17  C   UNL     1     -46.701 -51.393  15.079  1.00  0.00     0.000 A 
HETATM   18  C   UNL     1     -46.614 -51.557  13.700  1.00  0.00     0.003 A 
HETATM   19  C   UNL     1     -45.422 -51.252  13.032  1.00  0.00     0.037 A 
ENDBRANCH  13  14
ENDBRANCH  12  13
ENDBRANCH  11  12
ENDBRANCH  10  11
BRANCH   1  20
HETATM   20  C   UNL     1     -43.280 -47.720   9.079  1.00  0.00     0.102 C 
BRANCH  20  21
HETATM   21  C   UNL     1     -44.709 -47.315   9.415  1.00  0.00     0.171 C 
BRANCH  21  22
HETATM   22  O   UNL     1     -44.874 -45.921   9.183  1.00  0.00    -0.400 OA
HETATM   23  H   UNL     1     -45.106 -45.519  10.038  1.00  0.00     0.209 HD
ENDBRANCH  21  22
ENDBRANCH  20  21
ENDBRANCH   1  20
TORSDOF 7
ENDMDL
MODEL 8
REMARK VINA RESULT:      -5.5      2.229      5.803
REMARK  7 active torsions:
REMARK  status: ('A' for Active; 'I' for Inactive)
REMARK    1  A    between atoms: O_1  and  C_2 
REMARK    2  A    between atoms: C_2  and  C_3 
REMARK    3  A    between atoms: C_3  and  C_4 
REMARK    4  A    between atoms: N_13  and  C_14 
REMARK    5  A    between atoms: C_14  and  C_15 
REMARK    6  A    between atoms: C_15  and  O_16 
REMARK    7  A    between atoms: O_16  and  C_17 
ROOT
HETATM    1  C   UNL     1     -40.749 -50.496  12.613  1.00  0.00     0.086 A 
HETATM    2  N   UNL     1     -40.998 -50.185  11.356  1.00  0.00    -0.344 N 
ATOM      3  HN  UNL     1     -40.803 -50.754  10.533  1.00  0.00     0.167 HD
HETATM    4  C   UNL     1     -41.573 -48.943  11.381  1.00  0.00     0.060 A 
HETATM    5  C   UNL     1     -42.030 -48.159  10.312  1.00  0.00     0.032 A 
HETATM    6  C   UNL     1     -42.586 -46.904  10.586  1.00  0.00     0.002 A 
HETATM    7  C   UNL     1     -42.686 -46.445  11.899  1.00  0.00     0.002 A 
HETATM    8  C   UNL     1     -42.239 -47.218  12.980  1.00  0.00     0.032 A 
HETATM    9  C   UNL     1     -41.681 -48.468  12.685  1.00  0.00     0.062 A 
HETATM   10  N   UNL     1     -41.151 -49.480  13.458  1.00  0.00    -0.333 N 
ENDROOT
BRANCH  10  11
HETATM   11  C   UNL     1     -41.065 -49.485  14.907  1.00  0.00     0.157 C 
BRANCH  11  12
HETATM   12  C   UNL     1     -42.435 -49.687  15.545  1.00  0.00     0.196 C 
BRANCH  12  13
HETATM   13  O   UNL     1     -42.871 -51.037  15.355  1.00  0.00    -0.350 OA
BRANCH  13  14
HETATM   14  C   UNL     1     -44.133 -51.184  14.831  1.00  0.00     0.068 A 
HETATM   15  C   UNL     1     -44.437 -51.289  13.473  1.00  0.00     0.037 A 
HETATM   16  C   UNL     1     -45.765 -51.413  13.051  1.00  0.00     0.003 A 
HETATM   17  C   UNL     1     -46.795 -51.440  13.985  1.00  0.00     0.000 A 
HETATM   18  C   UNL     1     -46.502 -51.351  15.342  1.00  0.00     0.003 A 
HETATM   19  C   UNL     1     -45.173 -51.224  15.764  1.00  0.00     0.037 A 
ENDBRANCH  13  14
ENDBRANCH  12  13
ENDBRANCH  11  12
ENDBRANCH  10  11
BRANCH   1  20
HETATM   20  C   UNL     1     -40.110 -51.769  13.052  1.00  0.00     0.102 C 
BRANCH  20  21
HETATM   21  C   UNL     1     -40.954 -52.973  12.653  1.00  0.00     0.171 C 
BRANCH  21  22
HETATM   22  O   UNL     1     -40.642 -53.349  11.317  1.00  0.00    -0.400 OA
HETATM   23  H   UNL     1     -40.057 -52.659  10.959  1.00  0.00     0.209 HD
ENDBRANCH  21  22
ENDBRANCH  20  21
ENDBRANCH   1  20
TORSDOF 7
ENDMDL
MODEL 9
REMARK VINA RESULT:      -5.5      1.995      6.357
REMARK  7 active torsions:
REMARK  status: ('A' for Active; 'I' for Inactive)
REMARK    1  A    between atoms: O_1  and  C_2 
REMARK    2  A    between atoms: C_2  and  C_3 
REMARK    3  A    between atoms: C_3  and  C_4 
REMARK    4  A    between atoms: N_13  and  C_14 
REMARK    5  A    between atoms: C_14  and  C_15 
REMARK    6  A    between atoms: C_15  and  O_16 
REMARK    7  A    between atoms: O_16  and  C_17 
ROOT
HETATM    1  C   UNL     1     -39.533 -52.565  14.388  1.00  0.00     0.086 A 
HETATM    2  N   UNL     1     -38.553 -51.883  13.831  1.00  0.00    -0.344 N 
ATOM      3  HN  UNL     1     -37.555 -51.984  14.012  1.00  0.00     0.167 HD
HETATM    4  C   UNL     1     -39.148 -51.012  12.959  1.00  0.00     0.060 A 
HETATM    5  C   UNL     1     -38.553 -50.065  12.113  1.00  0.00     0.032 A 
HETATM    6  C   UNL     1     -39.376 -49.275  11.302  1.00  0.00     0.002 A 
HETATM    7  C   UNL     1     -40.761 -49.430  11.333  1.00  0.00     0.002 A 
HETATM    8  C   UNL     1     -41.372 -50.376  12.170  1.00  0.00     0.032 A 
HETATM    9  C   UNL     1     -40.532 -51.154  12.977  1.00  0.00     0.062 A 
HETATM   10  N   UNL     1     -40.757 -52.157  13.896  1.00  0.00    -0.333 N 
ENDROOT
BRANCH  10  11
HETATM   11  C   UNL     1     -42.053 -52.705  14.254  1.00  0.00     0.157 C 
BRANCH  11  12
HETATM   12  C   UNL     1     -42.556 -53.679  13.195  1.00  0.00     0.196 C 
BRANCH  12  13
HETATM   13  O   UNL     1     -43.646 -53.099  12.472  1.00  0.00    -0.350 OA
BRANCH  13  14
HETATM   14  C   UNL     1     -44.779 -52.846  13.208  1.00  0.00     0.068 A 
HETATM   15  C   UNL     1     -45.380 -51.596  13.362  1.00  0.00     0.037 A 
HETATM   16  C   UNL     1     -46.523 -51.452  14.157  1.00  0.00     0.003 A 
HETATM   17  C   UNL     1     -47.073 -52.558  14.796  1.00  0.00     0.000 A 
HETATM   18  C   UNL     1     -46.490 -53.811  14.638  1.00  0.00     0.003 A 
HETATM   19  C   UNL     1     -45.345 -53.955  13.844  1.00  0.00     0.037 A 
ENDBRANCH  13  14
ENDBRANCH  12  13
ENDBRANCH  11  12
ENDBRANCH  10  11
BRANCH   1  20
HETATM   20  C   UNL     1     -39.339 -53.627  15.418  1.00  0.00     0.102 C 
BRANCH  20  21
HETATM   21  C   UNL     1     -39.082 -54.981  14.768  1.00  0.00     0.171 C 
BRANCH  21  22
HETATM   22  O   UNL     1     -38.768 -54.795  13.393  1.00  0.00    -0.400 OA
HETATM   23  H   UNL     1     -38.690 -55.681  13.000  1.00  0.00     0.209 HD
ENDBRANCH  21  22
ENDBRANCH  20  21
ENDBRANCH   1  20
TORSDOF 7
ENDMDL
