MODEL 1
REMARK VINA RESULT:      -5.8      0.000      0.000
REMARK  5 active torsions:
REMARK  status: ('A' for Active; 'I' for Inactive)
REMARK    1  A    between atoms: C_2  and  C_3 
REMARK    2  A    between atoms: C_2  and  N_16 
REMARK    3  A    between atoms: C_3  and  N_4 
REMARK       I    between atoms: N_4  and  C_5 
REMARK    4  A    between atoms: C_5  and  C_7 
REMARK    5  A    between atoms: C_7  and  C_8 
ROOT
HETATM    1  N   UNL     1     -43.418 -50.223  12.501  1.00  0.00    -0.359 N 
HETATM    2  C   UNL     1     -42.866 -48.961  12.392  1.00  0.00     0.222 C 
HETATM    3  O   UNL     1     -42.951 -48.124  13.290  1.00  0.00    -0.273 OA
HETATM    4  H   UNL     1     -43.427 -50.841  11.702  1.00  0.00     0.162 HD
ENDROOT
BRANCH   1   5
HETATM    5  C   UNL     1     -44.175 -50.605  13.684  1.00  0.00     0.158 C 
BRANCH   5   6
HETATM    6  C   UNL     1     -45.003 -51.915  13.501  1.00  0.00     0.236 C 
HETATM    7  C   UNL     1     -46.300 -51.549  12.749  1.00  0.00     0.044 C 
BRANCH   6   8
HETATM    8  N   UNL     1     -45.297 -52.606  14.791  1.00  0.00     0.098 N 
HETATM    9  C   UNL     1     -44.076 -53.146  15.452  1.00  0.00     0.299 C 
HETATM   10  C   UNL     1     -43.436 -54.335  14.712  1.00  0.00     0.198 C 
HETATM   11  O   UNL     1     -44.372 -55.410  14.553  1.00  0.00    -0.388 OA
HETATM   12  C   UNL     1     -45.558 -54.962  13.883  1.00  0.00     0.198 C 
HETATM   13  C   UNL     1     -46.203 -53.776  14.625  1.00  0.00     0.299 C 
ENDBRANCH   6   8
ENDBRANCH   5   6
ENDBRANCH   1   5
BRANCH   2  14
HETATM   14  C   UNL     1     -42.151 -48.682  11.087  1.00  0.00     0.146 C 
BRANCH  14  15
HETATM   15  C   UNL     1     -42.495 -47.338  10.550  1.00  0.00     0.006 A 
HETATM   16  C   UNL     1     -43.726 -46.888   9.989  1.00  0.00     0.038 A 
HETATM   17  C   UNL     1     -44.996 -47.626   9.778  1.00  0.00     0.071 C 
HETATM   18  N   UNL     1     -43.649 -45.607   9.614  1.00  0.00    -0.265 N 
HETATM   19  O   UNL     1     -42.377 -45.191   9.937  1.00  0.00    -0.242 OA
ATOM     20  HN  UNL     1     -44.384 -45.050   9.178  1.00  0.00     0.194 HD
HETATM   21  C   UNL     1     -41.690 -46.218  10.498  1.00  0.00     0.081 A 
HETATM   22  C   UNL     1     -40.307 -45.923  10.916  1.00  0.00     0.079 C 
ENDBRANCH  14  15
ENDBRANCH   2  14
TORSDOF 5
ENDMDL
MODEL 2
REMARK VINA RESULT:      -5.7      1.225      1.797
REMARK  5 active torsions:
REMARK  status: ('A' for Active; 'I' for Inactive)
REMARK    1  A    between atoms: C_2  and  C_3 
REMARK    2  A    between atoms: C_2  and  N_16 
REMARK    3  A    between atoms: C_3  and  N_4 
REMARK       I    between atoms: N_4  and  C_5 
REMARK    4  A    between atoms: C_5  and  C_7 
REMARK    5  A    between atoms: C_7  and  C_8 
ROOT
HETATM    1  N   UNL     1     -43.196 -49.893  12.152  1.00  0.00    -0.359 N 
HETATM    2  C   UNL     1     -42.883 -48.554  12.018  1.00  0.00     0.222 C 
HETATM    3  O   UNL     1     -43.084 -47.736  12.914  1.00  0.00    -0.273 OA
HETATM    4  H   UNL     1     -43.124 -50.512  11.357  1.00  0.00     0.162 HD
ENDROOT
BRANCH   1   5
HETATM    5  C   UNL     1     -43.829 -50.391  13.366  1.00  0.00     0.158 C 
BRANCH   5   6
HETATM    6  C   UNL     1     -43.682 -51.932  13.561  1.00  0.00     0.236 C 
HETATM    7  C   UNL     1     -42.210 -52.302  13.283  1.00  0.00     0.044 C 
BRANCH   6   8
HETATM    8  N   UNL     1     -44.614 -52.722  12.704  1.00  0.00     0.098 N 
HETATM    9  C   UNL     1     -46.048 -52.421  12.975  1.00  0.00     0.299 C 
HETATM   10  C   UNL     1     -46.544 -52.916  14.346  1.00  0.00     0.198 C 
HETATM   11  O   UNL     1     -46.348 -54.330  14.488  1.00  0.00    -0.388 OA
HETATM   12  C   UNL     1     -44.974 -54.680  14.278  1.00  0.00     0.198 C 
HETATM   13  C   UNL     1     -44.478 -54.191  12.905  1.00  0.00     0.299 C 
ENDBRANCH   6   8
ENDBRANCH   5   6
ENDBRANCH   1   5
BRANCH   2  14
HETATM   14  C   UNL     1     -42.277 -48.167  10.685  1.00  0.00     0.146 C 
BRANCH  14  15
HETATM   15  C   UNL     1     -42.841 -46.886  10.179  1.00  0.00     0.006 A 
HETATM   16  C   UNL     1     -44.077 -46.659   9.507  1.00  0.00     0.038 A 
HETATM   17  C   UNL     1     -45.137 -47.622   9.121  1.00  0.00     0.071 C 
HETATM   18  N   UNL     1     -44.233 -45.365   9.204  1.00  0.00    -0.265 N 
HETATM   19  O   UNL     1     -43.114 -44.723   9.686  1.00  0.00    -0.242 OA
ATOM     20  HN  UNL     1     -45.022 -44.940   8.717  1.00  0.00     0.194 HD
HETATM   21  C   UNL     1     -42.286 -45.626  10.270  1.00  0.00     0.081 A 
HETATM   22  C   UNL     1     -41.044 -45.086  10.852  1.00  0.00     0.079 C 
ENDBRANCH  14  15
ENDBRANCH   2  14
TORSDOF 5
ENDMDL
MODEL 3
REMARK VINA RESULT:      -5.7      2.478      2.901
REMARK  5 active torsions:
REMARK  status: ('A' for Active; 'I' for Inactive)
REMARK    1  A    between atoms: C_2  and  C_3 
REMARK    2  A    between atoms: C_2  and  N_16 
REMARK    3  A    between atoms: C_3  and  N_4 
REMARK       I    between atoms: N_4  and  C_5 
REMARK    4  A    between atoms: C_5  and  C_7 
REMARK    5  A    between atoms: C_7  and  C_8 
ROOT
HETATM    1  N   UNL     1     -42.324 -49.945  11.741  1.00  0.00    -0.359 N 
HETATM    2  C   UNL     1     -42.515 -48.583  11.623  1.00  0.00     0.222 C 
HETATM    3  O   UNL     1     -43.075 -47.917  12.492  1.00  0.00    -0.273 OA
HETATM    4  H   UNL     1     -41.963 -50.475  10.960  1.00  0.00     0.162 HD
ENDROOT
BRANCH   1   5
HETATM    5  C   UNL     1     -42.827 -50.670  12.899  1.00  0.00     0.158 C 
BRANCH   5   6
HETATM    6  C   UNL     1     -42.368 -52.161  12.953  1.00  0.00     0.236 C 
HETATM    7  C   UNL     1     -43.588 -53.040  12.602  1.00  0.00     0.044 C 
BRANCH   6   8
HETATM    8  N   UNL     1     -41.779 -52.545  14.269  1.00  0.00     0.098 N 
HETATM    9  C   UNL     1     -40.559 -51.760  14.610  1.00  0.00     0.299 C 
HETATM   10  C   UNL     1     -39.340 -52.082  13.726  1.00  0.00     0.198 C 
HETATM   11  O   UNL     1     -39.009 -53.477  13.788  1.00  0.00    -0.388 OA
HETATM   12  C   UNL     1     -40.135 -54.287  13.430  1.00  0.00     0.198 C 
HETATM   13  C   UNL     1     -41.354 -53.971  14.317  1.00  0.00     0.299 C 
ENDBRANCH   6   8
ENDBRANCH   5   6
ENDBRANCH   1   5
BRANCH   2  14
HETATM   14  C   UNL     1     -41.986 -47.968  10.344  1.00  0.00     0.146 C 
BRANCH  14  15
HETATM   15  C   UNL     1     -42.698 -46.706  10.007  1.00  0.00     0.006 A 
HETATM   16  C   UNL     1     -43.946 -46.536   9.340  1.00  0.00     0.038 A 
HETATM   17  C   UNL     1     -44.875 -47.555   8.793  1.00  0.00     0.071 C 
HETATM   18  N   UNL     1     -44.259 -45.241   9.219  1.00  0.00    -0.265 N 
HETATM   19  O   UNL     1     -43.233 -44.543   9.817  1.00  0.00    -0.242 OA
ATOM     20  HN  UNL     1     -45.089 -44.849   8.774  1.00  0.00     0.194 HD
HETATM   21  C   UNL     1     -42.306 -45.414  10.291  1.00  0.00     0.081 A 
HETATM   22  C   UNL     1     -41.146 -44.816  10.977  1.00  0.00     0.079 C 
ENDBRANCH  14  15
ENDBRANCH   2  14
TORSDOF 5
ENDMDL
MODEL 4
REMARK VINA RESULT:      -5.6      3.441      3.955
REMARK  5 active torsions:
REMARK  status: ('A' for Active; 'I' for Inactive)
REMARK    1  A    between atoms: C_2  and  C_3 
REMARK    2  A    between atoms: C_2  and  N_16 
REMARK    3  A    between atoms: C_3  and  N_4 
REMARK       I    between atoms: N_4  and  C_5 
REMARK    4  A    between atoms: C_5  and  C_7 
REMARK    5  A    between atoms: C_7  and  C_8 
ROOT
HETATM    1  N   UNL     1     -42.405 -51.500  11.986  1.00  0.00    -0.359 N 
HETATM    2  C   UNL     1     -41.032 -51.387  11.889  1.00  0.00     0.222 C 
HETATM    3  O   UNL     1     -40.270 -52.297  12.208  1.00  0.00    -0.273 OA
HETATM    4  H   UNL     1     -42.993 -50.695  11.824  1.00  0.00     0.162 HD
ENDROOT
BRANCH   1   5
HETATM    5  C   UNL     1     -43.015 -52.708  12.524  1.00  0.00     0.158 C 
BRANCH   5   6
HETATM    6  C   UNL     1     -44.264 -52.433  13.420  1.00  0.00     0.236 C 
HETATM    7  C   UNL     1     -44.324 -50.915  13.687  1.00  0.00     0.044 C 
BRANCH   6   8
HETATM    8  N   UNL     1     -44.254 -53.212  14.693  1.00  0.00     0.098 N 
HETATM    9  C   UNL     1     -44.204 -54.685  14.472  1.00  0.00     0.299 C 
HETATM   10  C   UNL     1     -45.495 -55.272  13.871  1.00  0.00     0.198 C 
HETATM   11  O   UNL     1     -46.631 -54.980  14.697  1.00  0.00    -0.388 OA
HETATM   12  C   UNL     1     -46.757 -53.568  14.914  1.00  0.00     0.198 C 
HETATM   13  C   UNL     1     -45.470 -52.980  15.521  1.00  0.00     0.299 C 
ENDBRANCH   6   8
ENDBRANCH   5   6
ENDBRANCH   1   5
BRANCH   2  14
HETATM   14  C   UNL     1     -40.533 -50.058  11.361  1.00  0.00     0.146 C 
BRANCH  14  15
HETATM   15  C   UNL     1     -39.530 -49.447  12.274  1.00  0.00     0.006 A 
HETATM   16  C   UNL     1     -39.743 -48.761  13.505  1.00  0.00     0.038 A 
HETATM   17  C   UNL     1     -41.010 -48.458  14.213  1.00  0.00     0.071 C 
HETATM   18  N   UNL     1     -38.587 -48.353  14.039  1.00  0.00    -0.265 N 
HETATM   19  O   UNL     1     -37.598 -48.777  13.179  1.00  0.00    -0.242 OA
ATOM     20  HN  UNL     1     -38.462 -47.833  14.907  1.00  0.00     0.194 HD
HETATM   21  C   UNL     1     -38.157 -49.433  12.130  1.00  0.00     0.081 A 
HETATM   22  C   UNL     1     -37.221 -49.966  11.124  1.00  0.00     0.079 C 
ENDBRANCH  14  15
ENDBRANCH   2  14
TORSDOF 5
ENDMDL
MODEL 5
REMARK VINA RESULT:      -5.6      1.655      2.867
REMARK  5 active torsions:
REMARK  status: ('A' for Active; 'I' for Inactive)
REMARK    1  A    between atoms: C_2  and  C_3 
REMARK    2  A    between atoms: C_2  and  N_16 
REMARK    3  A    between atoms: C_3  and  N_4 
REMARK       I    between atoms: N_4  and  C_5 
REMARK    4  A    between atoms: C_5  and  C_7 
REMARK    5  A    between atoms: C_7  and  C_8 
ROOT
HETATM    1  N   UNL     1     -43.077 -50.794  12.680  1.00  0.00    -0.359 N 
HETATM    2  C   UNL     1     -42.250 -49.801  12.193  1.00  0.00     0.222 C 
HETATM    3  O   UNL     1     -41.206 -50.047  11.591  1.00  0.00    -0.273 OA
HETATM    4  H   UNL     1     -43.864 -50.555  13.267  1.00  0.00     0.162 HD
ENDROOT
BRANCH   1   5
HETATM    5  C   UNL     1     -42.717 -52.198  12.537  1.00  0.00     0.158 C 
BRANCH   5   6
HETATM    6  C   UNL     1     -43.509 -53.147  13.491  1.00  0.00     0.236 C 
HETATM    7  C   UNL     1     -42.531 -54.228  13.996  1.00  0.00     0.044 C 
BRANCH   6   8
HETATM    8  N   UNL     1     -44.710 -53.755  12.847  1.00  0.00     0.098 N 
HETATM    9  C   UNL     1     -45.788 -52.763  12.573  1.00  0.00     0.299 C 
HETATM   10  C   UNL     1     -46.475 -52.220  13.840  1.00  0.00     0.198 C 
HETATM   11  O   UNL     1     -47.033 -53.285  14.623  1.00  0.00    -0.388 OA
HETATM   12  C   UNL     1     -46.032 -54.256  14.954  1.00  0.00     0.198 C 
HETATM   13  C   UNL     1     -45.348 -54.805  13.689  1.00  0.00     0.299 C 
ENDBRANCH   6   8
ENDBRANCH   5   6
ENDBRANCH   1   5
BRANCH   2  14
HETATM   14  C   UNL     1     -42.721 -48.386  12.457  1.00  0.00     0.146 C 
BRANCH  14  15
HETATM   15  C   UNL     1     -42.466 -47.498  11.291  1.00  0.00     0.006 A 
HETATM   16  C   UNL     1     -41.281 -46.779  10.957  1.00  0.00     0.038 A 
HETATM   17  C   UNL     1     -39.984 -46.709  11.672  1.00  0.00     0.071 C 
HETATM   18  N   UNL     1     -41.438 -46.084   9.826  1.00  0.00    -0.265 N 
HETATM   19  O   UNL     1     -42.718 -46.347   9.390  1.00  0.00    -0.242 OA
ATOM     20  HN  UNL     1     -40.749 -45.481   9.376  1.00  0.00     0.194 HD
HETATM   21  C   UNL     1     -43.330 -47.191  10.259  1.00  0.00     0.081 A 
HETATM   22  C   UNL     1     -44.710 -47.583   9.919  1.00  0.00     0.079 C 
ENDBRANCH  14  15
ENDBRANCH   2  14
TORSDOF 5
ENDMDL
MODEL 6
REMARK VINA RESULT:      -5.5      3.351      4.127
REMARK  5 active torsions:
REMARK  status: ('A' for Active; 'I' for Inactive)
REMARK    1  A    between atoms: C_2  and  C_3 
REMARK    2  A    between atoms: C_2  and  N_16 
REMARK    3  A    between atoms: C_3  and  N_4 
REMARK       I    between atoms: N_4  and  C_5 
REMARK    4  A    between atoms: C_5  and  C_7 
REMARK    5  A    between atoms: C_7  and  C_8 
ROOT
HETATM    1  N   UNL     1     -42.438 -51.466  12.010  1.00  0.00    -0.359 N 
HETATM    2  C   UNL     1     -41.062 -51.370  11.936  1.00  0.00     0.222 C 
HETATM    3  O   UNL     1     -40.317 -52.288  12.274  1.00  0.00    -0.273 OA
HETATM    4  H   UNL     1     -43.012 -50.654  11.833  1.00  0.00     0.162 HD
ENDROOT
BRANCH   1   5
HETATM    5  C   UNL     1     -43.072 -52.664  12.543  1.00  0.00     0.158 C 
BRANCH   5   6
HETATM    6  C   UNL     1     -44.247 -52.364  13.527  1.00  0.00     0.236 C 
HETATM    7  C   UNL     1     -44.197 -50.861  13.874  1.00  0.00     0.044 C 
BRANCH   6   8
HETATM    8  N   UNL     1     -44.210 -53.210  14.756  1.00  0.00     0.098 N 
HETATM    9  C   UNL     1     -44.125 -54.667  14.456  1.00  0.00     0.299 C 
HETATM   10  C   UNL     1     -45.403 -55.254  13.830  1.00  0.00     0.198 C 
HETATM   11  O   UNL     1     -46.541 -55.035  14.675  1.00  0.00    -0.388 OA
HETATM   12  C   UNL     1     -46.702 -53.641  14.968  1.00  0.00     0.198 C 
HETATM   13  C   UNL     1     -45.426 -53.054  15.601  1.00  0.00     0.299 C 
ENDBRANCH   6   8
ENDBRANCH   5   6
ENDBRANCH   1   5
BRANCH   2  14
HETATM   14  C   UNL     1     -40.537 -50.050  11.411  1.00  0.00     0.146 C 
BRANCH  14  15
HETATM   15  C   UNL     1     -39.567 -49.432  12.354  1.00  0.00     0.006 A 
HETATM   16  C   UNL     1     -38.143 -49.410  12.284  1.00  0.00     0.038 A 
HETATM   17  C   UNL     1     -37.236 -49.995  11.266  1.00  0.00     0.071 C 
HETATM   18  N   UNL     1     -37.616 -48.755  13.324  1.00  0.00    -0.265 N 
HETATM   19  O   UNL     1     -38.682 -48.323  14.082  1.00  0.00    -0.242 OA
ATOM     20  HN  UNL     1     -36.626 -48.604  13.516  1.00  0.00     0.194 HD
HETATM   21  C   UNL     1     -39.844 -48.722  13.504  1.00  0.00     0.081 A 
HETATM   22  C   UNL     1     -41.083 -48.319  14.194  1.00  0.00     0.079 C 
ENDBRANCH  14  15
ENDBRANCH   2  14
TORSDOF 5
ENDMDL
MODEL 7
REMARK VINA RESULT:      -5.5      2.329      7.583
REMARK  5 active torsions:
REMARK  status: ('A' for Active; 'I' for Inactive)
REMARK    1  A    between atoms: C_2  and  C_3 
REMARK    2  A    between atoms: C_2  and  N_16 
REMARK    3  A    between atoms: C_3  and  N_4 
REMARK       I    between atoms: N_4  and  C_5 
REMARK    4  A    between atoms: C_5  and  C_7 
REMARK    5  A    between atoms: C_7  and  C_8 
ROOT
HETATM    1  N   UNL     1     -43.017 -48.996  11.920  1.00  0.00    -0.359 N 
HETATM    2  C   UNL     1     -42.392 -50.136  12.387  1.00  0.00     0.222 C 
HETATM    3  O   UNL     1     -41.344 -50.560  11.903  1.00  0.00    -0.273 OA
HETATM    4  H   UNL     1     -43.932 -48.744  12.264  1.00  0.00     0.162 HD
ENDROOT
BRANCH   1   5
HETATM    5  C   UNL     1     -42.474 -48.262  10.786  1.00  0.00     0.158 C 
BRANCH   5   6
HETATM    6  C   UNL     1     -41.926 -46.849  11.160  1.00  0.00     0.236 C 
HETATM    7  C   UNL     1     -42.747 -45.804  10.374  1.00  0.00     0.044 C 
BRANCH   6   8
HETATM    8  N   UNL     1     -40.464 -46.701  10.901  1.00  0.00     0.098 N 
HETATM    9  C   UNL     1     -39.629 -47.588  11.760  1.00  0.00     0.299 C 
HETATM   10  C   UNL     1     -39.625 -47.195  13.248  1.00  0.00     0.198 C 
HETATM   11  O   UNL     1     -39.174 -45.844  13.426  1.00  0.00    -0.388 OA
HETATM   12  C   UNL     1     -39.967 -44.934  12.653  1.00  0.00     0.198 C 
HETATM   13  C   UNL     1     -39.968 -45.321  11.163  1.00  0.00     0.299 C 
ENDBRANCH   6   8
ENDBRANCH   5   6
ENDBRANCH   1   5
BRANCH   2  14
HETATM   14  C   UNL     1     -43.093 -50.828  13.537  1.00  0.00     0.146 C 
BRANCH  14  15
HETATM   15  C   UNL     1     -43.730 -52.101  13.104  1.00  0.00     0.006 A 
HETATM   16  C   UNL     1     -43.128 -53.377  12.902  1.00  0.00     0.038 A 
HETATM   17  C   UNL     1     -41.712 -53.792  13.057  1.00  0.00     0.071 C 
HETATM   18  N   UNL     1     -44.030 -54.282  12.508  1.00  0.00    -0.265 N 
HETATM   19  O   UNL     1     -45.238 -53.622  12.463  1.00  0.00    -0.242 OA
ATOM     20  HN  UNL     1     -43.859 -55.263  12.288  1.00  0.00     0.194 HD
HETATM   21  C   UNL     1     -45.062 -52.325  12.821  1.00  0.00     0.081 A 
HETATM   22  C   UNL     1     -46.274 -51.486  12.837  1.00  0.00     0.079 C 
ENDBRANCH  14  15
ENDBRANCH   2  14
TORSDOF 5
ENDMDL
MODEL 8
REMARK VINA RESULT:      -5.4      1.994      7.499
REMARK  5 active torsions:
REMARK  status: ('A' for Active; 'I' for Inactive)
REMARK    1  A    between atoms: C_2  and  C_3 
REMARK    2  A    between atoms: C_2  and  N_16 
REMARK    3  A    between atoms: C_3  and  N_4 
REMARK       I    between atoms: N_4  and  C_5 
REMARK    4  A    between atoms: C_5  and  C_7 
REMARK    5  A    between atoms: C_7  and  C_8 
ROOT
HETATM    1  N   UNL     1     -42.343 -49.936  12.150  1.00  0.00    -0.359 N 
HETATM    2  C   UNL     1     -42.004 -50.496  13.366  1.00  0.00     0.222 C 
HETATM    3  O   UNL     1     -40.849 -50.505  13.790  1.00  0.00    -0.273 OA
HETATM    4  H   UNL     1     -43.278 -50.049  11.784  1.00  0.00     0.162 HD
ENDROOT
BRANCH   1   5
HETATM    5  C   UNL     1     -41.321 -49.364  11.284  1.00  0.00     0.158 C 
BRANCH   5   6
HETATM    6  C   UNL     1     -41.280 -47.804  11.312  1.00  0.00     0.236 C 
HETATM    7  C   UNL     1     -40.197 -47.381  12.326  1.00  0.00     0.044 C 
BRANCH   6   8
HETATM    8  N   UNL     1     -42.601 -47.189  11.635  1.00  0.00     0.098 N 
HETATM    9  C   UNL     1     -43.539 -47.186  10.478  1.00  0.00     0.299 C 
HETATM   10  C   UNL     1     -43.130 -46.230   9.342  1.00  0.00     0.198 C 
HETATM   11  O   UNL     1     -43.002 -44.884   9.819  1.00  0.00    -0.388 OA
HETATM   12  C   UNL     1     -42.077 -44.814  10.913  1.00  0.00     0.198 C 
HETATM   13  C   UNL     1     -42.488 -45.764  12.052  1.00  0.00     0.299 C 
ENDBRANCH   6   8
ENDBRANCH   5   6
ENDBRANCH   1   5
BRANCH   2  14
HETATM   14  C   UNL     1     -43.157 -51.101  14.139  1.00  0.00     0.146 C 
BRANCH  14  15
HETATM   15  C   UNL     1     -43.770 -52.241  13.407  1.00  0.00     0.006 A 
HETATM   16  C   UNL     1     -43.169 -53.470  13.004  1.00  0.00     0.038 A 
HETATM   17  C   UNL     1     -41.779 -53.951  13.192  1.00  0.00     0.071 C 
HETATM   18  N   UNL     1     -44.046 -54.250  12.362  1.00  0.00    -0.265 N 
HETATM   19  O   UNL     1     -45.235 -53.557  12.347  1.00  0.00    -0.242 OA
ATOM     20  HN  UNL     1     -43.869 -55.172  11.963  1.00  0.00     0.194 HD
HETATM   21  C   UNL     1     -45.074 -52.363  12.973  1.00  0.00     0.081 A 
HETATM   22  C   UNL     1     -46.271 -51.507  13.055  1.00  0.00     0.079 C 
ENDBRANCH  14  15
ENDBRANCH   2  14
TORSDOF 5
ENDMDL
MODEL 9
REMARK VINA RESULT:      -5.4      3.154      7.043
REMARK  5 active torsions:
REMARK  status: ('A' for Active; 'I' for Inactive)
REMARK    1  A    between atoms: C_2  and  C_3 
REMARK    2  A    between atoms: C_2  and  N_16 
REMARK    3  A    between atoms: C_3  and  N_4 
REMARK       I    between atoms: N_4  and  C_5 
REMARK    4  A    between atoms: C_5  and  C_7 
REMARK    5  A    between atoms: C_7  and  C_8 
ROOT
HETATM    1  N   UNL     1     -42.735 -52.478  11.932  1.00  0.00    -0.359 N 
HETATM    2  C   UNL     1     -43.078 -53.485  12.813  1.00  0.00     0.222 C 
HETATM    3  O   UNL     1     -42.253 -54.033  13.543  1.00  0.00    -0.273 OA
HETATM    4  H   UNL     1     -43.415 -52.133  11.270  1.00  0.00     0.162 HD
ENDROOT
BRANCH   1   5
HETATM    5  C   UNL     1     -41.351 -52.047  11.796  1.00  0.00     0.158 C 
BRANCH   5   6
HETATM    6  C   UNL     1     -41.082 -50.617  12.363  1.00  0.00     0.236 C 
HETATM    7  C   UNL     1     -42.434 -49.875  12.422  1.00  0.00     0.044 C 
BRANCH   6   8
HETATM    8  N   UNL     1     -40.075 -49.854  11.570  1.00  0.00     0.098 N 
HETATM    9  C   UNL     1     -38.683 -50.350  11.768  1.00  0.00     0.299 C 
HETATM   10  C   UNL     1     -38.112 -50.069  13.170  1.00  0.00     0.198 C 
HETATM   11  O   UNL     1     -38.135 -48.666  13.467  1.00  0.00    -0.388 OA
HETATM   12  C   UNL     1     -39.460 -48.135  13.333  1.00  0.00     0.198 C 
HETATM   13  C   UNL     1     -40.031 -48.410  11.930  1.00  0.00     0.299 C 
ENDBRANCH   6   8
ENDBRANCH   5   6
ENDBRANCH   1   5
BRANCH   2  14
HETATM   14  C   UNL     1     -44.543 -53.868  12.814  1.00  0.00     0.146 C 
BRANCH  14  15
HETATM   15  C   UNL     1     -45.376 -52.844  13.499  1.00  0.00     0.006 A 
HETATM   16  C   UNL     1     -45.366 -52.456  14.871  1.00  0.00     0.038 A 
HETATM   17  C   UNL     1     -44.536 -52.961  15.992  1.00  0.00     0.071 C 
HETATM   18  N   UNL     1     -46.267 -51.497  15.110  1.00  0.00    -0.265 N 
HETATM   19  O   UNL     1     -46.870 -51.229  13.901  1.00  0.00    -0.242 OA
ATOM     20  HN  UNL     1     -46.467 -51.054  16.007  1.00  0.00     0.194 HD
HETATM   21  C   UNL     1     -46.338 -52.027  12.941  1.00  0.00     0.081 A 
HETATM   22  C   UNL     1     -46.872 -51.847  11.579  1.00  0.00     0.079 C 
ENDBRANCH  14  15
ENDBRANCH   2  14
TORSDOF 5
ENDMDL
