MODEL 1
REMARK VINA RESULT:      -6.3      0.000      0.000
REMARK  4 active torsions:
REMARK  status: ('A' for Active; 'I' for Inactive)
REMARK    1  A    between atoms: C_8  and  N_9 
REMARK       I    between atoms: N_9  and  C_10 
REMARK       I    between atoms: C_10  and  N_12 
REMARK    2  A    between atoms: N_12  and  C_13 
REMARK    3  A    between atoms: C_13  and  C_14 
REMARK    4  A    between atoms: C_14  and  N_15 
ROOT
HETATM    1  N   UNL     1     -41.785 -52.764  11.983  1.00  0.00    -0.295 N 
HETATM    2  C   UNL     1     -41.399 -51.461  12.196  1.00  0.00     0.321 C 
HETATM    3  O   UNL     1     -41.486 -50.823  13.239  1.00  0.00    -0.247 OA
HETATM    4  N   UNL     1     -40.862 -50.876  11.053  1.00  0.00    -0.341 N 
HETATM    5  H   UNL     1     -41.792 -53.106  11.036  1.00  0.00     0.172 HD
HETATM    6  H   UNL     1     -40.329 -51.505  10.471  1.00  0.00     0.164 HD
ENDROOT
BRANCH   1   7
HETATM    7  C   UNL     1     -42.331 -53.582  12.989  1.00  0.00     0.109 A 
HETATM    8  N   UNL     1     -41.552 -53.997  14.000  1.00  0.00    -0.346 N 
HETATM    9  C   UNL     1     -42.080 -54.751  14.986  1.00  0.00     0.007 A 
ATOM     10  HN  UNL     1     -40.565 -53.743  14.024  1.00  0.00     0.167 HD
HETATM   11  C   UNL     1     -43.409 -55.143  14.983  1.00  0.00     0.031 A 
HETATM   12  C   UNL     1     -41.146 -55.127  16.091  1.00  0.00     0.068 C 
HETATM   13  C   UNL     1     -44.225 -54.737  13.925  1.00  0.00    -0.057 A 
HETATM   14  C   UNL     1     -45.668 -55.144  13.879  1.00  0.00     0.048 C 
HETATM   15  C   UNL     1     -43.672 -53.940  12.912  1.00  0.00     0.055 A 
ENDBRANCH   1   7
BRANCH   4  16
HETATM   16  C   UNL     1     -40.321 -49.535  11.241  1.00  0.00     0.154 C 
BRANCH  16  17
HETATM   17  C   UNL     1     -41.248 -48.394  10.791  1.00  0.00     0.292 C 
BRANCH  17  18
HETATM   18  N   UNL     1     -41.350 -47.295  11.775  1.00  0.00     0.094 N 
HETATM   19  C   UNL     1     -42.573 -46.488  11.566  1.00  0.00     0.298 C 
HETATM   20  C   UNL     1     -42.506 -45.559  10.338  1.00  0.00     0.198 C 
HETATM   21  O   UNL     1     -41.347 -44.717  10.360  1.00  0.00    -0.388 OA
HETATM   22  C   UNL     1     -40.146 -45.487  10.500  1.00  0.00     0.198 C 
HETATM   23  C   UNL     1     -40.199 -46.360  11.762  1.00  0.00     0.298 C 
ENDBRANCH  17  18
ENDBRANCH  16  17
ENDBRANCH   4  16
TORSDOF 4
ENDMDL
MODEL 2
REMARK VINA RESULT:      -6.3      1.860      7.676
REMARK  4 active torsions:
REMARK  status: ('A' for Active; 'I' for Inactive)
REMARK    1  A    between atoms: C_8  and  N_9 
REMARK       I    between atoms: N_9  and  C_10 
REMARK       I    between atoms: C_10  and  N_12 
REMARK    2  A    between atoms: N_12  and  C_13 
REMARK    3  A    between atoms: C_13  and  C_14 
REMARK    4  A    between atoms: C_14  and  N_15 
ROOT
HETATM    1  N   UNL     1     -41.037 -49.598  10.550  1.00  0.00    -0.295 N 
HETATM    2  C   UNL     1     -41.030 -50.306  11.730  1.00  0.00     0.321 C 
HETATM    3  O   UNL     1     -41.252 -49.873  12.855  1.00  0.00    -0.247 OA
HETATM    4  N   UNL     1     -40.729 -51.651  11.537  1.00  0.00    -0.341 N 
HETATM    5  H   UNL     1     -40.689 -50.054   9.723  1.00  0.00     0.172 HD
HETATM    6  H   UNL     1     -41.089 -52.042  10.679  1.00  0.00     0.164 HD
ENDROOT
BRANCH   1   7
HETATM    7  C   UNL     1     -41.341 -48.227  10.473  1.00  0.00     0.109 A 
HETATM    8  N   UNL     1     -40.497 -47.330  11.007  1.00  0.00    -0.346 N 
HETATM    9  C   UNL     1     -40.767 -46.013  10.903  1.00  0.00     0.007 A 
ATOM     10  HN  UNL     1     -39.655 -47.643  11.488  1.00  0.00     0.167 HD
HETATM   11  C   UNL     1     -41.912 -45.541  10.282  1.00  0.00     0.031 A 
HETATM   12  C   UNL     1     -39.746 -45.090  11.489  1.00  0.00     0.068 C 
HETATM   13  C   UNL     1     -42.809 -46.465   9.742  1.00  0.00    -0.057 A 
HETATM   14  C   UNL     1     -44.064 -45.997   9.066  1.00  0.00     0.048 C 
HETATM   15  C   UNL     1     -42.513 -47.832   9.840  1.00  0.00     0.055 A 
ENDBRANCH   1   7
BRANCH   4  16
HETATM   16  C   UNL     1     -40.824 -52.483  12.731  1.00  0.00     0.154 C 
BRANCH  16  17
HETATM   17  C   UNL     1     -42.086 -53.356  12.814  1.00  0.00     0.292 C 
BRANCH  17  18
HETATM   18  N   UNL     1     -43.041 -52.915  13.852  1.00  0.00     0.094 N 
HETATM   19  C   UNL     1     -43.682 -54.065  14.528  1.00  0.00     0.298 C 
HETATM   20  C   UNL     1     -44.744 -54.780  13.669  1.00  0.00     0.198 C 
HETATM   21  O   UNL     1     -45.736 -53.874  13.170  1.00  0.00    -0.388 OA
HETATM   22  C   UNL     1     -45.135 -52.785  12.459  1.00  0.00     0.198 C 
HETATM   23  C   UNL     1     -44.127 -52.041  13.347  1.00  0.00     0.298 C 
ENDBRANCH  17  18
ENDBRANCH  16  17
ENDBRANCH   4  16
TORSDOF 4
ENDMDL
MODEL 3
REMARK VINA RESULT:      -6.2      1.191      2.296
REMARK  4 active torsions:
REMARK  status: ('A' for Active; 'I' for Inactive)
REMARK    1  A    between atoms: C_8  and  N_9 
REMARK       I    between atoms: N_9  and  C_10 
REMARK       I    between atoms: C_10  and  N_12 
REMARK    2  A    between atoms: N_12  and  C_13 
REMARK    3  A    between atoms: C_13  and  C_14 
REMARK    4  A    between atoms: C_14  and  N_15 
ROOT
HETATM    1  N   UNL     1     -41.487 -52.474  12.140  1.00  0.00    -0.295 N 
HETATM    2  C   UNL     1     -41.613 -51.104  12.177  1.00  0.00     0.321 C 
HETATM    3  O   UNL     1     -42.243 -50.439  12.991  1.00  0.00    -0.247 OA
HETATM    4  N   UNL     1     -40.919 -50.483  11.142  1.00  0.00    -0.341 N 
HETATM    5  H   UNL     1     -41.063 -52.888  11.327  1.00  0.00     0.172 HD
HETATM    6  H   UNL     1     -40.055 -50.935  10.886  1.00  0.00     0.164 HD
ENDROOT
BRANCH   1   7
HETATM    7  C   UNL     1     -42.069 -53.328  13.094  1.00  0.00     0.109 A 
HETATM    8  N   UNL     1     -43.376 -53.624  13.009  1.00  0.00    -0.346 N 
HETATM    9  C   UNL     1     -43.929 -54.472  13.899  1.00  0.00     0.007 A 
ATOM     10  HN  UNL     1     -43.947 -53.209  12.273  1.00  0.00     0.167 HD
HETATM   11  C   UNL     1     -43.199 -55.039  14.931  1.00  0.00     0.031 A 
HETATM   12  C   UNL     1     -45.380 -54.774  13.696  1.00  0.00     0.068 C 
HETATM   13  C   UNL     1     -41.844 -54.722  15.044  1.00  0.00    -0.057 A 
HETATM   14  C   UNL     1     -41.017 -55.309  16.150  1.00  0.00     0.048 C 
HETATM   15  C   UNL     1     -41.272 -53.852  14.105  1.00  0.00     0.055 A 
ENDBRANCH   1   7
BRANCH   4  16
HETATM   16  C   UNL     1     -40.911 -49.025  11.191  1.00  0.00     0.154 C 
BRANCH  16  17
HETATM   17  C   UNL     1     -41.834 -48.338  10.173  1.00  0.00     0.292 C 
BRANCH  17  18
HETATM   18  N   UNL     1     -43.007 -47.681  10.789  1.00  0.00     0.094 N 
HETATM   19  C   UNL     1     -44.030 -47.332   9.778  1.00  0.00     0.298 C 
HETATM   20  C   UNL     1     -43.651 -46.123   8.899  1.00  0.00     0.198 C 
HETATM   21  O   UNL     1     -43.303 -44.973   9.681  1.00  0.00    -0.388 OA
HETATM   22  C   UNL     1     -42.269 -45.279  10.625  1.00  0.00     0.198 C 
HETATM   23  C   UNL     1     -42.686 -46.442  11.537  1.00  0.00     0.298 C 
ENDBRANCH  17  18
ENDBRANCH  16  17
ENDBRANCH   4  16
TORSDOF 4
ENDMDL
MODEL 4
REMARK VINA RESULT:      -6.1      2.910      6.898
REMARK  4 active torsions:
REMARK  status: ('A' for Active; 'I' for Inactive)
REMARK    1  A    between atoms: C_8  and  N_9 
REMARK       I    between atoms: N_9  and  C_10 
REMARK       I    between atoms: C_10  and  N_12 
REMARK    2  A    between atoms: N_12  and  C_13 
REMARK    3  A    between atoms: C_13  and  C_14 
REMARK    4  A    between atoms: C_14  and  N_15 
ROOT
HETATM    1  N   UNL     1     -41.718 -51.483  11.473  1.00  0.00    -0.295 N 
HETATM    2  C   UNL     1     -42.222 -52.372  12.395  1.00  0.00     0.321 C 
HETATM    3  O   UNL     1     -41.807 -52.577  13.530  1.00  0.00    -0.247 OA
HETATM    4  N   UNL     1     -43.319 -53.074  11.905  1.00  0.00    -0.341 N 
HETATM    5  H   UNL     1     -42.066 -51.532  10.530  1.00  0.00     0.172 HD
HETATM    6  H   UNL     1     -43.917 -52.543  11.291  1.00  0.00     0.164 HD
ENDROOT
BRANCH   1   7
HETATM    7  C   UNL     1     -40.628 -50.634  11.735  1.00  0.00     0.109 A 
HETATM    8  N   UNL     1     -39.453 -51.161  12.115  1.00  0.00    -0.346 N 
HETATM    9  C   UNL     1     -38.396 -50.352  12.332  1.00  0.00     0.007 A 
ATOM     10  HN  UNL     1     -39.361 -52.168  12.240  1.00  0.00     0.167 HD
HETATM   11  C   UNL     1     -38.481 -48.976  12.201  1.00  0.00     0.031 A 
HETATM   12  C   UNL     1     -37.120 -51.035  12.710  1.00  0.00     0.068 C 
HETATM   13  C   UNL     1     -39.703 -48.413  11.827  1.00  0.00    -0.057 A 
HETATM   14  C   UNL     1     -39.840 -46.927  11.680  1.00  0.00     0.048 C 
HETATM   15  C   UNL     1     -40.793 -49.262  11.589  1.00  0.00     0.055 A 
ENDBRANCH   1   7
BRANCH   4  16
HETATM   16  C   UNL     1     -43.976 -53.946  12.872  1.00  0.00     0.154 C 
BRANCH  16  17
HETATM   17  C   UNL     1     -45.398 -53.517  13.268  1.00  0.00     0.292 C 
BRANCH  17  18
HETATM   18  N   UNL     1     -45.654 -53.593  14.723  1.00  0.00     0.094 N 
HETATM   19  C   UNL     1     -46.949 -52.973  15.082  1.00  0.00     0.298 C 
HETATM   20  C   UNL     1     -46.938 -51.433  15.031  1.00  0.00     0.198 C 
HETATM   21  O   UNL     1     -45.878 -50.873  15.817  1.00  0.00    -0.388 OA
HETATM   22  C   UNL     1     -44.608 -51.418  15.440  1.00  0.00     0.198 C 
HETATM   23  C   UNL     1     -44.612 -52.949  15.557  1.00  0.00     0.298 C 
ENDBRANCH  17  18
ENDBRANCH  16  17
ENDBRANCH   4  16
TORSDOF 4
ENDMDL
MODEL 5
REMARK VINA RESULT:      -6.1      1.880      7.935
REMARK  4 active torsions:
REMARK  status: ('A' for Active; 'I' for Inactive)
REMARK    1  A    between atoms: C_8  and  N_9 
REMARK       I    between atoms: N_9  and  C_10 
REMARK       I    between atoms: C_10  and  N_12 
REMARK    2  A    between atoms: N_12  and  C_13 
REMARK    3  A    between atoms: C_13  and  C_14 
REMARK    4  A    between atoms: C_14  and  N_15 
ROOT
HETATM    1  N   UNL     1     -40.927 -49.463  10.602  1.00  0.00    -0.295 N 
HETATM    2  C   UNL     1     -40.887 -50.116  11.812  1.00  0.00     0.321 C 
HETATM    3  O   UNL     1     -41.354 -49.732  12.878  1.00  0.00    -0.247 OA
HETATM    4  N   UNL     1     -40.225 -51.339  11.730  1.00  0.00    -0.341 N 
HETATM    5  H   UNL     1     -40.370 -49.830   9.848  1.00  0.00     0.172 HD
HETATM    6  H   UNL     1     -40.360 -51.830  10.859  1.00  0.00     0.164 HD
ENDROOT
BRANCH   1   7
HETATM    7  C   UNL     1     -41.563 -48.223  10.415  1.00  0.00     0.109 A 
HETATM    8  N   UNL     1     -42.801 -48.184   9.897  1.00  0.00    -0.346 N 
HETATM    9  C   UNL     1     -43.429 -47.000   9.751  1.00  0.00     0.007 A 
ATOM     10  HN  UNL     1     -43.265 -49.048   9.616  1.00  0.00     0.167 HD
HETATM   11  C   UNL     1     -42.829 -45.800  10.094  1.00  0.00     0.031 A 
HETATM   12  C   UNL     1     -44.821 -47.064   9.206  1.00  0.00     0.068 C 
HETATM   13  C   UNL     1     -41.534 -45.823  10.613  1.00  0.00    -0.057 A 
HETATM   14  C   UNL     1     -40.844 -44.546  10.992  1.00  0.00     0.048 C 
HETATM   15  C   UNL     1     -40.893 -47.060  10.777  1.00  0.00     0.055 A 
ENDBRANCH   1   7
BRANCH   4  16
HETATM   16  C   UNL     1     -40.252 -52.138  12.949  1.00  0.00     0.154 C 
BRANCH  16  17
HETATM   17  C   UNL     1     -41.397 -53.160  13.028  1.00  0.00     0.292 C 
BRANCH  17  18
HETATM   18  N   UNL     1     -42.514 -52.729  13.896  1.00  0.00     0.094 N 
HETATM   19  C   UNL     1     -42.654 -53.605  15.081  1.00  0.00     0.298 C 
HETATM   20  C   UNL     1     -43.260 -54.986  14.766  1.00  0.00     0.198 C 
HETATM   21  O   UNL     1     -44.507 -54.884  14.067  1.00  0.00    -0.388 OA
HETATM   22  C   UNL     1     -44.376 -54.088  12.883  1.00  0.00     0.198 C 
HETATM   23  C   UNL     1     -43.831 -52.692  13.219  1.00  0.00     0.298 C 
ENDBRANCH  17  18
ENDBRANCH  16  17
ENDBRANCH   4  16
TORSDOF 4
ENDMDL
MODEL 6
REMARK VINA RESULT:      -6.0      1.724      2.944
REMARK  4 active torsions:
REMARK  status: ('A' for Active; 'I' for Inactive)
REMARK    1  A    between atoms: C_8  and  N_9 
REMARK       I    between atoms: N_9  and  C_10 
REMARK       I    between atoms: C_10  and  N_12 
REMARK    2  A    between atoms: N_12  and  C_13 
REMARK    3  A    between atoms: C_13  and  C_14 
REMARK    4  A    between atoms: C_14  and  N_15 
ROOT
HETATM    1  N   UNL     1     -40.963 -51.040  11.246  1.00  0.00    -0.295 N 
HETATM    2  C   UNL     1     -41.482 -49.774  11.392  1.00  0.00     0.321 C 
HETATM    3  O   UNL     1     -42.319 -49.406  12.208  1.00  0.00    -0.247 OA
HETATM    4  N   UNL     1     -40.945 -48.875  10.475  1.00  0.00    -0.341 N 
HETATM    5  H   UNL     1     -40.396 -51.228  10.436  1.00  0.00     0.172 HD
HETATM    6  H   UNL     1     -39.975 -49.034  10.250  1.00  0.00     0.164 HD
ENDROOT
BRANCH   1   7
HETATM    7  C   UNL     1     -41.321 -52.121  12.070  1.00  0.00     0.109 A 
HETATM    8  N   UNL     1     -42.594 -52.547  12.090  1.00  0.00    -0.346 N 
HETATM    9  C   UNL     1     -42.934 -53.606  12.851  1.00  0.00     0.007 A 
ATOM     10  HN  UNL     1     -43.302 -52.070  11.531  1.00  0.00     0.167 HD
HETATM   11  C   UNL     1     -42.014 -54.268  13.647  1.00  0.00     0.031 A 
HETATM   12  C   UNL     1     -44.366 -54.033  12.774  1.00  0.00     0.068 C 
HETATM   13  C   UNL     1     -40.691 -53.823  13.653  1.00  0.00    -0.057 A 
HETATM   14  C   UNL     1     -39.663 -54.507  14.505  1.00  0.00     0.048 C 
HETATM   15  C   UNL     1     -40.342 -52.730  12.846  1.00  0.00     0.055 A 
ENDBRANCH   1   7
BRANCH   4  16
HETATM   16  C   UNL     1     -41.362 -47.488  10.653  1.00  0.00     0.154 C 
BRANCH  16  17
HETATM   17  C   UNL     1     -40.328 -46.585  11.343  1.00  0.00     0.292 C 
BRANCH  17  18
HETATM   18  N   UNL     1     -40.884 -45.803  12.467  1.00  0.00     0.094 N 
HETATM   19  C   UNL     1     -41.567 -44.578  11.994  1.00  0.00     0.298 C 
HETATM   20  C   UNL     1     -40.605 -43.468  11.528  1.00  0.00     0.198 C 
HETATM   21  O   UNL     1     -39.627 -43.145  12.525  1.00  0.00    -0.388 OA
HETATM   22  C   UNL     1     -38.913 -44.313  12.951  1.00  0.00     0.198 C 
HETATM   23  C   UNL     1     -39.879 -45.385  13.474  1.00  0.00     0.298 C 
ENDBRANCH  17  18
ENDBRANCH  16  17
ENDBRANCH   4  16
TORSDOF 4
ENDMDL
MODEL 7
REMARK VINA RESULT:      -6.0      1.408      2.111
REMARK  4 active torsions:
REMARK  status: ('A' for Active; 'I' for Inactive)
REMARK    1  A    between atoms: C_8  and  N_9 
REMARK       I    between atoms: N_9  and  C_10 
REMARK       I    between atoms: C_10  and  N_12 
REMARK    2  A    between atoms: N_12  and  C_13 
REMARK    3  A    between atoms: C_13  and  C_14 
REMARK    4  A    between atoms: C_14  and  N_15 
ROOT
HETATM    1  N   UNL     1     -40.980 -51.174  11.535  1.00  0.00    -0.295 N 
HETATM    2  C   UNL     1     -40.441 -50.035  12.088  1.00  0.00     0.321 C 
HETATM    3  O   UNL     1     -40.238 -49.811  13.275  1.00  0.00    -0.247 OA
HETATM    4  N   UNL     1     -40.119 -49.083  11.124  1.00  0.00    -0.341 N 
HETATM    5  H   UNL     1     -41.226 -51.156  10.559  1.00  0.00     0.172 HD
HETATM    6  H   UNL     1     -39.786 -49.466  10.252  1.00  0.00     0.164 HD
ENDROOT
BRANCH   1   7
HETATM    7  C   UNL     1     -41.361 -52.295  12.295  1.00  0.00     0.109 A 
HETATM    8  N   UNL     1     -40.436 -52.961  13.004  1.00  0.00    -0.346 N 
HETATM    9  C   UNL     1     -40.804 -54.013  13.763  1.00  0.00     0.007 A 
ATOM     10  HN  UNL     1     -39.459 -52.672  12.969  1.00  0.00     0.167 HD
HETATM   11  C   UNL     1     -42.114 -54.458  13.821  1.00  0.00     0.031 A 
HETATM   12  C   UNL     1     -39.710 -54.663  14.550  1.00  0.00     0.068 C 
HETATM   13  C   UNL     1     -43.083 -53.788  13.071  1.00  0.00    -0.057 A 
HETATM   14  C   UNL     1     -44.513 -54.241  13.100  1.00  0.00     0.048 C 
HETATM   15  C   UNL     1     -42.695 -52.685  12.297  1.00  0.00     0.055 A 
ENDBRANCH   1   7
BRANCH   4  16
HETATM   16  C   UNL     1     -39.432 -47.901  11.629  1.00  0.00     0.154 C 
BRANCH  16  17
HETATM   17  C   UNL     1     -40.303 -46.638  11.727  1.00  0.00     0.292 C 
BRANCH  17  18
HETATM   18  N   UNL     1     -40.593 -46.018  10.417  1.00  0.00     0.094 N 
HETATM   19  C   UNL     1     -39.787 -44.795  10.203  1.00  0.00     0.298 C 
HETATM   20  C   UNL     1     -40.263 -43.583  11.028  1.00  0.00     0.198 C 
HETATM   21  O   UNL     1     -41.656 -43.308  10.833  1.00  0.00    -0.388 OA
HETATM   22  C   UNL     1     -42.457 -44.467  11.095  1.00  0.00     0.198 C 
HETATM   23  C   UNL     1     -42.014 -45.648  10.220  1.00  0.00     0.298 C 
ENDBRANCH  17  18
ENDBRANCH  16  17
ENDBRANCH   4  16
TORSDOF 4
ENDMDL
MODEL 8
REMARK VINA RESULT:      -5.9      1.252      2.230
REMARK  4 active torsions:
REMARK  status: ('A' for Active; 'I' for Inactive)
REMARK    1  A    between atoms: C_8  and  N_9 
REMARK       I    between atoms: N_9  and  C_10 
REMARK       I    between atoms: C_10  and  N_12 
REMARK    2  A    between atoms: N_12  and  C_13 
REMARK    3  A    between atoms: C_13  and  C_14 
REMARK    4  A    between atoms: C_14  and  N_15 
ROOT
HETATM    1  N   UNL     1     -41.983 -51.908  11.793  1.00  0.00    -0.295 N 
HETATM    2  C   UNL     1     -41.509 -50.646  12.071  1.00  0.00     0.321 C 
HETATM    3  O   UNL     1     -41.854 -49.910  12.988  1.00  0.00    -0.247 OA
HETATM    4  N   UNL     1     -40.536 -50.237  11.163  1.00  0.00    -0.341 N 
HETATM    5  H   UNL     1     -41.715 -52.332  10.920  1.00  0.00     0.172 HD
HETATM    6  H   UNL     1     -39.933 -50.975  10.833  1.00  0.00     0.164 HD
ENDROOT
BRANCH   1   7
HETATM    7  C   UNL     1     -42.949 -52.560  12.579  1.00  0.00     0.109 A 
HETATM    8  N   UNL     1     -44.229 -52.159  12.523  1.00  0.00    -0.346 N 
HETATM    9  C   UNL     1     -45.165 -52.805  13.247  1.00  0.00     0.007 A 
ATOM     10  HN  UNL     1     -44.493 -51.370  11.934  1.00  0.00     0.167 HD
HETATM   11  C   UNL     1     -44.851 -53.866  14.081  1.00  0.00     0.031 A 
HETATM   12  C   UNL     1     -46.569 -52.315  13.085  1.00  0.00     0.068 C 
HETATM   13  C   UNL     1     -43.519 -54.279  14.166  1.00  0.00    -0.057 A 
HETATM   14  C   UNL     1     -43.134 -55.419  15.061  1.00  0.00     0.048 C 
HETATM   15  C   UNL     1     -42.554 -53.612  13.397  1.00  0.00     0.055 A 
ENDBRANCH   1   7
BRANCH   4  16
HETATM   16  C   UNL     1     -39.905 -48.958  11.469  1.00  0.00     0.154 C 
BRANCH  16  17
HETATM   17  C   UNL     1     -40.653 -47.724  10.941  1.00  0.00     0.292 C 
BRANCH  17  18
HETATM   18  N   UNL     1     -40.849 -46.672  11.962  1.00  0.00     0.094 N 
HETATM   19  C   UNL     1     -42.208 -46.091  11.892  1.00  0.00     0.298 C 
HETATM   20  C   UNL     1     -42.422 -45.149  10.691  1.00  0.00     0.198 C 
HETATM   21  O   UNL     1     -41.430 -44.116  10.629  1.00  0.00    -0.388 OA
HETATM   22  C   UNL     1     -40.107 -44.665  10.635  1.00  0.00     0.198 C 
HETATM   23  C   UNL     1     -39.885 -45.549  11.870  1.00  0.00     0.298 C 
ENDBRANCH  17  18
ENDBRANCH  16  17
ENDBRANCH   4  16
TORSDOF 4
ENDMDL
MODEL 9
REMARK VINA RESULT:      -5.9      1.939      8.126
REMARK  4 active torsions:
REMARK  status: ('A' for Active; 'I' for Inactive)
REMARK    1  A    between atoms: C_8  and  N_9 
REMARK       I    between atoms: N_9  and  C_10 
REMARK       I    between atoms: C_10  and  N_12 
REMARK    2  A    between atoms: N_12  and  C_13 
REMARK    3  A    between atoms: C_13  and  C_14 
REMARK    4  A    between atoms: C_14  and  N_15 
ROOT
HETATM    1  N   UNL     1     -40.541 -50.118  11.116  1.00  0.00    -0.295 N 
HETATM    2  C   UNL     1     -41.216 -51.072  11.842  1.00  0.00     0.321 C 
HETATM    3  O   UNL     1     -42.288 -50.942  12.422  1.00  0.00    -0.247 OA
HETATM    4  N   UNL     1     -40.538 -52.288  11.874  1.00  0.00    -0.341 N 
HETATM    5  H   UNL     1     -39.600 -50.324  10.824  1.00  0.00     0.172 HD
HETATM    6  H   UNL     1     -40.040 -52.512  11.025  1.00  0.00     0.164 HD
ENDROOT
BRANCH   1   7
HETATM    7  C   UNL     1     -41.030 -48.815  10.910  1.00  0.00     0.109 A 
HETATM    8  N   UNL     1     -42.264 -48.642  10.410  1.00  0.00    -0.346 N 
HETATM    9  C   UNL     1     -42.750 -47.395  10.246  1.00  0.00     0.007 A 
ATOM     10  HN  UNL     1     -42.831 -49.450  10.156  1.00  0.00     0.167 HD
HETATM   11  C   UNL     1     -42.006 -46.267  10.552  1.00  0.00     0.031 A 
HETATM   12  C   UNL     1     -44.149 -47.305   9.725  1.00  0.00     0.068 C 
HETATM   13  C   UNL     1     -40.713 -46.433  11.051  1.00  0.00    -0.057 A 
HETATM   14  C   UNL     1     -39.872 -45.238  11.390  1.00  0.00     0.048 C 
HETATM   15  C   UNL     1     -40.221 -47.733  11.235  1.00  0.00     0.055 A 
ENDBRANCH   1   7
BRANCH   4  16
HETATM   16  C   UNL     1     -41.255 -53.378  12.525  1.00  0.00     0.154 C 
BRANCH  16  17
HETATM   17  C   UNL     1     -40.689 -53.801  13.890  1.00  0.00     0.292 C 
BRANCH  17  18
HETATM   18  N   UNL     1     -41.515 -53.358  15.034  1.00  0.00     0.094 N 
HETATM   19  C   UNL     1     -41.131 -54.051  16.284  1.00  0.00     0.298 C 
HETATM   20  C   UNL     1     -41.592 -55.520  16.351  1.00  0.00     0.198 C 
HETATM   21  O   UNL     1     -42.999 -55.657  16.112  1.00  0.00    -0.388 OA
HETATM   22  C   UNL     1     -43.379 -55.044  14.874  1.00  0.00     0.198 C 
HETATM   23  C   UNL     1     -42.971 -53.564  14.847  1.00  0.00     0.298 C 
ENDBRANCH  17  18
ENDBRANCH  16  17
ENDBRANCH   4  16
TORSDOF 4
ENDMDL
