MODEL 1
REMARK VINA RESULT:      -6.1      0.000      0.000
REMARK  3 active torsions:
REMARK  status: ('A' for Active; 'I' for Inactive)
REMARK    1  A    between atoms: O_2  and  C_3 
REMARK    2  A    between atoms: C_7  and  N_8 
REMARK       I    between atoms: N_8  and  C_9 
REMARK       I    between atoms: C_9  and  N_11 
REMARK    3  A    between atoms: N_11  and  C_12 
ROOT
HETATM    1  N   UNL     1     -42.449 -48.638  11.030  1.00  0.00    -0.336 N 
HETATM    2  C   UNL     1     -42.574 -49.703  11.893  1.00  0.00     0.322 C 
HETATM    3  O   UNL     1     -43.339 -49.699  12.851  1.00  0.00    -0.247 OA
HETATM    4  N   UNL     1     -41.698 -50.721  11.593  1.00  0.00    -0.295 N 
HETATM    5  H   UNL     1     -42.171 -48.878  10.088  1.00  0.00     0.164 HD
HETATM    6  H   UNL     1     -40.747 -50.408  11.459  1.00  0.00     0.172 HD
ENDROOT
BRANCH   1   7
HETATM    7  C   UNL     1     -43.266 -47.444  11.221  1.00  0.00     0.115 C 
HETATM    8  C   UNL     1     -43.900 -46.854   9.942  1.00  0.00     0.143 C 
HETATM    9  C   UNL     1     -42.782 -46.017   9.319  1.00  0.00     0.034 C 
HETATM   10  C   UNL     1     -41.849 -45.624  10.458  1.00  0.00     0.005 C 
HETATM   11  C   UNL     1     -42.410 -46.277  11.718  1.00  0.00     0.028 C 
BRANCH   8  12
HETATM   12  O   UNL     1     -44.376 -47.771   8.965  1.00  0.00    -0.389 OA
HETATM   13  C   UNL     1     -43.602 -47.809   7.774  1.00  0.00     0.202 C 
ENDBRANCH   8  12
ENDBRANCH   1   7
BRANCH   4  14
HETATM   14  C   UNL     1     -41.760 -51.932  12.300  1.00  0.00     0.109 A 
HETATM   15  C   UNL     1     -40.601 -52.525  12.790  1.00  0.00     0.055 A 
HETATM   16  C   UNL     1     -40.692 -53.743  13.458  1.00  0.00    -0.057 A 
HETATM   17  C   UNL     1     -39.477 -54.416  14.021  1.00  0.00     0.048 C 
HETATM   18  C   UNL     1     -41.949 -54.339  13.574  1.00  0.00     0.031 A 
HETATM   19  C   UNL     1     -43.065 -53.672  13.070  1.00  0.00     0.007 A 
HETATM   20  C   UNL     1     -44.415 -54.323  13.113  1.00  0.00     0.068 C 
HETATM   21  N   UNL     1     -42.991 -52.455  12.476  1.00  0.00    -0.346 N 
ATOM     22  HN  UNL     1     -43.829 -51.958  12.176  1.00  0.00     0.167 HD
ENDBRANCH   4  14
TORSDOF 3
ENDMDL
MODEL 2
REMARK VINA RESULT:      -5.9      3.838      5.787
REMARK  3 active torsions:
REMARK  status: ('A' for Active; 'I' for Inactive)
REMARK    1  A    between atoms: O_2  and  C_3 
REMARK    2  A    between atoms: C_7  and  N_8 
REMARK       I    between atoms: N_8  and  C_9 
REMARK       I    between atoms: C_9  and  N_11 
REMARK    3  A    between atoms: N_11  and  C_12 
ROOT
HETATM    1  N   UNL     1     -40.783 -50.404  13.271  1.00  0.00    -0.336 N 
HETATM    2  C   UNL     1     -42.044 -50.946  13.181  1.00  0.00     0.322 C 
HETATM    3  O   UNL     1     -42.299 -51.935  12.501  1.00  0.00    -0.247 OA
HETATM    4  N   UNL     1     -42.977 -50.212  13.878  1.00  0.00    -0.295 N 
HETATM    5  H   UNL     1     -40.583 -49.922  14.137  1.00  0.00     0.164 HD
HETATM    6  H   UNL     1     -42.939 -49.222  13.682  1.00  0.00     0.172 HD
ENDROOT
BRANCH   1   7
HETATM    7  C   UNL     1     -39.670 -51.021  12.556  1.00  0.00     0.115 C 
HETATM    8  C   UNL     1     -38.565 -51.640  13.442  1.00  0.00     0.143 C 
HETATM    9  C   UNL     1     -37.685 -50.450  13.831  1.00  0.00     0.034 C 
HETATM   10  C   UNL     1     -37.870 -49.400  12.741  1.00  0.00     0.005 C 
HETATM   11  C   UNL     1     -38.890 -49.972  11.761  1.00  0.00     0.028 C 
BRANCH   8  12
HETATM   12  O   UNL     1     -38.975 -52.306  14.629  1.00  0.00    -0.389 OA
HETATM   13  C   UNL     1     -39.461 -53.624  14.419  1.00  0.00     0.202 C 
ENDBRANCH   8  12
ENDBRANCH   1   7
BRANCH   4  14
HETATM   14  C   UNL     1     -44.296 -50.678  13.989  1.00  0.00     0.109 A 
HETATM   15  C   UNL     1     -44.892 -50.822  15.238  1.00  0.00     0.055 A 
HETATM   16  C   UNL     1     -46.191 -51.319  15.316  1.00  0.00    -0.057 A 
HETATM   17  C   UNL     1     -46.885 -51.478  16.635  1.00  0.00     0.048 C 
HETATM   18  C   UNL     1     -46.829 -51.687  14.131  1.00  0.00     0.031 A 
HETATM   19  C   UNL     1     -46.169 -51.496  12.918  1.00  0.00     0.007 A 
HETATM   20  C   UNL     1     -46.799 -51.953  11.636  1.00  0.00     0.068 C 
HETATM   21  N   UNL     1     -44.930 -50.953  12.830  1.00  0.00    -0.346 N 
ATOM     22  HN  UNL     1     -44.496 -50.761  11.927  1.00  0.00     0.167 HD
ENDBRANCH   4  14
TORSDOF 3
ENDMDL
MODEL 3
REMARK VINA RESULT:      -5.8      1.878      7.381
REMARK  3 active torsions:
REMARK  status: ('A' for Active; 'I' for Inactive)
REMARK    1  A    between atoms: O_2  and  C_3 
REMARK    2  A    between atoms: C_7  and  N_8 
REMARK       I    between atoms: N_8  and  C_9 
REMARK       I    between atoms: C_9  and  N_11 
REMARK    3  A    between atoms: N_11  and  C_12 
ROOT
HETATM    1  N   UNL     1     -41.240 -51.283  12.336  1.00  0.00    -0.336 N 
HETATM    2  C   UNL     1     -41.564 -49.952  12.202  1.00  0.00     0.322 C 
HETATM    3  O   UNL     1     -41.877 -49.242  13.152  1.00  0.00    -0.247 OA
HETATM    4  N   UNL     1     -41.565 -49.546  10.887  1.00  0.00    -0.295 N 
HETATM    5  H   UNL     1     -40.601 -51.641  11.639  1.00  0.00     0.164 HD
HETATM    6  H   UNL     1     -42.083 -50.161  10.276  1.00  0.00     0.172 HD
ENDROOT
BRANCH   1   7
HETATM    7  C   UNL     1     -41.234 -51.904  13.657  1.00  0.00     0.115 C 
HETATM    8  C   UNL     1     -40.046 -52.847  13.948  1.00  0.00     0.143 C 
HETATM    9  C   UNL     1     -40.451 -54.173  13.302  1.00  0.00     0.034 C 
HETATM   10  C   UNL     1     -41.975 -54.181  13.248  1.00  0.00     0.005 C 
HETATM   11  C   UNL     1     -42.432 -52.841  13.818  1.00  0.00     0.028 C 
BRANCH   8  12
HETATM   12  O   UNL     1     -38.772 -52.470  13.445  1.00  0.00    -0.389 OA
HETATM   13  C   UNL     1     -38.241 -51.288  14.027  1.00  0.00     0.202 C 
ENDBRANCH   8  12
ENDBRANCH   1   7
BRANCH   4  14
HETATM   14  C   UNL     1     -41.765 -48.194  10.570  1.00  0.00     0.109 A 
HETATM   15  C   UNL     1     -42.939 -47.781   9.947  1.00  0.00     0.055 A 
HETATM   16  C   UNL     1     -43.094 -46.437   9.614  1.00  0.00    -0.057 A 
HETATM   17  C   UNL     1     -44.344 -45.937   8.958  1.00  0.00     0.048 C 
HETATM   18  C   UNL     1     -42.041 -45.564   9.890  1.00  0.00     0.031 A 
HETATM   19  C   UNL     1     -40.904 -46.054  10.531  1.00  0.00     0.007 A 
HETATM   20  C   UNL     1     -39.726 -45.156  10.769  1.00  0.00     0.068 C 
HETATM   21  N   UNL     1     -40.773 -47.348  10.915  1.00  0.00    -0.346 N 
ATOM     22  HN  UNL     1     -39.961 -47.667  11.443  1.00  0.00     0.167 HD
ENDBRANCH   4  14
TORSDOF 3
ENDMDL
MODEL 4
REMARK VINA RESULT:      -5.8      3.425      4.618
REMARK  3 active torsions:
REMARK  status: ('A' for Active; 'I' for Inactive)
REMARK    1  A    between atoms: O_2  and  C_3 
REMARK    2  A    between atoms: C_7  and  N_8 
REMARK       I    between atoms: N_8  and  C_9 
REMARK       I    between atoms: C_9  and  N_11 
REMARK    3  A    between atoms: N_11  and  C_12 
ROOT
HETATM    1  N   UNL     1     -41.033 -49.646  13.714  1.00  0.00    -0.336 N 
HETATM    2  C   UNL     1     -42.408 -49.634  13.756  1.00  0.00     0.322 C 
HETATM    3  O   UNL     1     -43.077 -48.650  13.458  1.00  0.00    -0.247 OA
HETATM    4  N   UNL     1     -42.924 -50.817  14.235  1.00  0.00    -0.295 N 
HETATM    5  H   UNL     1     -40.615 -50.551  13.538  1.00  0.00     0.164 HD
HETATM    6  H   UNL     1     -42.487 -51.130  15.090  1.00  0.00     0.172 HD
ENDROOT
BRANCH   1   7
HETATM    7  C   UNL     1     -40.305 -48.458  13.276  1.00  0.00     0.115 C 
HETATM    8  C   UNL     1     -39.872 -48.447  11.793  1.00  0.00     0.143 C 
HETATM    9  C   UNL     1     -38.584 -49.272  11.771  1.00  0.00     0.034 C 
HETATM   10  C   UNL     1     -37.989 -49.184  13.172  1.00  0.00     0.005 C 
HETATM   11  C   UNL     1     -38.962 -48.350  14.001  1.00  0.00     0.028 C 
BRANCH   8  12
HETATM   12  O   UNL     1     -40.775 -48.995  10.843  1.00  0.00    -0.389 OA
HETATM   13  C   UNL     1     -41.740 -48.073  10.356  1.00  0.00     0.202 C 
ENDBRANCH   8  12
ENDBRANCH   1   7
BRANCH   4  14
HETATM   14  C   UNL     1     -44.312 -51.025  14.244  1.00  0.00     0.109 A 
HETATM   15  C   UNL     1     -45.015 -51.050  15.444  1.00  0.00     0.055 A 
HETATM   16  C   UNL     1     -46.386 -51.292  15.422  1.00  0.00    -0.057 A 
HETATM   17  C   UNL     1     -47.193 -51.312  16.684  1.00  0.00     0.048 C 
HETATM   18  C   UNL     1     -46.993 -51.537  14.190  1.00  0.00     0.031 A 
HETATM   19  C   UNL     1     -46.221 -51.479  13.030  1.00  0.00     0.007 A 
HETATM   20  C   UNL     1     -46.829 -51.814  11.701  1.00  0.00     0.068 C 
HETATM   21  N   UNL     1     -44.898 -51.180  13.039  1.00  0.00    -0.346 N 
ATOM     22  HN  UNL     1     -44.370 -51.076  12.173  1.00  0.00     0.167 HD
ENDBRANCH   4  14
TORSDOF 3
ENDMDL
MODEL 5
REMARK VINA RESULT:      -5.7      1.705      7.084
REMARK  3 active torsions:
REMARK  status: ('A' for Active; 'I' for Inactive)
REMARK    1  A    between atoms: O_2  and  C_3 
REMARK    2  A    between atoms: C_7  and  N_8 
REMARK       I    between atoms: N_8  and  C_9 
REMARK       I    between atoms: C_9  and  N_11 
REMARK    3  A    between atoms: N_11  and  C_12 
ROOT
HETATM    1  N   UNL     1     -41.153 -51.424  12.352  1.00  0.00    -0.336 N 
HETATM    2  C   UNL     1     -41.745 -50.213  12.073  1.00  0.00     0.322 C 
HETATM    3  O   UNL     1     -42.705 -49.779  12.701  1.00  0.00    -0.247 OA
HETATM    4  N   UNL     1     -41.183 -49.600  10.977  1.00  0.00    -0.295 N 
HETATM    5  H   UNL     1     -40.171 -51.486  12.118  1.00  0.00     0.164 HD
HETATM    6  H   UNL     1     -41.092 -50.209  10.177  1.00  0.00     0.172 HD
ENDROOT
BRANCH   1   7
HETATM    7  C   UNL     1     -41.649 -52.242  13.454  1.00  0.00     0.115 C 
HETATM    8  C   UNL     1     -40.761 -52.273  14.718  1.00  0.00     0.143 C 
HETATM    9  C   UNL     1     -39.687 -53.315  14.398  1.00  0.00     0.034 C 
HETATM   10  C   UNL     1     -40.291 -54.254  13.360  1.00  0.00     0.005 C 
HETATM   11  C   UNL     1     -41.687 -53.719  13.056  1.00  0.00     0.028 C 
BRANCH   8  12
HETATM   12  O   UNL     1     -40.118 -51.064  15.096  1.00  0.00    -0.389 OA
HETATM   13  C   UNL     1     -38.702 -51.097  14.987  1.00  0.00     0.202 C 
ENDBRANCH   8  12
ENDBRANCH   1   7
BRANCH   4  14
HETATM   14  C   UNL     1     -41.587 -48.306  10.612  1.00  0.00     0.109 A 
HETATM   15  C   UNL     1     -40.799 -47.204  10.928  1.00  0.00     0.055 A 
HETATM   16  C   UNL     1     -41.244 -45.930  10.582  1.00  0.00    -0.057 A 
HETATM   17  C   UNL     1     -40.426 -44.711  10.882  1.00  0.00     0.048 C 
HETATM   18  C   UNL     1     -42.489 -45.812   9.962  1.00  0.00     0.031 A 
HETATM   19  C   UNL     1     -43.211 -46.968   9.666  1.00  0.00     0.007 A 
HETATM   20  C   UNL     1     -44.584 -46.867   9.071  1.00  0.00     0.068 C 
HETATM   21  N   UNL     1     -42.754 -48.214   9.942  1.00  0.00    -0.346 N 
ATOM     22  HN  UNL     1     -43.270 -49.046   9.654  1.00  0.00     0.167 HD
ENDBRANCH   4  14
TORSDOF 3
ENDMDL
MODEL 6
REMARK VINA RESULT:      -5.3      1.699      7.049
REMARK  3 active torsions:
REMARK  status: ('A' for Active; 'I' for Inactive)
REMARK    1  A    between atoms: O_2  and  C_3 
REMARK    2  A    between atoms: C_7  and  N_8 
REMARK       I    between atoms: N_8  and  C_9 
REMARK       I    between atoms: C_9  and  N_11 
REMARK    3  A    between atoms: N_11  and  C_12 
ROOT
HETATM    1  N   UNL     1     -42.979 -51.595  13.033  1.00  0.00    -0.336 N 
HETATM    2  C   UNL     1     -42.521 -50.477  12.374  1.00  0.00     0.322 C 
HETATM    3  O   UNL     1     -41.458 -50.452  11.762  1.00  0.00    -0.247 OA
HETATM    4  N   UNL     1     -43.352 -49.395  12.547  1.00  0.00    -0.295 N 
HETATM    5  H   UNL     1     -43.985 -51.668  13.108  1.00  0.00     0.164 HD
HETATM    6  H   UNL     1     -43.605 -49.231  13.511  1.00  0.00     0.172 HD
ENDROOT
BRANCH   1   7
HETATM    7  C   UNL     1     -42.202 -52.831  13.001  1.00  0.00     0.115 C 
HETATM    8  C   UNL     1     -43.011 -54.136  13.171  1.00  0.00     0.143 C 
HETATM    9  C   UNL     1     -43.201 -54.267  14.684  1.00  0.00     0.034 C 
HETATM   10  C   UNL     1     -42.054 -53.500  15.332  1.00  0.00     0.005 C 
HETATM   11  C   UNL     1     -41.241 -52.895  14.191  1.00  0.00     0.028 C 
BRANCH   8  12
HETATM   12  O   UNL     1     -44.287 -54.200  12.549  1.00  0.00    -0.389 OA
HETATM   13  C   UNL     1     -45.369 -54.375  13.453  1.00  0.00     0.202 C 
ENDBRANCH   8  12
ENDBRANCH   1   7
BRANCH   4  14
HETATM   14  C   UNL     1     -43.100 -48.198  11.858  1.00  0.00     0.109 A 
HETATM   15  C   UNL     1     -42.677 -47.064  12.542  1.00  0.00     0.055 A 
HETATM   16  C   UNL     1     -42.468 -45.882  11.834  1.00  0.00    -0.057 A 
HETATM   17  C   UNL     1     -41.996 -44.637  12.520  1.00  0.00     0.048 C 
HETATM   18  C   UNL     1     -42.730 -45.880  10.464  1.00  0.00     0.031 A 
HETATM   19  C   UNL     1     -43.136 -47.064   9.849  1.00  0.00     0.007 A 
HETATM   20  C   UNL     1     -43.498 -47.073   8.394  1.00  0.00     0.068 C 
HETATM   21  N   UNL     1     -43.279 -48.233  10.521  1.00  0.00    -0.346 N 
ATOM     22  HN  UNL     1     -43.511 -49.100  10.037  1.00  0.00     0.167 HD
ENDBRANCH   4  14
TORSDOF 3
ENDMDL
MODEL 7
REMARK VINA RESULT:      -5.3     13.526     16.087
REMARK  3 active torsions:
REMARK  status: ('A' for Active; 'I' for Inactive)
REMARK    1  A    between atoms: O_2  and  C_3 
REMARK    2  A    between atoms: C_7  and  N_8 
REMARK       I    between atoms: N_8  and  C_9 
REMARK       I    between atoms: C_9  and  N_11 
REMARK    3  A    between atoms: N_11  and  C_12 
ROOT
HETATM    1  N   UNL     1     -51.210 -50.998  -0.170  1.00  0.00    -0.336 N 
HETATM    2  C   UNL     1     -51.177 -51.913  -1.197  1.00  0.00     0.322 C 
HETATM    3  O   UNL     1     -50.778 -51.637  -2.324  1.00  0.00    -0.247 OA
HETATM    4  N   UNL     1     -51.705 -53.129  -0.828  1.00  0.00    -0.295 N 
HETATM    5  H   UNL     1     -51.117 -51.390   0.758  1.00  0.00     0.164 HD
HETATM    6  H   UNL     1     -52.601 -53.056  -0.369  1.00  0.00     0.172 HD
ENDROOT
BRANCH   1   7
HETATM    7  C   UNL     1     -50.733 -49.636  -0.389  1.00  0.00     0.115 C 
HETATM    8  C   UNL     1     -49.351 -49.303   0.216  1.00  0.00     0.143 C 
HETATM    9  C   UNL     1     -49.649 -48.988   1.683  1.00  0.00     0.034 C 
HETATM   10  C   UNL     1     -51.101 -48.526   1.741  1.00  0.00     0.005 C 
HETATM   11  C   UNL     1     -51.641 -48.626   0.317  1.00  0.00     0.028 C 
BRANCH   8  12
HETATM   12  O   UNL     1     -48.354 -50.315   0.165  1.00  0.00    -0.389 OA
HETATM   13  C   UNL     1     -47.675 -50.403  -1.080  1.00  0.00     0.202 C 
ENDBRANCH   8  12
ENDBRANCH   1   7
BRANCH   4  14
HETATM   14  C   UNL     1     -51.653 -54.215  -1.716  1.00  0.00     0.109 A 
HETATM   15  C   UNL     1     -52.823 -54.831  -2.148  1.00  0.00     0.055 A 
HETATM   16  C   UNL     1     -52.737 -55.928  -3.002  1.00  0.00    -0.057 A 
HETATM   17  C   UNL     1     -53.967 -56.616  -3.511  1.00  0.00     0.048 C 
HETATM   18  C   UNL     1     -51.469 -56.387  -3.360  1.00  0.00     0.031 A 
HETATM   19  C   UNL     1     -50.345 -55.704  -2.897  1.00  0.00     0.007 A 
HETATM   20  C   UNL     1     -48.970 -56.219  -3.202  1.00  0.00     0.068 C 
HETATM   21  N   UNL     1     -50.423 -54.597  -2.118  1.00  0.00    -0.346 N 
ATOM     22  HN  UNL     1     -49.589 -54.075  -1.848  1.00  0.00     0.167 HD
ENDBRANCH   4  14
TORSDOF 3
ENDMDL
MODEL 8
REMARK VINA RESULT:      -5.1      4.321      6.443
REMARK  3 active torsions:
REMARK  status: ('A' for Active; 'I' for Inactive)
REMARK    1  A    between atoms: O_2  and  C_3 
REMARK    2  A    between atoms: C_7  and  N_8 
REMARK       I    between atoms: N_8  and  C_9 
REMARK       I    between atoms: C_9  and  N_11 
REMARK    3  A    between atoms: N_11  and  C_12 
ROOT
HETATM    1  N   UNL     1     -42.922 -52.766  13.728  1.00  0.00    -0.336 N 
HETATM    2  C   UNL     1     -41.554 -52.626  13.725  1.00  0.00     0.322 C 
HETATM    3  O   UNL     1     -40.787 -53.567  13.548  1.00  0.00    -0.247 OA
HETATM    4  N   UNL     1     -41.162 -51.338  14.011  1.00  0.00    -0.295 N 
HETATM    5  H   UNL     1     -43.439 -51.947  13.439  1.00  0.00     0.164 HD
HETATM    6  H   UNL     1     -41.614 -50.952  14.827  1.00  0.00     0.172 HD
ENDROOT
BRANCH   1   7
HETATM    7  C   UNL     1     -43.523 -54.075  13.490  1.00  0.00     0.115 C 
HETATM    8  C   UNL     1     -44.988 -54.061  12.998  1.00  0.00     0.143 C 
HETATM    9  C   UNL     1     -45.812 -53.889  14.275  1.00  0.00     0.034 C 
HETATM   10  C   UNL     1     -44.960 -54.431  15.417  1.00  0.00     0.005 C 
HETATM   11  C   UNL     1     -43.635 -54.864  14.797  1.00  0.00     0.028 C 
BRANCH   8  12
HETATM   12  O   UNL     1     -45.359 -53.042  12.079  1.00  0.00    -0.389 OA
HETATM   13  C   UNL     1     -46.335 -52.137  12.576  1.00  0.00     0.202 C 
ENDBRANCH   8  12
ENDBRANCH   1   7
BRANCH   4  14
HETATM   14  C   UNL     1     -39.805 -50.986  13.943  1.00  0.00     0.109 A 
HETATM   15  C   UNL     1     -39.062 -50.806  15.105  1.00  0.00     0.055 A 
HETATM   16  C   UNL     1     -37.727 -50.423  15.005  1.00  0.00    -0.057 A 
HETATM   17  C   UNL     1     -36.878 -50.232  16.224  1.00  0.00     0.048 C 
HETATM   18  C   UNL     1     -37.199 -50.199  13.732  1.00  0.00     0.031 A 
HETATM   19  C   UNL     1     -38.005 -50.417  12.616  1.00  0.00     0.007 A 
HETATM   20  C   UNL     1     -37.489 -50.111  11.241  1.00  0.00     0.068 C 
HETATM   21  N   UNL     1     -39.287 -50.852  12.705  1.00  0.00    -0.346 N 
ATOM     22  HN  UNL     1     -39.834 -51.069  11.872  1.00  0.00     0.167 HD
ENDBRANCH   4  14
TORSDOF 3
ENDMDL
MODEL 9
REMARK VINA RESULT:      -5.1     15.416     18.104
REMARK  3 active torsions:
REMARK  status: ('A' for Active; 'I' for Inactive)
REMARK    1  A    between atoms: O_2  and  C_3 
REMARK    2  A    between atoms: C_7  and  N_8 
REMARK       I    between atoms: N_8  and  C_9 
REMARK       I    between atoms: C_9  and  N_11 
REMARK    3  A    between atoms: N_11  and  C_12 
ROOT
HETATM    1  N   UNL     1     -47.834 -55.896  -4.491  1.00  0.00    -0.336 N 
HETATM    2  C   UNL     1     -48.725 -54.965  -4.010  1.00  0.00     0.322 C 
HETATM    3  O   UNL     1     -49.464 -54.310  -4.737  1.00  0.00    -0.247 OA
HETATM    4  N   UNL     1     -48.633 -54.812  -2.645  1.00  0.00    -0.295 N 
HETATM    5  H   UNL     1     -47.620 -56.654  -3.856  1.00  0.00     0.164 HD
HETATM    6  H   UNL     1     -47.686 -54.685  -2.317  1.00  0.00     0.172 HD
ENDROOT
BRANCH   1   7
HETATM    7  C   UNL     1     -47.755 -56.159  -5.925  1.00  0.00     0.115 C 
HETATM    8  C   UNL     1     -47.308 -57.584  -6.321  1.00  0.00     0.143 C 
HETATM    9  C   UNL     1     -45.782 -57.540  -6.222  1.00  0.00     0.034 C 
HETATM   10  C   UNL     1     -45.377 -56.083  -6.414  1.00  0.00     0.005 C 
HETATM   11  C   UNL     1     -46.673 -55.293  -6.573  1.00  0.00     0.028 C 
BRANCH   8  12
HETATM   12  O   UNL     1     -47.781 -58.663  -5.527  1.00  0.00    -0.389 OA
HETATM   13  C   UNL     1     -49.138 -59.012  -5.766  1.00  0.00     0.202 C 
ENDBRANCH   8  12
ENDBRANCH   1   7
BRANCH   4  14
HETATM   14  C   UNL     1     -49.541 -53.984  -1.968  1.00  0.00     0.109 A 
HETATM   15  C   UNL     1     -49.136 -52.749  -1.471  1.00  0.00     0.055 A 
HETATM   16  C   UNL     1     -50.053 -51.965  -0.774  1.00  0.00    -0.057 A 
HETATM   17  C   UNL     1     -49.674 -50.620  -0.233  1.00  0.00     0.048 C 
HETATM   18  C   UNL     1     -51.336 -52.474  -0.571  1.00  0.00     0.031 A 
HETATM   19  C   UNL     1     -51.668 -53.714  -1.116  1.00  0.00     0.007 A 
HETATM   20  C   UNL     1     -53.014 -54.319  -0.849  1.00  0.00     0.068 C 
HETATM   21  N   UNL     1     -50.800 -54.453  -1.850  1.00  0.00    -0.346 N 
ATOM     22  HN  UNL     1     -51.088 -55.325  -2.295  1.00  0.00     0.167 HD
ENDBRANCH   4  14
TORSDOF 3
ENDMDL
