MODEL 1
REMARK VINA RESULT:      -4.2      0.000      0.000
REMARK  4 active torsions:
REMARK  status: ('A' for Active; 'I' for Inactive)
REMARK    1  A    between atoms: N_3  and  C_4 
REMARK    2  A    between atoms: C_4  and  C_5 
REMARK    3  A    between atoms: C_5  and  C_6 
REMARK    4  A    between atoms: C_9  and  N_10 
ROOT
HETATM    1  C   UNL     2     -44.566 -47.113   8.918  1.00  0.00     0.164 A 
HETATM    2  N   UNL     2     -43.717 -47.115   9.962  1.00  0.00    -0.171 N 
ATOM      3  HN  UNL     2     -43.846 -46.722  10.895  1.00  0.00     0.186 HD
HETATM    4  C   UNL     2     -42.653 -47.769   9.460  1.00  0.00     0.697 A 
HETATM    5  N   UNL     2     -42.845 -48.145   8.183  1.00  0.00    -0.090 N 
ATOM      6  HN  UNL     2     -42.196 -48.652   7.582  1.00  0.00     0.213 HD
HETATM    7  O   UNL     2     -44.038 -47.723   7.880  1.00  0.00    -0.209 OA
ENDROOT
BRANCH   1   8
HETATM    8  C   UNL     2     -45.937 -46.516   8.939  1.00  0.00     0.117 C 
BRANCH   8   9
HETATM    9  C   UNL     2     -47.016 -47.597   9.074  1.00  0.00     0.274 C 
BRANCH   9  10
HETATM   10  N   UNL     2     -46.423 -48.922   8.927  1.00  0.00     0.078 N 
HETATM   11  H   UNL     2     -47.190 -49.632   8.942  1.00  0.00     0.312 HD
HETATM   12  H   UNL     2     -45.796 -49.117   9.740  1.00  0.00     0.312 HD
ENDBRANCH   9  10
ENDBRANCH   8   9
ENDBRANCH   1   8
BRANCH   4  13
HETATM   13  N   UNL     2     -41.474 -48.035  10.190  1.00  0.00    -0.233 N 
HETATM   14  H   UNL     2     -41.488 -48.025  11.219  1.00  0.00     0.174 HD
HETATM   15  H   UNL     2     -40.596 -48.240   9.695  1.00  0.00     0.174 HD
ENDBRANCH   4  13
TORSDOF 4
ENDMDL
MODEL 2
REMARK VINA RESULT:      -4.1      1.280      3.641
REMARK  4 active torsions:
REMARK  status: ('A' for Active; 'I' for Inactive)
REMARK    1  A    between atoms: N_3  and  C_4 
REMARK    2  A    between atoms: C_4  and  C_5 
REMARK    3  A    between atoms: C_5  and  C_6 
REMARK    4  A    between atoms: C_9  and  N_10 
ROOT
HETATM    1  C   UNL     2     -43.768 -46.927   9.274  1.00  0.00     0.164 A 
HETATM    2  N   UNL     2     -45.000 -46.741   9.782  1.00  0.00    -0.171 N 
ATOM      3  HN  UNL     2     -45.287 -46.167  10.576  1.00  0.00     0.186 HD
HETATM    4  C   UNL     2     -45.758 -47.505   8.974  1.00  0.00     0.697 A 
HETATM    5  N   UNL     2     -45.028 -48.119   8.026  1.00  0.00    -0.090 N 
ATOM      6  HN  UNL     2     -45.363 -48.748   7.296  1.00  0.00     0.213 HD
HETATM    7  O   UNL     2     -43.802 -47.740   8.242  1.00  0.00    -0.209 OA
ENDROOT
BRANCH   1   8
HETATM    8  C   UNL     2     -42.526 -46.280   9.798  1.00  0.00     0.117 C 
BRANCH   8   9
HETATM    9  C   UNL     2     -41.686 -47.265  10.620  1.00  0.00     0.274 C 
BRANCH   9  10
HETATM   10  N   UNL     2     -41.559 -48.534   9.911  1.00  0.00     0.078 N 
HETATM   11  H   UNL     2     -42.189 -48.513   9.077  1.00  0.00     0.312 HD
HETATM   12  H   UNL     2     -41.880 -49.313  10.530  1.00  0.00     0.312 HD
ENDBRANCH   9  10
ENDBRANCH   8   9
ENDBRANCH   1   8
BRANCH   4  13
HETATM   13  N   UNL     2     -47.158 -47.642   9.102  1.00  0.00    -0.233 N 
HETATM   14  H   UNL     2     -47.689 -48.193   8.414  1.00  0.00     0.174 HD
HETATM   15  H   UNL     2     -47.651 -47.191   9.884  1.00  0.00     0.174 HD
ENDBRANCH   4  13
TORSDOF 4
ENDMDL
MODEL 3
REMARK VINA RESULT:      -4.1      2.290      4.435
REMARK  4 active torsions:
REMARK  status: ('A' for Active; 'I' for Inactive)
REMARK    1  A    between atoms: N_3  and  C_4 
REMARK    2  A    between atoms: C_4  and  C_5 
REMARK    3  A    between atoms: C_5  and  C_6 
REMARK    4  A    between atoms: C_9  and  N_10 
ROOT
HETATM    1  C   UNL     2     -42.099 -47.056   9.945  1.00  0.00     0.164 A 
HETATM    2  N   UNL     2     -42.625 -48.108   9.290  1.00  0.00    -0.171 N 
ATOM      3  HN  UNL     2     -42.502 -49.104   9.472  1.00  0.00     0.186 HD
HETATM    4  C   UNL     2     -43.357 -47.507   8.334  1.00  0.00     0.697 A 
HETATM    5  N   UNL     2     -43.282 -46.166   8.404  1.00  0.00    -0.090 N 
ATOM      6  HN  UNL     2     -43.741 -45.486   7.799  1.00  0.00     0.213 HD
HETATM    7  O   UNL     2     -42.495 -45.922   9.412  1.00  0.00    -0.209 OA
ENDROOT
BRANCH   1   8
HETATM    8  C   UNL     2     -41.199 -47.161  11.135  1.00  0.00     0.117 C 
BRANCH   8   9
HETATM    9  C   UNL     2     -40.279 -45.940  11.250  1.00  0.00     0.274 C 
BRANCH   9  10
HETATM   10  N   UNL     2     -39.633 -45.673   9.968  1.00  0.00     0.078 N 
HETATM   11  H   UNL     2     -40.374 -45.513   9.250  1.00  0.00     0.312 HD
HETATM   12  H   UNL     2     -39.082 -46.511   9.673  1.00  0.00     0.312 HD
ENDBRANCH   9  10
ENDBRANCH   8   9
ENDBRANCH   1   8
BRANCH   4  13
HETATM   13  N   UNL     2     -44.120 -48.203   7.371  1.00  0.00    -0.233 N 
HETATM   14  H   UNL     2     -44.762 -48.954   7.661  1.00  0.00     0.174 HD
HETATM   15  H   UNL     2     -44.039 -47.960   6.374  1.00  0.00     0.174 HD
ENDBRANCH   4  13
TORSDOF 4
ENDMDL
MODEL 4
REMARK VINA RESULT:      -4.0      6.202      7.750
REMARK  4 active torsions:
REMARK  status: ('A' for Active; 'I' for Inactive)
REMARK    1  A    between atoms: N_3  and  C_4 
REMARK    2  A    between atoms: C_4  and  C_5 
REMARK    3  A    between atoms: C_5  and  C_6 
REMARK    4  A    between atoms: C_9  and  N_10 
ROOT
HETATM    1  C   UNL     2     -40.532 -52.602  12.420  1.00  0.00     0.164 A 
HETATM    2  N   UNL     2     -41.167 -51.917  11.451  1.00  0.00    -0.171 N 
ATOM      3  HN  UNL     2     -42.040 -52.141  10.973  1.00  0.00     0.186 HD
HETATM    4  C   UNL     2     -40.353 -50.860  11.275  1.00  0.00     0.697 A 
HETATM    5  N   UNL     2     -39.285 -50.898  12.092  1.00  0.00    -0.090 N 
ATOM      6  HN  UNL     2     -38.527 -50.220  12.154  1.00  0.00     0.213 HD
HETATM    7  O   UNL     2     -39.428 -51.990  12.786  1.00  0.00    -0.209 OA
ENDROOT
BRANCH   1   8
HETATM    8  C   UNL     2     -41.026 -53.880  13.020  1.00  0.00     0.117 C 
BRANCH   8   9
HETATM    9  C   UNL     2     -40.127 -54.342  14.172  1.00  0.00     0.274 C 
BRANCH   9  10
HETATM   10  N   UNL     2     -38.893 -54.919  13.650  1.00  0.00     0.078 N 
HETATM   11  H   UNL     2     -38.517 -54.285  12.910  1.00  0.00     0.312 HD
HETATM   12  H   UNL     2     -39.100 -55.840  13.202  1.00  0.00     0.312 HD
ENDBRANCH   9  10
ENDBRANCH   8   9
ENDBRANCH   1   8
BRANCH   4  13
HETATM   13  N   UNL     2     -40.594 -49.826  10.343  1.00  0.00    -0.233 N 
HETATM   14  H   UNL     2     -40.088 -48.932  10.418  1.00  0.00     0.174 HD
HETATM   15  H   UNL     2     -41.275 -49.963   9.585  1.00  0.00     0.174 HD
ENDBRANCH   4  13
TORSDOF 4
ENDMDL
MODEL 5
REMARK VINA RESULT:      -4.0      1.568      1.900
REMARK  4 active torsions:
REMARK  status: ('A' for Active; 'I' for Inactive)
REMARK    1  A    between atoms: N_3  and  C_4 
REMARK    2  A    between atoms: C_4  and  C_5 
REMARK    3  A    between atoms: C_5  and  C_6 
REMARK    4  A    between atoms: C_9  and  N_10 
ROOT
HETATM    1  C   UNL     2     -43.197 -46.945   9.570  1.00  0.00     0.164 A 
HETATM    2  N   UNL     2     -42.918 -48.235   9.835  1.00  0.00    -0.171 N 
ATOM      3  HN  UNL     2     -43.515 -49.056   9.731  1.00  0.00     0.186 HD
HETATM    4  C   UNL     2     -41.647 -48.163  10.272  1.00  0.00     0.697 A 
HETATM    5  N   UNL     2     -41.180 -46.902  10.271  1.00  0.00    -0.090 N 
ATOM      6  HN  UNL     2     -40.253 -46.584  10.555  1.00  0.00     0.213 HD
HETATM    7  O   UNL     2     -42.165 -46.175   9.831  1.00  0.00    -0.209 OA
ENDROOT
BRANCH   1   8
HETATM    8  C   UNL     2     -44.502 -46.453   9.028  1.00  0.00     0.117 C 
BRANCH   8   9
HETATM    9  C   UNL     2     -45.609 -47.499   9.201  1.00  0.00     0.274 C 
BRANCH   9  10
HETATM   10  N   UNL     2     -45.833 -48.210   7.947  1.00  0.00     0.078 N 
HETATM   11  H   UNL     2     -46.423 -47.611   7.326  1.00  0.00     0.312 HD
HETATM   12  H   UNL     2     -46.364 -49.090   8.134  1.00  0.00     0.312 HD
ENDBRANCH   9  10
ENDBRANCH   8   9
ENDBRANCH   1   8
BRANCH   4  13
HETATM   13  N   UNL     2     -40.889 -49.283  10.681  1.00  0.00    -0.233 N 
HETATM   14  H   UNL     2     -40.720 -49.457  11.681  1.00  0.00     0.174 HD
HETATM   15  H   UNL     2     -40.504 -49.930   9.980  1.00  0.00     0.174 HD
ENDBRANCH   4  13
TORSDOF 4
ENDMDL
MODEL 6
REMARK VINA RESULT:      -3.9      6.199      7.408
REMARK  4 active torsions:
REMARK  status: ('A' for Active; 'I' for Inactive)
REMARK    1  A    between atoms: N_3  and  C_4 
REMARK    2  A    between atoms: C_4  and  C_5 
REMARK    3  A    between atoms: C_5  and  C_6 
REMARK    4  A    between atoms: C_9  and  N_10 
ROOT
HETATM    1  C   UNL     2     -39.691 -50.778  11.951  1.00  0.00     0.164 A 
HETATM    2  N   UNL     2     -40.897 -50.948  11.378  1.00  0.00    -0.171 N 
ATOM      3  HN  UNL     2     -41.378 -50.350  10.705  1.00  0.00     0.186 HD
HETATM    4  C   UNL     2     -41.307 -52.109  11.922  1.00  0.00     0.697 A 
HETATM    5  N   UNL     2     -40.400 -52.617  12.775  1.00  0.00    -0.090 N 
ATOM      6  HN  UNL     2     -40.470 -53.482  13.312  1.00  0.00     0.213 HD
HETATM    7  O   UNL     2     -39.414 -51.769  12.769  1.00  0.00    -0.209 OA
ENDROOT
BRANCH   1   8
HETATM    8  C   UNL     2     -38.776 -49.627  11.678  1.00  0.00     0.117 C 
BRANCH   8   9
HETATM    9  C   UNL     2     -37.353 -50.106  11.366  1.00  0.00     0.274 C 
BRANCH   9  10
HETATM   10  N   UNL     2     -37.126 -50.110   9.924  1.00  0.00     0.078 N 
HETATM   11  H   UNL     2     -37.616 -49.286   9.509  1.00  0.00     0.312 HD
HETATM   12  H   UNL     2     -37.547 -50.971   9.507  1.00  0.00     0.312 HD
ENDBRANCH   9  10
ENDBRANCH   8   9
ENDBRANCH   1   8
BRANCH   4  13
HETATM   13  N   UNL     2     -42.543 -52.725  11.627  1.00  0.00    -0.233 N 
HETATM   14  H   UNL     2     -42.567 -53.629  11.135  1.00  0.00     0.174 HD
HETATM   15  H   UNL     2     -43.424 -52.273  11.906  1.00  0.00     0.174 HD
ENDBRANCH   4  13
TORSDOF 4
ENDMDL
MODEL 7
REMARK VINA RESULT:      -3.9      2.317      4.196
REMARK  4 active torsions:
REMARK  status: ('A' for Active; 'I' for Inactive)
REMARK    1  A    between atoms: N_3  and  C_4 
REMARK    2  A    between atoms: C_4  and  C_5 
REMARK    3  A    between atoms: C_5  and  C_6 
REMARK    4  A    between atoms: C_9  and  N_10 
ROOT
HETATM    1  C   UNL     2     -42.594 -48.061  10.796  1.00  0.00     0.164 A 
HETATM    2  N   UNL     2     -43.850 -47.938  10.327  1.00  0.00    -0.171 N 
ATOM      3  HN  UNL     2     -44.687 -48.460  10.589  1.00  0.00     0.186 HD
HETATM    4  C   UNL     2     -43.718 -46.950   9.423  1.00  0.00     0.697 A 
HETATM    5  N   UNL     2     -42.454 -46.497   9.347  1.00  0.00    -0.090 N 
ATOM      6  HN  UNL     2     -42.096 -45.757   8.744  1.00  0.00     0.213 HD
HETATM    7  O   UNL     2     -41.786 -47.206  10.210  1.00  0.00    -0.209 OA
ENDROOT
BRANCH   1   8
HETATM    8  C   UNL     2     -42.175 -49.027  11.858  1.00  0.00     0.117 C 
BRANCH   8   9
HETATM    9  C   UNL     2     -40.722 -49.474  11.665  1.00  0.00     0.274 C 
BRANCH   9  10
HETATM   10  N   UNL     2     -40.507 -49.915  10.290  1.00  0.00     0.078 N 
HETATM   11  H   UNL     2     -39.487 -50.098  10.156  1.00  0.00     0.312 HD
HETATM   12  H   UNL     2     -40.781 -49.151   9.632  1.00  0.00     0.312 HD
ENDBRANCH   9  10
ENDBRANCH   8   9
ENDBRANCH   1   8
BRANCH   4  13
HETATM   13  N   UNL     2     -44.783 -46.444   8.646  1.00  0.00    -0.233 N 
HETATM   14  H   UNL     2     -44.592 -45.838   7.836  1.00  0.00     0.174 HD
HETATM   15  H   UNL     2     -45.755 -46.681   8.886  1.00  0.00     0.174 HD
ENDBRANCH   4  13
TORSDOF 4
ENDMDL
MODEL 8
REMARK VINA RESULT:      -3.9      5.822      6.050
REMARK  4 active torsions:
REMARK  status: ('A' for Active; 'I' for Inactive)
REMARK    1  A    between atoms: N_3  and  C_4 
REMARK    2  A    between atoms: C_4  and  C_5 
REMARK    3  A    between atoms: C_5  and  C_6 
REMARK    4  A    between atoms: C_9  and  N_10 
ROOT
HETATM    1  C   UNL     2     -44.108 -52.043  13.122  1.00  0.00     0.164 A 
HETATM    2  N   UNL     2     -43.075 -51.497  12.455  1.00  0.00    -0.171 N 
ATOM      3  HN  UNL     2     -42.870 -50.512  12.282  1.00  0.00     0.186 HD
HETATM    4  C   UNL     2     -42.379 -52.585  12.073  1.00  0.00     0.697 A 
HETATM    5  N   UNL     2     -42.956 -53.727  12.487  1.00  0.00    -0.090 N 
ATOM      6  HN  UNL     2     -42.629 -54.679  12.330  1.00  0.00     0.213 HD
HETATM    7  O   UNL     2     -44.023 -53.354  13.132  1.00  0.00    -0.209 OA
ENDROOT
BRANCH   1   8
HETATM    8  C   UNL     2     -45.199 -51.262  13.784  1.00  0.00     0.117 C 
BRANCH   8   9
HETATM    9  C   UNL     2     -46.577 -51.651  13.237  1.00  0.00     0.274 C 
BRANCH   9  10
HETATM   10  N   UNL     2     -46.441 -52.269  11.921  1.00  0.00     0.078 N 
HETATM   11  H   UNL     2     -45.457 -52.141  11.594  1.00  0.00     0.312 HD
HETATM   12  H   UNL     2     -47.067 -51.781  11.240  1.00  0.00     0.312 HD
ENDBRANCH   9  10
ENDBRANCH   8   9
ENDBRANCH   1   8
BRANCH   4  13
HETATM   13  N   UNL     2     -41.180 -52.533  11.329  1.00  0.00    -0.233 N 
HETATM   14  H   UNL     2     -40.499 -53.303  11.390  1.00  0.00     0.174 HD
HETATM   15  H   UNL     2     -40.984 -51.727  10.722  1.00  0.00     0.174 HD
ENDBRANCH   4  13
TORSDOF 4
ENDMDL
MODEL 9
REMARK VINA RESULT:      -3.9      6.851      7.348
REMARK  4 active torsions:
REMARK  status: ('A' for Active; 'I' for Inactive)
REMARK    1  A    between atoms: N_3  and  C_4 
REMARK    2  A    between atoms: C_4  and  C_5 
REMARK    3  A    between atoms: C_5  and  C_6 
REMARK    4  A    between atoms: C_9  and  N_10 
ROOT
HETATM    1  C   UNL     2     -43.452 -53.675  13.488  1.00  0.00     0.164 A 
HETATM    2  N   UNL     2     -42.389 -53.900  12.694  1.00  0.00    -0.171 N 
ATOM      3  HN  UNL     2     -41.857 -54.761  12.561  1.00  0.00     0.186 HD
HETATM    4  C   UNL     2     -42.208 -52.697  12.118  1.00  0.00     0.697 A 
HETATM    5  N   UNL     2     -43.110 -51.792  12.538  1.00  0.00    -0.090 N 
ATOM      6  HN  UNL     2     -43.188 -50.816  12.254  1.00  0.00     0.213 HD
HETATM    7  O   UNL     2     -43.864 -52.432  13.384  1.00  0.00    -0.209 OA
ENDROOT
BRANCH   1   8
HETATM    8  C   UNL     2     -44.094 -54.708  14.359  1.00  0.00     0.117 C 
BRANCH   8   9
HETATM    9  C   UNL     2     -45.463 -55.128  13.811  1.00  0.00     0.274 C 
BRANCH   9  10
HETATM   10  N   UNL     2     -46.311 -53.956  13.618  1.00  0.00     0.078 N 
HETATM   11  H   UNL     2     -47.210 -54.264  13.183  1.00  0.00     0.312 HD
HETATM   12  H   UNL     2     -45.849 -53.296  12.953  1.00  0.00     0.312 HD
ENDBRANCH   9  10
ENDBRANCH   8   9
ENDBRANCH   1   8
BRANCH   4  13
HETATM   13  N   UNL     2     -41.191 -52.417  11.179  1.00  0.00    -0.233 N 
HETATM   14  H   UNL     2     -41.092 -51.469  10.790  1.00  0.00     0.174 HD
HETATM   15  H   UNL     2     -40.544 -53.159  10.882  1.00  0.00     0.174 HD
ENDBRANCH   4  13
TORSDOF 4
ENDMDL
