MODEL 1
REMARK VINA RESULT:      -5.4      0.000      0.000
REMARK  3 active torsions:
REMARK  status: ('A' for Active; 'I' for Inactive)
REMARK       I    between atoms: N_2  and  C_3 
REMARK    1  A    between atoms: C_3  and  C_5 
REMARK    2  A    between atoms: C_5  and  N_6 
REMARK    3  A    between atoms: C_11  and  C_12 
ROOT
HETATM    1  N   UNL     1     -43.030 -45.749   9.891  1.00  0.00    -0.256 N 
HETATM    2  N   UNL     1     -43.781 -44.939   9.122  1.00  0.00    -0.005 NA
HETATM    3  N   UNL     1     -43.752 -43.762   9.724  1.00  0.00    -0.007 NA
HETATM    4  N   UNL     1     -42.980 -43.811  10.855  1.00  0.00    -0.273 N 
ATOM      5  HN  UNL     1     -42.786 -43.038  11.492  1.00  0.00     0.185 HD
HETATM    6  C   UNL     1     -42.537 -45.049  10.961  1.00  0.00     0.114 A 
ENDROOT
BRANCH   1   7
HETATM    7  C   UNL     1     -42.754 -47.090   9.446  1.00  0.00     0.250 C 
BRANCH   7   8
HETATM    8  C   UNL     1     -43.875 -47.654   8.600  1.00  0.00     0.236 C 
HETATM    9  N   UNL     1     -45.101 -47.791   9.213  1.00  0.00    -0.364 N 
HETATM   10  C   UNL     1     -46.241 -48.322   8.509  1.00  0.00     0.149 C 
HETATM   11  H   UNL     1     -45.205 -47.579  10.204  1.00  0.00     0.161 HD
HETATM   12  O   UNL     1     -43.671 -48.012   7.441  1.00  0.00    -0.272 OA
ENDBRANCH   7   8
ENDBRANCH   1   7
BRANCH   6  13
HETATM   13  C   UNL     1     -41.633 -45.593  12.011  1.00  0.00     0.056 C 
HETATM   14  C   UNL     1     -41.782 -44.881  13.365  1.00  0.00     0.012 C 
HETATM   15  C   UNL     1     -40.374 -44.772  13.954  1.00  0.00     0.001 C 
HETATM   16  C   UNL     1     -39.459 -45.526  13.000  1.00  0.00     0.001 C 
HETATM   17  C   UNL     1     -40.157 -45.417  11.655  1.00  0.00     0.012 C 
ENDBRANCH   6  13
TORSDOF 3
ENDMDL
MODEL 2
REMARK VINA RESULT:      -5.3      2.797      3.368
REMARK  3 active torsions:
REMARK  status: ('A' for Active; 'I' for Inactive)
REMARK       I    between atoms: N_2  and  C_3 
REMARK    1  A    between atoms: C_3  and  C_5 
REMARK    2  A    between atoms: C_5  and  N_6 
REMARK    3  A    between atoms: C_11  and  C_12 
ROOT
HETATM    1  N   UNL     1     -41.859 -46.482  10.773  1.00  0.00    -0.256 N 
HETATM    2  N   UNL     1     -41.719 -45.381  10.011  1.00  0.00    -0.005 NA
HETATM    3  N   UNL     1     -40.414 -45.196   9.905  1.00  0.00    -0.007 NA
HETATM    4  N   UNL     1     -39.725 -46.173  10.574  1.00  0.00    -0.273 N 
ATOM      5  HN  UNL     1     -38.712 -46.267  10.639  1.00  0.00     0.185 HD
HETATM    6  C   UNL     1     -40.626 -46.969  11.119  1.00  0.00     0.114 A 
ENDROOT
BRANCH   1   7
HETATM    7  C   UNL     1     -43.173 -47.033  10.983  1.00  0.00     0.250 C 
BRANCH   7   8
HETATM    8  C   UNL     1     -43.837 -47.440   9.685  1.00  0.00     0.236 C 
HETATM    9  N   UNL     1     -43.000 -47.796   8.650  1.00  0.00    -0.364 N 
HETATM   10  C   UNL     1     -43.518 -48.196   7.366  1.00  0.00     0.149 C 
HETATM   11  H   UNL     1     -41.990 -47.717   8.758  1.00  0.00     0.161 HD
HETATM   12  O   UNL     1     -45.060 -47.403   9.564  1.00  0.00    -0.272 OA
ENDBRANCH   7   8
ENDBRANCH   1   7
BRANCH   6  13
HETATM   13  C   UNL     1     -40.372 -48.195  11.923  1.00  0.00     0.056 C 
HETATM   14  C   UNL     1     -38.954 -48.248  12.514  1.00  0.00     0.012 C 
HETATM   15  C   UNL     1     -38.502 -49.707  12.424  1.00  0.00     0.001 C 
HETATM   16  C   UNL     1     -39.700 -50.488  11.904  1.00  0.00     0.001 C 
HETATM   17  C   UNL     1     -40.478 -49.471  11.087  1.00  0.00     0.012 C 
ENDBRANCH   6  13
TORSDOF 3
ENDMDL
MODEL 3
REMARK VINA RESULT:      -5.1      3.737      5.580
REMARK  3 active torsions:
REMARK  status: ('A' for Active; 'I' for Inactive)
REMARK       I    between atoms: N_2  and  C_3 
REMARK    1  A    between atoms: C_3  and  C_5 
REMARK    2  A    between atoms: C_5  and  N_6 
REMARK    3  A    between atoms: C_11  and  C_12 
ROOT
HETATM    1  N   UNL     1     -40.820 -47.929  11.021  1.00  0.00    -0.256 N 
HETATM    2  N   UNL     1     -39.825 -47.272  11.646  1.00  0.00    -0.005 NA
HETATM    3  N   UNL     1     -40.044 -45.992  11.399  1.00  0.00    -0.007 NA
HETATM    4  N   UNL     1     -41.172 -45.827  10.638  1.00  0.00    -0.273 N 
ATOM      5  HN  UNL     1     -41.566 -44.942  10.319  1.00  0.00     0.185 HD
HETATM    6  C   UNL     1     -41.650 -47.033  10.399  1.00  0.00     0.114 A 
ENDROOT
BRANCH   1   7
HETATM    7  C   UNL     1     -40.945 -49.353  11.195  1.00  0.00     0.250 C 
BRANCH   7   8
HETATM    8  C   UNL     1     -39.688 -49.973  11.764  1.00  0.00     0.236 C 
HETATM    9  N   UNL     1     -38.565 -49.931  10.967  1.00  0.00    -0.364 N 
HETATM   10  C   UNL     1     -37.311 -50.495  11.401  1.00  0.00     0.149 C 
HETATM   11  H   UNL     1     -38.622 -49.557  10.022  1.00  0.00     0.161 HD
HETATM   12  O   UNL     1     -39.698 -50.523  12.864  1.00  0.00    -0.272 OA
ENDBRANCH   7   8
ENDBRANCH   1   7
BRANCH   6  13
HETATM   13  C   UNL     1     -42.882 -47.377   9.638  1.00  0.00     0.056 C 
HETATM   14  C   UNL     1     -43.374 -46.234   8.735  1.00  0.00     0.012 C 
HETATM   15  C   UNL     1     -44.901 -46.250   8.810  1.00  0.00     0.001 C 
HETATM   16  C   UNL     1     -45.270 -47.467   9.646  1.00  0.00     0.001 C 
HETATM   17  C   UNL     1     -44.070 -47.666  10.556  1.00  0.00     0.012 C 
ENDBRANCH   6  13
TORSDOF 3
ENDMDL
MODEL 4
REMARK VINA RESULT:      -5.0      7.667      9.149
REMARK  3 active torsions:
REMARK  status: ('A' for Active; 'I' for Inactive)
REMARK       I    between atoms: N_2  and  C_3 
REMARK    1  A    between atoms: C_3  and  C_5 
REMARK    2  A    between atoms: C_5  and  N_6 
REMARK    3  A    between atoms: C_11  and  C_12 
ROOT
HETATM    1  N   UNL     1     -45.300 -53.528  13.480  1.00  0.00    -0.256 N 
HETATM    2  N   UNL     1     -45.276 -54.854  13.245  1.00  0.00    -0.005 NA
HETATM    3  N   UNL     1     -46.054 -55.386  14.173  1.00  0.00    -0.007 NA
HETATM    4  N   UNL     1     -46.583 -54.414  14.983  1.00  0.00    -0.273 N 
ATOM      5  HN  UNL     1     -47.221 -54.557  15.766  1.00  0.00     0.185 HD
HETATM    6  C   UNL     1     -46.108 -53.260  14.554  1.00  0.00     0.114 A 
ENDROOT
BRANCH   1   7
HETATM    7  C   UNL     1     -44.642 -52.636  12.560  1.00  0.00     0.250 C 
BRANCH   7   8
HETATM    8  C   UNL     1     -43.149 -52.568  12.798  1.00  0.00     0.236 C 
HETATM    9  N   UNL     1     -42.352 -52.462  11.680  1.00  0.00    -0.364 N 
HETATM   10  C   UNL     1     -40.915 -52.395  11.783  1.00  0.00     0.149 C 
HETATM   11  H   UNL     1     -42.766 -52.496  10.750  1.00  0.00     0.161 HD
HETATM   12  O   UNL     1     -42.688 -52.652  13.934  1.00  0.00    -0.272 OA
ENDBRANCH   7   8
ENDBRANCH   1   7
BRANCH   6  13
HETATM   13  C   UNL     1     -46.414 -51.907  15.092  1.00  0.00     0.056 C 
HETATM   14  C   UNL     1     -45.216 -51.252  15.798  1.00  0.00     0.012 C 
HETATM   15  C   UNL     1     -45.781 -50.509  17.010  1.00  0.00     0.001 C 
HETATM   16  C   UNL     1     -47.295 -50.640  16.917  1.00  0.00     0.001 C 
HETATM   17  C   UNL     1     -47.506 -51.941  16.162  1.00  0.00     0.012 C 
ENDBRANCH   6  13
TORSDOF 3
ENDMDL
MODEL 5
REMARK VINA RESULT:      -4.9      6.467      8.211
REMARK  3 active torsions:
REMARK  status: ('A' for Active; 'I' for Inactive)
REMARK       I    between atoms: N_2  and  C_3 
REMARK    1  A    between atoms: C_3  and  C_5 
REMARK    2  A    between atoms: C_5  and  N_6 
REMARK    3  A    between atoms: C_11  and  C_12 
ROOT
HETATM    1  N   UNL     1     -41.496 -51.986  12.376  1.00  0.00    -0.256 N 
HETATM    2  N   UNL     1     -40.503 -52.895  12.381  1.00  0.00    -0.005 NA
HETATM    3  N   UNL     1     -41.083 -54.043  12.687  1.00  0.00    -0.007 NA
HETATM    4  N   UNL     1     -42.432 -53.878  12.862  1.00  0.00    -0.273 N 
ATOM      5  HN  UNL     1     -43.109 -54.605  13.092  1.00  0.00     0.185 HD
HETATM    6  C   UNL     1     -42.687 -52.596  12.674  1.00  0.00     0.114 A 
ENDROOT
BRANCH   1   7
HETATM    7  C   UNL     1     -41.218 -50.637  11.955  1.00  0.00     0.250 C 
BRANCH   7   8
HETATM    8  C   UNL     1     -39.799 -50.220  12.272  1.00  0.00     0.236 C 
HETATM    9  N   UNL     1     -38.855 -50.451  11.296  1.00  0.00    -0.364 N 
HETATM   10  C   UNL     1     -37.470 -50.100  11.489  1.00  0.00     0.149 C 
HETATM   11  H   UNL     1     -39.112 -50.939  10.440  1.00  0.00     0.161 HD
HETATM   12  O   UNL     1     -39.512 -49.744  13.369  1.00  0.00    -0.272 OA
ENDBRANCH   7   8
ENDBRANCH   1   7
BRANCH   6  13
HETATM   13  C   UNL     1     -44.015 -51.927  12.725  1.00  0.00     0.056 C 
HETATM   14  C   UNL     1     -44.264 -51.180  14.045  1.00  0.00     0.012 C 
HETATM   15  C   UNL     1     -45.738 -51.397  14.393  1.00  0.00     0.001 C 
HETATM   16  C   UNL     1     -46.342 -52.152  13.219  1.00  0.00     0.001 C 
HETATM   17  C   UNL     1     -45.171 -52.924  12.634  1.00  0.00     0.012 C 
ENDBRANCH   6  13
TORSDOF 3
ENDMDL
MODEL 6
REMARK VINA RESULT:      -4.9      7.981      9.239
REMARK  3 active torsions:
REMARK  status: ('A' for Active; 'I' for Inactive)
REMARK       I    between atoms: N_2  and  C_3 
REMARK    1  A    between atoms: C_3  and  C_5 
REMARK    2  A    between atoms: C_5  and  N_6 
REMARK    3  A    between atoms: C_11  and  C_12 
ROOT
HETATM    1  N   UNL     1     -45.602 -53.350  13.922  1.00  0.00    -0.256 N 
HETATM    2  N   UNL     1     -45.403 -53.866  12.694  1.00  0.00    -0.005 NA
HETATM    3  N   UNL     1     -45.792 -52.923  11.853  1.00  0.00    -0.007 NA
HETATM    4  N   UNL     1     -46.219 -51.810  12.530  1.00  0.00    -0.273 N 
ATOM      5  HN  UNL     1     -46.559 -50.942  12.118  1.00  0.00     0.185 HD
HETATM    6  C   UNL     1     -46.106 -52.080  13.816  1.00  0.00     0.114 A 
ENDROOT
BRANCH   1   7
HETATM    7  C   UNL     1     -45.160 -54.086  15.078  1.00  0.00     0.250 C 
BRANCH   7   8
HETATM    8  C   UNL     1     -43.756 -54.625  14.910  1.00  0.00     0.236 C 
HETATM    9  N   UNL     1     -42.845 -53.793  14.299  1.00  0.00    -0.364 N 
HETATM   10  C   UNL     1     -41.480 -54.201  14.080  1.00  0.00     0.149 C 
HETATM   11  H   UNL     1     -43.142 -52.892  13.928  1.00  0.00     0.161 HD
HETATM   12  O   UNL     1     -43.473 -55.768  15.265  1.00  0.00    -0.272 OA
ENDBRANCH   7   8
ENDBRANCH   1   7
BRANCH   6  13
HETATM   13  C   UNL     1     -46.418 -51.174  14.955  1.00  0.00     0.056 C 
HETATM   14  C   UNL     1     -45.202 -50.886  15.850  1.00  0.00     0.012 C 
HETATM   15  C   UNL     1     -45.721 -50.852  17.288  1.00  0.00     0.001 C 
HETATM   16  C   UNL     1     -47.234 -50.994  17.194  1.00  0.00     0.001 C 
HETATM   17  C   UNL     1     -47.451 -51.774  15.909  1.00  0.00     0.012 C 
ENDBRANCH   6  13
TORSDOF 3
ENDMDL
MODEL 7
REMARK VINA RESULT:      -4.8     16.488     17.786
REMARK  3 active torsions:
REMARK  status: ('A' for Active; 'I' for Inactive)
REMARK       I    between atoms: N_2  and  C_3 
REMARK    1  A    between atoms: C_3  and  C_5 
REMARK    2  A    between atoms: C_5  and  N_6 
REMARK    3  A    between atoms: C_11  and  C_12 
ROOT
HETATM    1  N   UNL     1     -32.963 -57.643  18.488  1.00  0.00    -0.256 N 
HETATM    2  N   UNL     1     -33.821 -58.048  17.533  1.00  0.00    -0.005 NA
HETATM    3  N   UNL     1     -33.778 -57.107  16.605  1.00  0.00    -0.007 NA
HETATM    4  N   UNL     1     -32.894 -56.119  16.952  1.00  0.00    -0.273 N 
ATOM      5  HN  UNL     1     -32.668 -55.287  16.407  1.00  0.00     0.185 HD
HETATM    6  C   UNL     1     -32.392 -56.451  18.126  1.00  0.00     0.114 A 
ENDROOT
BRANCH   1   7
HETATM    7  C   UNL     1     -32.679 -58.515  19.599  1.00  0.00     0.250 C 
BRANCH   7   8
HETATM    8  C   UNL     1     -32.677 -59.973  19.195  1.00  0.00     0.236 C 
HETATM    9  N   UNL     1     -33.894 -60.618  19.206  1.00  0.00    -0.364 N 
HETATM   10  C   UNL     1     -34.014 -62.008  18.847  1.00  0.00     0.149 C 
HETATM   11  H   UNL     1     -34.727 -60.133  19.537  1.00  0.00     0.161 HD
HETATM   12  O   UNL     1     -31.626 -60.550  18.921  1.00  0.00    -0.272 OA
ENDBRANCH   7   8
ENDBRANCH   1   7
BRANCH   6  13
HETATM   13  C   UNL     1     -31.365 -55.709  18.907  1.00  0.00     0.056 C 
HETATM   14  C   UNL     1     -31.336 -54.205  18.591  1.00  0.00     0.012 C 
HETATM   15  C   UNL     1     -29.864 -53.788  18.604  1.00  0.00     0.001 C 
HETATM   16  C   UNL     1     -29.082 -55.017  19.046  1.00  0.00     0.001 C 
HETATM   17  C   UNL     1     -29.945 -56.184  18.598  1.00  0.00     0.012 C 
ENDBRANCH   6  13
TORSDOF 3
ENDMDL
MODEL 8
REMARK VINA RESULT:      -4.7      7.391      8.891
REMARK  3 active torsions:
REMARK  status: ('A' for Active; 'I' for Inactive)
REMARK       I    between atoms: N_2  and  C_3 
REMARK    1  A    between atoms: C_3  and  C_5 
REMARK    2  A    between atoms: C_5  and  N_6 
REMARK    3  A    between atoms: C_11  and  C_12 
ROOT
HETATM    1  N   UNL     1     -41.600 -53.045  12.913  1.00  0.00    -0.256 N 
HETATM    2  N   UNL     1     -40.532 -52.567  12.246  1.00  0.00    -0.005 NA
HETATM    3  N   UNL     1     -40.940 -51.429  11.709  1.00  0.00    -0.007 NA
HETATM    4  N   UNL     1     -42.245 -51.172  12.039  1.00  0.00    -0.273 N 
ATOM      5  HN  UNL     1     -42.792 -50.357  11.763  1.00  0.00     0.185 HD
HETATM    6  C   UNL     1     -42.656 -52.181  12.783  1.00  0.00     0.114 A 
ENDROOT
BRANCH   1   7
HETATM    7  C   UNL     1     -41.455 -54.228  13.722  1.00  0.00     0.250 C 
BRANCH   7   8
HETATM    8  C   UNL     1     -40.356 -54.085  14.753  1.00  0.00     0.236 C 
HETATM    9  N   UNL     1     -40.032 -52.802  15.134  1.00  0.00    -0.364 N 
HETATM   10  C   UNL     1     -38.997 -52.544  16.104  1.00  0.00     0.149 C 
HETATM   11  H   UNL     1     -40.477 -52.005  14.682  1.00  0.00     0.161 HD
HETATM   12  O   UNL     1     -39.762 -55.073  15.181  1.00  0.00    -0.272 OA
ENDBRANCH   7   8
ENDBRANCH   1   7
BRANCH   6  13
HETATM   13  C   UNL     1     -43.995 -52.348  13.410  1.00  0.00     0.056 C 
HETATM   14  C   UNL     1     -45.013 -53.036  12.487  1.00  0.00     0.012 C 
HETATM   15  C   UNL     1     -46.354 -52.341  12.727  1.00  0.00     0.001 C 
HETATM   16  C   UNL     1     -46.121 -51.356  13.864  1.00  0.00     0.001 C 
HETATM   17  C   UNL     1     -44.646 -51.008  13.754  1.00  0.00     0.012 C 
ENDBRANCH   6  13
TORSDOF 3
ENDMDL
MODEL 9
REMARK VINA RESULT:      -4.6      8.584      9.326
REMARK  3 active torsions:
REMARK  status: ('A' for Active; 'I' for Inactive)
REMARK       I    between atoms: N_2  and  C_3 
REMARK    1  A    between atoms: C_3  and  C_5 
REMARK    2  A    between atoms: C_5  and  N_6 
REMARK    3  A    between atoms: C_11  and  C_12 
ROOT
HETATM    1  N   UNL     1     -44.680 -54.085  13.739  1.00  0.00    -0.256 N 
HETATM    2  N   UNL     1     -45.616 -53.596  12.904  1.00  0.00    -0.005 NA
HETATM    3  N   UNL     1     -44.941 -53.033  11.916  1.00  0.00    -0.007 NA
HETATM    4  N   UNL     1     -43.591 -53.174  12.104  1.00  0.00    -0.273 N 
ATOM      5  HN  UNL     1     -42.853 -52.841  11.484  1.00  0.00     0.185 HD
HETATM    6  C   UNL     1     -43.430 -53.823  13.241  1.00  0.00     0.114 A 
ENDROOT
BRANCH   1   7
HETATM    7  C   UNL     1     -45.087 -54.876  14.871  1.00  0.00     0.250 C 
BRANCH   7   8
HETATM    8  C   UNL     1     -45.583 -54.021  16.017  1.00  0.00     0.236 C 
HETATM    9  N   UNL     1     -45.635 -52.663  15.796  1.00  0.00    -0.364 N 
HETATM   10  C   UNL     1     -46.084 -51.749  16.816  1.00  0.00     0.149 C 
HETATM   11  H   UNL     1     -45.289 -52.273  14.920  1.00  0.00     0.161 HD
HETATM   12  O   UNL     1     -45.874 -54.526  17.100  1.00  0.00    -0.272 OA
ENDBRANCH   7   8
ENDBRANCH   1   7
BRANCH   6  13
HETATM   13  C   UNL     1     -42.144 -54.242  13.863  1.00  0.00     0.056 C 
HETATM   14  C   UNL     1     -41.732 -53.360  15.052  1.00  0.00     0.012 C 
HETATM   15  C   UNL     1     -40.214 -53.198  14.966  1.00  0.00     0.001 C 
HETATM   16  C   UNL     1     -39.760 -54.082  13.812  1.00  0.00     0.001 C 
HETATM   17  C   UNL     1     -40.968 -54.135  12.892  1.00  0.00     0.012 C 
ENDBRANCH   6  13
TORSDOF 3
ENDMDL
