MODEL 1
REMARK VINA RESULT:      -6.3      0.000      0.000
REMARK  5 active torsions:
REMARK  status: ('A' for Active; 'I' for Inactive)
REMARK    1  A    between atoms: S_2  and  N_5 
REMARK    2  A    between atoms: N_8  and  C_11 
REMARK    3  A    between atoms: C_14  and  N_15 
REMARK       I    between atoms: N_15  and  C_16 
REMARK       I    between atoms: C_16  and  N_18 
REMARK    4  A    between atoms: N_18  and  C_19 
REMARK    5  A    between atoms: C_19  and  C_20 
ROOT
HETATM    1  C   UNL     1     -39.558 -48.127  12.613  1.00  0.00     0.103 A 
HETATM    2  C   UNL     1     -39.675 -46.876  12.000  1.00  0.00     0.051 A 
HETATM    3  C   UNL     1     -40.579 -46.667  10.951  1.00  0.00     0.035 A 
HETATM    4  C   UNL     1     -41.381 -47.714  10.540  1.00  0.00     0.051 A 
HETATM    5  C   UNL     1     -41.206 -48.930  11.179  1.00  0.00     0.119 A 
HETATM    6  N   UNL     1     -40.323 -49.151  12.176  1.00  0.00    -0.350 N 
ATOM      7  HN  UNL     1     -40.235 -50.077  12.593  1.00  0.00     0.166 HD
ENDROOT
BRANCH   1   8
HETATM    8  N   UNL     1     -38.760 -48.361  13.709  1.00  0.00    -0.365 N 
HETATM    9  C   UNL     1     -38.168 -49.698  13.892  1.00  0.00     0.140 C 
HETATM   10  C   UNL     1     -38.196 -50.098  15.385  1.00  0.00     0.127 C 
HETATM   11  N   UNL     1     -37.636 -49.044  16.301  1.00  0.00    -0.208 NA
HETATM   12  C   UNL     1     -38.290 -47.720  16.018  1.00  0.00     0.127 C 
HETATM   13  C   UNL     1     -38.152 -47.316  14.537  1.00  0.00     0.140 C 
BRANCH  11  14
HETATM   14  S   UNL     1     -35.953 -48.968  16.464  1.00  0.00     0.207 S 
HETATM   15  C   UNL     1     -35.737 -48.795  18.220  1.00  0.00     0.180 C 
HETATM   16  O   UNL     1     -35.502 -47.745  15.849  1.00  0.00    -0.212 OA
HETATM   17  O   UNL     1     -35.397 -50.242  16.058  1.00  0.00    -0.212 OA
ENDBRANCH  11  14
ENDBRANCH   1   8
BRANCH   4  18
HETATM   18  N   UNL     1     -42.402 -47.591   9.589  1.00  0.00    -0.308 N 
HETATM   19  C   UNL     1     -43.133 -46.463   9.330  1.00  0.00     0.321 C 
HETATM   20  O   UNL     1     -42.917 -45.346   9.785  1.00  0.00    -0.247 OA
HETATM   21  N   UNL     1     -44.172 -46.656   8.452  1.00  0.00    -0.339 N 
HETATM   22  H   UNL     1     -44.721 -45.818   8.301  1.00  0.00     0.164 HD
HETATM   23  H   UNL     1     -42.403 -48.277   8.854  1.00  0.00     0.170 HD
BRANCH  21  24
HETATM   24  C   UNL     1     -44.724 -47.940   8.104  1.00  0.00     0.150 C 
BRANCH  24  25
HETATM   25  C   UNL     1     -46.094 -48.090   8.666  1.00  0.00    -0.018 C 
HETATM   26  C   UNL     1     -46.815 -47.060   9.126  1.00  0.00     0.008 C 
ENDBRANCH  24  25
ENDBRANCH  21  24
ENDBRANCH   4  18
TORSDOF 5
ENDMDL
MODEL 2
REMARK VINA RESULT:      -6.2      4.145      4.854
REMARK  5 active torsions:
REMARK  status: ('A' for Active; 'I' for Inactive)
REMARK    1  A    between atoms: S_2  and  N_5 
REMARK    2  A    between atoms: N_8  and  C_11 
REMARK    3  A    between atoms: C_14  and  N_15 
REMARK       I    between atoms: N_15  and  C_16 
REMARK       I    between atoms: C_16  and  N_18 
REMARK    4  A    between atoms: N_18  and  C_19 
REMARK    5  A    between atoms: C_19  and  C_20 
ROOT
HETATM    1  C   UNL     1     -40.977 -51.704  13.659  1.00  0.00     0.103 A 
HETATM    2  C   UNL     1     -42.204 -51.043  13.754  1.00  0.00     0.051 A 
HETATM    3  C   UNL     1     -42.579 -50.075  12.813  1.00  0.00     0.035 A 
HETATM    4  C   UNL     1     -41.724 -49.796  11.764  1.00  0.00     0.051 A 
HETATM    5  C   UNL     1     -40.519 -50.475  11.735  1.00  0.00     0.119 A 
HETATM    6  N   UNL     1     -40.136 -51.394  12.648  1.00  0.00    -0.350 N 
ATOM      7  HN  UNL     1     -39.225 -51.847  12.575  1.00  0.00     0.166 HD
ENDROOT
BRANCH   1   8
HETATM    8  N   UNL     1     -40.603 -52.729  14.496  1.00  0.00    -0.365 N 
HETATM    9  C   UNL     1     -41.216 -54.058  14.322  1.00  0.00     0.140 C 
HETATM   10  C   UNL     1     -41.502 -54.703  15.696  1.00  0.00     0.127 C 
HETATM   11  N   UNL     1     -40.320 -54.687  16.626  1.00  0.00    -0.208 NA
HETATM   12  C   UNL     1     -39.760 -53.294  16.717  1.00  0.00     0.127 C 
HETATM   13  C   UNL     1     -39.398 -52.729  15.331  1.00  0.00     0.140 C 
BRANCH  11  14
HETATM   14  S   UNL     1     -39.151 -55.894  16.423  1.00  0.00     0.207 S 
HETATM   15  C   UNL     1     -37.919 -55.453  17.628  1.00  0.00     0.180 C 
HETATM   16  O   UNL     1     -38.561 -55.727  15.119  1.00  0.00    -0.212 OA
HETATM   17  O   UNL     1     -39.733 -57.163  16.809  1.00  0.00    -0.212 OA
ENDBRANCH  11  14
ENDBRANCH   1   8
BRANCH   4  18
HETATM   18  N   UNL     1     -42.043 -48.941  10.701  1.00  0.00    -0.308 N 
HETATM   19  C   UNL     1     -41.739 -47.609  10.616  1.00  0.00     0.321 C 
HETATM   20  O   UNL     1     -41.019 -46.985  11.388  1.00  0.00    -0.247 OA
HETATM   21  N   UNL     1     -42.296 -46.973   9.534  1.00  0.00    -0.339 N 
HETATM   22  H   UNL     1     -42.088 -45.982   9.509  1.00  0.00     0.164 HD
HETATM   23  H   UNL     1     -42.244 -49.388   9.823  1.00  0.00     0.170 HD
BRANCH  21  24
HETATM   24  C   UNL     1     -43.391 -47.490   8.753  1.00  0.00     0.150 C 
BRANCH  24  25
HETATM   25  C   UNL     1     -44.692 -47.023   9.304  1.00  0.00    -0.018 C 
HETATM   26  C   UNL     1     -45.845 -47.680   9.119  1.00  0.00     0.008 C 
ENDBRANCH  24  25
ENDBRANCH  21  24
ENDBRANCH   4  18
TORSDOF 5
ENDMDL
MODEL 3
REMARK VINA RESULT:      -5.9      5.161      6.157
REMARK  5 active torsions:
REMARK  status: ('A' for Active; 'I' for Inactive)
REMARK    1  A    between atoms: S_2  and  N_5 
REMARK    2  A    between atoms: N_8  and  C_11 
REMARK    3  A    between atoms: C_14  and  N_15 
REMARK       I    between atoms: N_15  and  C_16 
REMARK       I    between atoms: C_16  and  N_18 
REMARK    4  A    between atoms: N_18  and  C_19 
REMARK    5  A    between atoms: C_19  and  C_20 
ROOT
HETATM    1  C   UNL     1     -40.954 -53.195  14.447  1.00  0.00     0.103 A 
HETATM    2  C   UNL     1     -41.040 -53.563  13.102  1.00  0.00     0.051 A 
HETATM    3  C   UNL     1     -41.375 -52.626  12.116  1.00  0.00     0.035 A 
HETATM    4  C   UNL     1     -41.598 -51.315  12.488  1.00  0.00     0.051 A 
HETATM    5  C   UNL     1     -41.511 -51.019  13.838  1.00  0.00     0.119 A 
HETATM    6  N   UNL     1     -41.211 -51.916  14.801  1.00  0.00    -0.350 N 
ATOM      7  HN  UNL     1     -41.178 -51.633  15.780  1.00  0.00     0.166 HD
ENDROOT
BRANCH   1   8
HETATM    8  N   UNL     1     -40.534 -54.050  15.440  1.00  0.00    -0.365 N 
HETATM    9  C   UNL     1     -41.463 -55.078  15.942  1.00  0.00     0.140 C 
HETATM   10  C   UNL     1     -41.324 -55.227  17.473  1.00  0.00     0.127 C 
HETATM   11  N   UNL     1     -39.903 -55.402  17.935  1.00  0.00    -0.208 NA
HETATM   12  C   UNL     1     -39.039 -54.317  17.353  1.00  0.00     0.127 C 
HETATM   13  C   UNL     1     -39.135 -54.270  15.816  1.00  0.00     0.140 C 
BRANCH  11  14
HETATM   14  S   UNL     1     -39.235 -56.953  17.832  1.00  0.00     0.207 S 
HETATM   15  C   UNL     1     -39.620 -57.652  19.421  1.00  0.00     0.180 C 
HETATM   16  O   UNL     1     -37.802 -56.815  17.754  1.00  0.00    -0.212 OA
HETATM   17  O   UNL     1     -39.957 -57.695  16.819  1.00  0.00    -0.212 OA
ENDBRANCH  11  14
ENDBRANCH   1   8
BRANCH   4  18
HETATM   18  N   UNL     1     -41.819 -50.270  11.581  1.00  0.00    -0.308 N 
HETATM   19  C   UNL     1     -40.855 -49.503  10.983  1.00  0.00     0.321 C 
HETATM   20  O   UNL     1     -39.646 -49.699  11.033  1.00  0.00    -0.247 OA
HETATM   21  N   UNL     1     -41.349 -48.452  10.250  1.00  0.00    -0.339 N 
HETATM   22  H   UNL     1     -40.620 -47.877   9.845  1.00  0.00     0.164 HD
HETATM   23  H   UNL     1     -42.711 -50.272  11.116  1.00  0.00     0.170 HD
BRANCH  21  24
HETATM   24  C   UNL     1     -42.686 -47.927  10.366  1.00  0.00     0.150 C 
BRANCH  24  25
HETATM   25  C   UNL     1     -43.247 -47.624   9.022  1.00  0.00    -0.018 C 
HETATM   26  C   UNL     1     -43.419 -46.378   8.562  1.00  0.00     0.008 C 
ENDBRANCH  24  25
ENDBRANCH  21  24
ENDBRANCH   4  18
TORSDOF 5
ENDMDL
MODEL 4
REMARK VINA RESULT:      -5.9      1.817      2.804
REMARK  5 active torsions:
REMARK  status: ('A' for Active; 'I' for Inactive)
REMARK    1  A    between atoms: S_2  and  N_5 
REMARK    2  A    between atoms: N_8  and  C_11 
REMARK    3  A    between atoms: C_14  and  N_15 
REMARK       I    between atoms: N_15  and  C_16 
REMARK       I    between atoms: C_16  and  N_18 
REMARK    4  A    between atoms: N_18  and  C_19 
REMARK    5  A    between atoms: C_19  and  C_20 
ROOT
HETATM    1  C   UNL     1     -38.145 -48.878  14.188  1.00  0.00     0.103 A 
HETATM    2  C   UNL     1     -37.806 -49.305  12.902  1.00  0.00     0.051 A 
HETATM    3  C   UNL     1     -38.662 -49.080  11.816  1.00  0.00     0.035 A 
HETATM    4  C   UNL     1     -39.847 -48.402  12.029  1.00  0.00     0.051 A 
HETATM    5  C   UNL     1     -40.129 -48.018  13.328  1.00  0.00     0.119 A 
HETATM    6  N   UNL     1     -39.323 -48.248  14.387  1.00  0.00    -0.350 N 
ATOM      7  HN  UNL     1     -39.600 -47.951  15.322  1.00  0.00     0.166 HD
ENDROOT
BRANCH   1   8
HETATM    8  N   UNL     1     -37.299 -48.986  15.269  1.00  0.00    -0.365 N 
HETATM    9  C   UNL     1     -37.075 -47.807  16.124  1.00  0.00     0.140 C 
HETATM   10  C   UNL     1     -35.593 -47.726  16.551  1.00  0.00     0.127 C 
HETATM   11  N   UNL     1     -35.060 -49.012  17.121  1.00  0.00    -0.208 NA
HETATM   12  C   UNL     1     -35.358 -50.149  16.183  1.00  0.00     0.127 C 
HETATM   13  C   UNL     1     -36.861 -50.251  15.863  1.00  0.00     0.140 C 
BRANCH  11  14
HETATM   14  S   UNL     1     -35.398 -49.344  18.746  1.00  0.00     0.207 S 
HETATM   15  C   UNL     1     -35.373 -47.730  19.490  1.00  0.00     0.180 C 
HETATM   16  O   UNL     1     -34.288 -50.089  19.288  1.00  0.00    -0.212 OA
HETATM   17  O   UNL     1     -36.745 -49.867  18.834  1.00  0.00    -0.212 OA
ENDBRANCH  11  14
ENDBRANCH   1   8
BRANCH   4  18
HETATM   18  N   UNL     1     -40.720 -48.013  11.005  1.00  0.00    -0.308 N 
HETATM   19  C   UNL     1     -41.019 -46.726  10.644  1.00  0.00     0.321 C 
HETATM   20  O   UNL     1     -40.465 -45.715  11.060  1.00  0.00    -0.247 OA
HETATM   21  N   UNL     1     -42.017 -46.623   9.706  1.00  0.00    -0.339 N 
HETATM   22  H   UNL     1     -42.247 -45.664   9.479  1.00  0.00     0.164 HD
HETATM   23  H   UNL     1     -40.913 -48.707  10.304  1.00  0.00     0.170 HD
BRANCH  21  24
HETATM   24  C   UNL     1     -42.949 -47.674   9.381  1.00  0.00     0.150 C 
BRANCH  24  25
HETATM   25  C   UNL     1     -44.286 -47.386   9.968  1.00  0.00    -0.018 C 
HETATM   26  C   UNL     1     -45.409 -47.324   9.239  1.00  0.00     0.008 C 
ENDBRANCH  24  25
ENDBRANCH  21  24
ENDBRANCH   4  18
TORSDOF 5
ENDMDL
MODEL 5
REMARK VINA RESULT:      -5.8      5.607      6.846
REMARK  5 active torsions:
REMARK  status: ('A' for Active; 'I' for Inactive)
REMARK    1  A    between atoms: S_2  and  N_5 
REMARK    2  A    between atoms: N_8  and  C_11 
REMARK    3  A    between atoms: C_14  and  N_15 
REMARK       I    between atoms: N_15  and  C_16 
REMARK       I    between atoms: C_16  and  N_18 
REMARK    4  A    between atoms: N_18  and  C_19 
REMARK    5  A    between atoms: C_19  and  C_20 
ROOT
HETATM    1  C   UNL     1     -43.260 -49.438  13.080  1.00  0.00     0.103 A 
HETATM    2  C   UNL     1     -42.903 -48.426  13.975  1.00  0.00     0.051 A 
HETATM    3  C   UNL     1     -42.686 -47.114  13.534  1.00  0.00     0.035 A 
HETATM    4  C   UNL     1     -42.854 -46.822  12.195  1.00  0.00     0.051 A 
HETATM    5  C   UNL     1     -43.194 -47.872  11.359  1.00  0.00     0.119 A 
HETATM    6  N   UNL     1     -43.385 -49.145  11.767  1.00  0.00    -0.350 N 
ATOM      7  HN  UNL     1     -43.620 -49.874  11.094  1.00  0.00     0.166 HD
ENDROOT
BRANCH   1   8
HETATM    8  N   UNL     1     -43.581 -50.717  13.473  1.00  0.00    -0.365 N 
HETATM    9  C   UNL     1     -44.867 -50.958  14.149  1.00  0.00     0.140 C 
HETATM   10  C   UNL     1     -44.691 -51.987  15.289  1.00  0.00     0.127 C 
HETATM   11  N   UNL     1     -43.973 -53.238  14.865  1.00  0.00    -0.208 NA
HETATM   12  C   UNL     1     -42.688 -52.880  14.169  1.00  0.00     0.127 C 
HETATM   13  C   UNL     1     -42.924 -51.931  12.980  1.00  0.00     0.140 C 
BRANCH  11  14
HETATM   14  S   UNL     1     -44.881 -54.429  14.076  1.00  0.00     0.207 S 
HETATM   15  C   UNL     1     -46.503 -54.209  14.770  1.00  0.00     0.180 C 
HETATM   16  O   UNL     1     -44.396 -55.716  14.508  1.00  0.00    -0.212 OA
HETATM   17  O   UNL     1     -44.939 -54.102  12.667  1.00  0.00    -0.212 OA
ENDBRANCH  11  14
ENDBRANCH   1   8
BRANCH   4  18
HETATM   18  N   UNL     1     -42.784 -45.529  11.660  1.00  0.00    -0.308 N 
HETATM   19  C   UNL     1     -41.653 -44.769  11.530  1.00  0.00     0.321 C 
HETATM   20  O   UNL     1     -40.505 -45.149  11.726  1.00  0.00    -0.247 OA
HETATM   21  N   UNL     1     -41.886 -43.482  11.110  1.00  0.00    -0.339 N 
HETATM   22  H   UNL     1     -41.041 -42.927  11.054  1.00  0.00     0.164 HD
HETATM   23  H   UNL     1     -43.551 -45.256  11.070  1.00  0.00     0.170 HD
BRANCH  21  24
HETATM   24  C   UNL     1     -43.168 -42.825  11.154  1.00  0.00     0.150 C 
BRANCH  24  25
HETATM   25  C   UNL     1     -43.288 -41.995  12.384  1.00  0.00    -0.018 C 
HETATM   26  C   UNL     1     -44.146 -40.973  12.497  1.00  0.00     0.008 C 
ENDBRANCH  24  25
ENDBRANCH  21  24
ENDBRANCH   4  18
TORSDOF 5
ENDMDL
MODEL 6
REMARK VINA RESULT:      -5.7      5.420      6.935
REMARK  5 active torsions:
REMARK  status: ('A' for Active; 'I' for Inactive)
REMARK    1  A    between atoms: S_2  and  N_5 
REMARK    2  A    between atoms: N_8  and  C_11 
REMARK    3  A    between atoms: C_14  and  N_15 
REMARK       I    between atoms: N_15  and  C_16 
REMARK       I    between atoms: C_16  and  N_18 
REMARK    4  A    between atoms: N_18  and  C_19 
REMARK    5  A    between atoms: C_19  and  C_20 
ROOT
HETATM    1  C   UNL     1     -43.084 -49.477  12.976  1.00  0.00     0.103 A 
HETATM    2  C   UNL     1     -42.562 -48.561  13.893  1.00  0.00     0.051 A 
HETATM    3  C   UNL     1     -42.107 -47.302  13.478  1.00  0.00     0.035 A 
HETATM    4  C   UNL     1     -42.205 -46.963  12.143  1.00  0.00     0.051 A 
HETATM    5  C   UNL     1     -42.718 -47.920  11.285  1.00  0.00     0.119 A 
HETATM    6  N   UNL     1     -43.139 -49.144  11.668  1.00  0.00    -0.350 N 
ATOM      7  HN  UNL     1     -43.494 -49.808  10.980  1.00  0.00     0.166 HD
ENDROOT
BRANCH   1   8
HETATM    8  N   UNL     1     -43.633 -50.684  13.342  1.00  0.00    -0.365 N 
HETATM    9  C   UNL     1     -43.018 -51.930  12.850  1.00  0.00     0.140 C 
HETATM   10  C   UNL     1     -44.110 -52.959  12.481  1.00  0.00     0.127 C 
HETATM   11  N   UNL     1     -45.136 -53.162  13.562  1.00  0.00    -0.208 NA
HETATM   12  C   UNL     1     -45.683 -51.833  14.004  1.00  0.00     0.127 C 
HETATM   13  C   UNL     1     -44.566 -50.874  14.456  1.00  0.00     0.140 C 
BRANCH  11  14
HETATM   14  S   UNL     1     -44.735 -54.206  14.832  1.00  0.00     0.207 S 
HETATM   15  C   UNL     1     -45.993 -53.858  16.038  1.00  0.00     0.180 C 
HETATM   16  O   UNL     1     -43.475 -53.773  15.382  1.00  0.00    -0.212 OA
HETATM   17  O   UNL     1     -44.905 -55.569  14.374  1.00  0.00    -0.212 OA
ENDBRANCH  11  14
ENDBRANCH   1   8
BRANCH   4  18
HETATM   18  N   UNL     1     -41.898 -45.694  11.633  1.00  0.00    -0.308 N 
HETATM   19  C   UNL     1     -40.710 -45.318  11.066  1.00  0.00     0.321 C 
HETATM   20  O   UNL     1     -39.779 -46.063  10.784  1.00  0.00    -0.247 OA
HETATM   21  N   UNL     1     -40.623 -43.977  10.782  1.00  0.00    -0.339 N 
HETATM   22  H   UNL     1     -39.725 -43.713  10.397  1.00  0.00     0.164 HD
HETATM   23  H   UNL     1     -42.684 -45.112  11.401  1.00  0.00     0.170 HD
BRANCH  21  24
HETATM   24  C   UNL     1     -41.484 -42.963  11.339  1.00  0.00     0.150 C 
BRANCH  24  25
HETATM   25  C   UNL     1     -40.680 -41.908  12.013  1.00  0.00    -0.018 C 
HETATM   26  C   UNL     1     -39.771 -42.171  12.961  1.00  0.00     0.008 C 
ENDBRANCH  24  25
ENDBRANCH  21  24
ENDBRANCH   4  18
TORSDOF 5
ENDMDL
MODEL 7
REMARK VINA RESULT:      -5.5      4.143      8.171
REMARK  5 active torsions:
REMARK  status: ('A' for Active; 'I' for Inactive)
REMARK    1  A    between atoms: S_2  and  N_5 
REMARK    2  A    between atoms: N_8  and  C_11 
REMARK    3  A    between atoms: C_14  and  N_15 
REMARK       I    between atoms: N_15  and  C_16 
REMARK       I    between atoms: C_16  and  N_18 
REMARK    4  A    between atoms: N_18  and  C_19 
REMARK    5  A    between atoms: C_19  and  C_20 
ROOT
HETATM    1  C   UNL     1     -40.620 -48.804  12.107  1.00  0.00     0.103 A 
HETATM    2  C   UNL     1     -40.775 -49.939  11.306  1.00  0.00     0.051 A 
HETATM    3  C   UNL     1     -40.484 -51.218  11.799  1.00  0.00     0.035 A 
HETATM    4  C   UNL     1     -40.062 -51.349  13.108  1.00  0.00     0.051 A 
HETATM    5  C   UNL     1     -39.916 -50.185  13.843  1.00  0.00     0.119 A 
HETATM    6  N   UNL     1     -40.171 -48.946  13.373  1.00  0.00    -0.350 N 
ATOM      7  HN  UNL     1     -40.028 -48.128  13.966  1.00  0.00     0.166 HD
ENDROOT
BRANCH   1   8
HETATM    8  N   UNL     1     -40.984 -47.540  11.706  1.00  0.00    -0.365 N 
HETATM    9  C   UNL     1     -42.392 -47.273  11.364  1.00  0.00     0.140 C 
HETATM   10  C   UNL     1     -42.480 -46.339  10.137  1.00  0.00     0.127 C 
HETATM   11  N   UNL     1     -41.631 -45.103  10.258  1.00  0.00    -0.208 NA
HETATM   12  C   UNL     1     -40.224 -45.485  10.628  1.00  0.00     0.127 C 
HETATM   13  C   UNL     1     -40.177 -46.334  11.912  1.00  0.00     0.140 C 
BRANCH  11  14
HETATM   14  S   UNL     1     -42.258 -43.810  11.152  1.00  0.00     0.207 S 
HETATM   15  C   UNL     1     -40.843 -42.754  11.360  1.00  0.00     0.180 C 
HETATM   16  O   UNL     1     -42.624 -44.307  12.455  1.00  0.00    -0.212 OA
HETATM   17  O   UNL     1     -43.229 -43.117  10.331  1.00  0.00    -0.212 OA
ENDBRANCH  11  14
ENDBRANCH   1   8
BRANCH   4  18
HETATM   18  N   UNL     1     -39.860 -52.580  13.745  1.00  0.00    -0.308 N 
HETATM   19  C   UNL     1     -40.805 -53.301  14.426  1.00  0.00     0.321 C 
HETATM   20  O   UNL     1     -42.005 -53.058  14.464  1.00  0.00    -0.247 OA
HETATM   21  N   UNL     1     -40.307 -54.402  15.080  1.00  0.00    -0.339 N 
HETATM   22  H   UNL     1     -41.015 -54.901  15.605  1.00  0.00     0.164 HD
HETATM   23  H   UNL     1     -39.060 -53.107  13.441  1.00  0.00     0.170 HD
BRANCH  21  24
HETATM   24  C   UNL     1     -38.915 -54.618  15.380  1.00  0.00     0.150 C 
BRANCH  24  25
HETATM   25  C   UNL     1     -38.754 -55.753  16.328  1.00  0.00    -0.018 C 
HETATM   26  C   UNL     1     -39.789 -56.407  16.872  1.00  0.00     0.008 C 
ENDBRANCH  24  25
ENDBRANCH  21  24
ENDBRANCH   4  18
TORSDOF 5
ENDMDL
MODEL 8
REMARK VINA RESULT:      -5.5      6.133      7.035
REMARK  5 active torsions:
REMARK  status: ('A' for Active; 'I' for Inactive)
REMARK    1  A    between atoms: S_2  and  N_5 
REMARK    2  A    between atoms: N_8  and  C_11 
REMARK    3  A    between atoms: C_14  and  N_15 
REMARK       I    between atoms: N_15  and  C_16 
REMARK       I    between atoms: C_16  and  N_18 
REMARK    4  A    between atoms: N_18  and  C_19 
REMARK    5  A    between atoms: C_19  and  C_20 
ROOT
HETATM    1  C   UNL     1     -39.787 -54.155  16.089  1.00  0.00     0.103 A 
HETATM    2  C   UNL     1     -40.889 -53.548  16.697  1.00  0.00     0.051 A 
HETATM    3  C   UNL     1     -42.039 -53.234  15.960  1.00  0.00     0.035 A 
HETATM    4  C   UNL     1     -42.082 -53.556  14.618  1.00  0.00     0.051 A 
HETATM    5  C   UNL     1     -40.952 -54.143  14.074  1.00  0.00     0.119 A 
HETATM    6  N   UNL     1     -39.830 -54.431  14.767  1.00  0.00    -0.350 N 
ATOM      7  HN  UNL     1     -39.027 -54.851  14.300  1.00  0.00     0.166 HD
ENDROOT
BRANCH   1   8
HETATM    8  N   UNL     1     -38.675 -54.573  16.783  1.00  0.00    -0.365 N 
HETATM    9  C   UNL     1     -38.132 -55.919  16.524  1.00  0.00     0.140 C 
HETATM   10  C   UNL     1     -37.668 -56.574  17.844  1.00  0.00     0.127 C 
HETATM   11  N   UNL     1     -36.770 -55.695  18.670  1.00  0.00    -0.208 NA
HETATM   12  C   UNL     1     -37.407 -54.345  18.857  1.00  0.00     0.127 C 
HETATM   13  C   UNL     1     -37.763 -53.687  17.511  1.00  0.00     0.140 C 
BRANCH  11  14
HETATM   14  S   UNL     1     -35.131 -55.638  18.248  1.00  0.00     0.207 S 
HETATM   15  C   UNL     1     -34.372 -56.664  19.486  1.00  0.00     0.180 C 
HETATM   16  O   UNL     1     -34.666 -54.290  18.457  1.00  0.00    -0.212 OA
HETATM   17  O   UNL     1     -34.969 -56.280  16.960  1.00  0.00    -0.212 OA
ENDBRANCH  11  14
ENDBRANCH   1   8
BRANCH   4  18
HETATM   18  N   UNL     1     -43.217 -53.403  13.812  1.00  0.00    -0.308 N 
HETATM   19  C   UNL     1     -43.319 -52.606  12.703  1.00  0.00     0.321 C 
HETATM   20  O   UNL     1     -42.397 -52.012  12.158  1.00  0.00    -0.247 OA
HETATM   21  N   UNL     1     -44.588 -52.527  12.183  1.00  0.00    -0.339 N 
HETATM   22  H   UNL     1     -44.649 -51.905  11.386  1.00  0.00     0.164 HD
HETATM   23  H   UNL     1     -43.902 -54.137  13.872  1.00  0.00     0.170 HD
BRANCH  21  24
HETATM   24  C   UNL     1     -45.788 -52.898  12.888  1.00  0.00     0.150 C 
BRANCH  24  25
HETATM   25  C   UNL     1     -46.517 -51.687  13.355  1.00  0.00    -0.018 C 
HETATM   26  C   UNL     1     -46.690 -51.388  14.649  1.00  0.00     0.008 C 
ENDBRANCH  24  25
ENDBRANCH  21  24
ENDBRANCH   4  18
TORSDOF 5
ENDMDL
MODEL 9
REMARK VINA RESULT:      -5.4      4.783      6.735
REMARK  5 active torsions:
REMARK  status: ('A' for Active; 'I' for Inactive)
REMARK    1  A    between atoms: S_2  and  N_5 
REMARK    2  A    between atoms: N_8  and  C_11 
REMARK    3  A    between atoms: C_14  and  N_15 
REMARK       I    between atoms: N_15  and  C_16 
REMARK       I    between atoms: C_16  and  N_18 
REMARK    4  A    between atoms: N_18  and  C_19 
REMARK    5  A    between atoms: C_19  and  C_20 
ROOT
HETATM    1  C   UNL     1     -41.419 -47.143  12.498  1.00  0.00     0.103 A 
HETATM    2  C   UNL     1     -41.318 -47.926  11.345  1.00  0.00     0.051 A 
HETATM    3  C   UNL     1     -41.698 -49.275  11.352  1.00  0.00     0.035 A 
HETATM    4  C   UNL     1     -42.203 -49.821  12.516  1.00  0.00     0.051 A 
HETATM    5  C   UNL     1     -42.264 -48.995  13.626  1.00  0.00     0.119 A 
HETATM    6  N   UNL     1     -41.880 -47.701  13.638  1.00  0.00    -0.350 N 
ATOM      7  HN  UNL     1     -41.938 -47.153  14.496  1.00  0.00     0.166 HD
ENDROOT
BRANCH   1   8
HETATM    8  N   UNL     1     -41.153 -45.793  12.520  1.00  0.00    -0.365 N 
HETATM    9  C   UNL     1     -42.209 -44.847  12.116  1.00  0.00     0.140 C 
HETATM   10  C   UNL     1     -41.606 -43.688  11.292  1.00  0.00     0.127 C 
HETATM   11  N   UNL     1     -40.415 -43.041  11.945  1.00  0.00    -0.208 NA
HETATM   12  C   UNL     1     -39.412 -44.092  12.334  1.00  0.00     0.127 C 
HETATM   13  C   UNL     1     -40.034 -45.174  13.236  1.00  0.00     0.140 C 
BRANCH  11  14
HETATM   14  S   UNL     1     -40.715 -41.887  13.146  1.00  0.00     0.207 S 
HETATM   15  C   UNL     1     -40.547 -40.352  12.266  1.00  0.00     0.180 C 
HETATM   16  O   UNL     1     -39.643 -41.956  14.107  1.00  0.00    -0.212 OA
HETATM   17  O   UNL     1     -42.092 -42.020  13.573  1.00  0.00    -0.212 OA
ENDBRANCH  11  14
ENDBRANCH   1   8
BRANCH   4  18
HETATM   18  N   UNL     1     -42.727 -51.117  12.610  1.00  0.00    -0.308 N 
HETATM   19  C   UNL     1     -42.090 -52.274  12.248  1.00  0.00     0.321 C 
HETATM   20  O   UNL     1     -40.913 -52.375  11.921  1.00  0.00    -0.247 OA
HETATM   21  N   UNL     1     -42.883 -53.393  12.305  1.00  0.00    -0.339 N 
HETATM   22  H   UNL     1     -42.404 -54.232  12.001  1.00  0.00     0.164 HD
HETATM   23  H   UNL     1     -43.495 -51.235  13.248  1.00  0.00     0.170 HD
BRANCH  21  24
HETATM   24  C   UNL     1     -44.323 -53.376  12.357  1.00  0.00     0.150 C 
BRANCH  24  25
HETATM   25  C   UNL     1     -44.820 -54.311  13.404  1.00  0.00    -0.018 C 
HETATM   26  C   UNL     1     -44.041 -54.807  14.374  1.00  0.00     0.008 C 
ENDBRANCH  24  25
ENDBRANCH  21  24
ENDBRANCH   4  18
TORSDOF 5
ENDMDL
