MODEL 1
REMARK VINA RESULT:      -5.5      0.000      0.000
REMARK  4 active torsions:
REMARK  status: ('A' for Active; 'I' for Inactive)
REMARK    1  A    between atoms: O_2  and  C_3 
REMARK    2  A    between atoms: C_3  and  C_6 
REMARK       I    between atoms: C_6  and  N_8 
REMARK    3  A    between atoms: N_8  and  C_9 
REMARK    4  A    between atoms: C_15  and  O_16 
ROOT
HETATM    1  C   UNL     1     -44.306 -47.550   9.021  1.00  0.00     0.070 A 
HETATM    2  C   UNL     1     -45.593 -47.629   9.545  1.00  0.00     0.049 A 
HETATM    3  C   UNL     1     -46.577 -48.252   8.796  1.00  0.00     0.090 A 
HETATM    4  N   UNL     1     -46.367 -48.795   7.577  1.00  0.00    -0.372 N 
ATOM      5  HN  UNL     1     -47.113 -49.259   7.059  1.00  0.00     0.164 HD
HETATM    6  C   UNL     1     -45.114 -48.692   7.079  1.00  0.00     0.126 A 
HETATM    7  C   UNL     1     -44.071 -48.071   7.748  1.00  0.00     0.107 A 
ENDROOT
BRANCH   1   8
HETATM    8  N   UNL     1     -43.220 -46.969   9.709  1.00  0.00    -0.322 N 
HETATM    9  C   UNL     1     -42.934 -45.619   9.820  1.00  0.00     0.256 C 
HETATM   10  O   UNL     1     -43.575 -44.708   9.302  1.00  0.00    -0.270 OA
HETATM   11  H   UNL     1     -42.689 -47.606  10.300  1.00  0.00     0.169 HD
BRANCH   9  12
HETATM   12  C   UNL     1     -41.680 -45.332  10.692  1.00  0.00     0.133 C 
HETATM   13  C   UNL     1     -40.960 -46.646  11.032  1.00  0.00     0.056 C 
HETATM   14  C   UNL     1     -42.159 -44.696  12.006  1.00  0.00     0.056 C 
BRANCH  12  15
HETATM   15  O   UNL     1     -40.788 -44.381  10.092  1.00  0.00    -0.376 OA
HETATM   16  C   UNL     1     -39.446 -44.830   9.924  1.00  0.00     0.203 C 
ENDBRANCH  12  15
ENDBRANCH   9  12
ENDBRANCH   1   8
BRANCH   7  17
HETATM   17  O   UNL     1     -42.824 -47.950   7.199  1.00  0.00    -0.357 OA
HETATM   18  H   UNL     1     -42.333 -47.283   7.712  1.00  0.00     0.217 HD
ENDBRANCH   7  17
TORSDOF 4
ENDMDL
MODEL 2
REMARK VINA RESULT:      -4.9      2.325      3.922
REMARK  4 active torsions:
REMARK  status: ('A' for Active; 'I' for Inactive)
REMARK    1  A    between atoms: O_2  and  C_3 
REMARK    2  A    between atoms: C_3  and  C_6 
REMARK       I    between atoms: C_6  and  N_8 
REMARK    3  A    between atoms: N_8  and  C_9 
REMARK    4  A    between atoms: C_15  and  O_16 
ROOT
HETATM    1  C   UNL     1     -42.699 -45.773  10.626  1.00  0.00     0.070 A 
HETATM    2  C   UNL     1     -41.993 -46.919  10.978  1.00  0.00     0.049 A 
HETATM    3  C   UNL     1     -42.044 -48.014  10.132  1.00  0.00     0.090 A 
HETATM    4  N   UNL     1     -42.742 -48.044   8.975  1.00  0.00    -0.372 N 
ATOM      5  HN  UNL     1     -42.746 -48.865   8.371  1.00  0.00     0.164 HD
HETATM    6  C   UNL     1     -43.435 -46.926   8.662  1.00  0.00     0.126 A 
HETATM    7  C   UNL     1     -43.458 -45.789   9.456  1.00  0.00     0.107 A 
ENDROOT
BRANCH   1   8
HETATM    8  N   UNL     1     -42.692 -44.588  11.393  1.00  0.00    -0.322 N 
HETATM    9  C   UNL     1     -41.773 -43.555  11.318  1.00  0.00     0.256 C 
HETATM   10  O   UNL     1     -40.791 -43.526  10.581  1.00  0.00    -0.270 OA
HETATM   11  H   UNL     1     -43.532 -44.424  11.945  1.00  0.00     0.169 HD
BRANCH   9  12
HETATM   12  C   UNL     1     -42.097 -42.381  12.283  1.00  0.00     0.133 C 
HETATM   13  C   UNL     1     -41.492 -41.074  11.746  1.00  0.00     0.056 C 
HETATM   14  C   UNL     1     -41.439 -42.691  13.636  1.00  0.00     0.056 C 
BRANCH  12  15
HETATM   15  O   UNL     1     -43.501 -42.244  12.545  1.00  0.00    -0.376 OA
HETATM   16  C   UNL     1     -44.120 -41.103  11.959  1.00  0.00     0.203 C 
ENDBRANCH  12  15
ENDBRANCH   9  12
ENDBRANCH   1   8
BRANCH   7  17
HETATM   17  O   UNL     1     -44.201 -44.688   9.129  1.00  0.00    -0.357 OA
HETATM   18  H   UNL     1     -45.130 -44.967   9.047  1.00  0.00     0.217 HD
ENDBRANCH   7  17
TORSDOF 4
ENDMDL
MODEL 3
REMARK VINA RESULT:      -4.8      2.245      5.721
REMARK  4 active torsions:
REMARK  status: ('A' for Active; 'I' for Inactive)
REMARK    1  A    between atoms: O_2  and  C_3 
REMARK    2  A    between atoms: C_3  and  C_6 
REMARK       I    between atoms: C_6  and  N_8 
REMARK    3  A    between atoms: N_8  and  C_9 
REMARK    4  A    between atoms: C_15  and  O_16 
ROOT
HETATM    1  C   UNL     1     -41.532 -45.506  11.379  1.00  0.00     0.070 A 
HETATM    2  C   UNL     1     -41.698 -45.566  12.760  1.00  0.00     0.049 A 
HETATM    3  C   UNL     1     -40.656 -45.151  13.572  1.00  0.00     0.090 A 
HETATM    4  N   UNL     1     -39.475 -44.686  13.107  1.00  0.00    -0.372 N 
ATOM      5  HN  UNL     1     -38.735 -44.376  13.735  1.00  0.00     0.164 HD
HETATM    6  C   UNL     1     -39.329 -44.654  11.763  1.00  0.00     0.126 A 
HETATM    7  C   UNL     1     -40.309 -45.065  10.874  1.00  0.00     0.107 A 
ENDROOT
BRANCH   1   8
HETATM    8  N   UNL     1     -42.537 -45.871  10.458  1.00  0.00    -0.322 N 
HETATM    9  C   UNL     1     -42.859 -47.152  10.045  1.00  0.00     0.256 C 
HETATM   10  O   UNL     1     -42.289 -48.181  10.398  1.00  0.00    -0.270 OA
HETATM   11  H   UNL     1     -43.175 -45.123  10.195  1.00  0.00     0.169 HD
BRANCH   9  12
HETATM   12  C   UNL     1     -44.053 -47.189   9.051  1.00  0.00     0.133 C 
HETATM   13  C   UNL     1     -43.618 -47.833   7.726  1.00  0.00     0.056 C 
HETATM   14  C   UNL     1     -44.468 -45.738   8.763  1.00  0.00     0.056 C 
BRANCH  12  15
HETATM   15  O   UNL     1     -45.214 -47.834   9.596  1.00  0.00    -0.376 OA
HETATM   16  C   UNL     1     -46.463 -47.324   9.138  1.00  0.00     0.203 C 
ENDBRANCH  12  15
ENDBRANCH   9  12
ENDBRANCH   1   8
BRANCH   7  17
HETATM   17  O   UNL     1     -40.114 -45.056   9.519  1.00  0.00    -0.357 OA
HETATM   18  H   UNL     1     -40.823 -44.523   9.118  1.00  0.00     0.217 HD
ENDBRANCH   7  17
TORSDOF 4
ENDMDL
MODEL 4
REMARK VINA RESULT:      -4.7      4.134      5.981
REMARK  4 active torsions:
REMARK  status: ('A' for Active; 'I' for Inactive)
REMARK    1  A    between atoms: O_2  and  C_3 
REMARK    2  A    between atoms: C_3  and  C_6 
REMARK       I    between atoms: C_6  and  N_8 
REMARK    3  A    between atoms: N_8  and  C_9 
REMARK    4  A    between atoms: C_15  and  O_16 
ROOT
HETATM    1  C   UNL     1     -40.422 -47.370  11.065  1.00  0.00     0.070 A 
HETATM    2  C   UNL     1     -40.003 -46.043  11.070  1.00  0.00     0.049 A 
HETATM    3  C   UNL     1     -40.928 -45.055  10.777  1.00  0.00     0.090 A 
HETATM    4  N   UNL     1     -42.225 -45.297  10.485  1.00  0.00    -0.372 N 
ATOM      5  HN  UNL     1     -42.881 -44.542  10.287  1.00  0.00     0.164 HD
HETATM    6  C   UNL     1     -42.606 -46.594  10.468  1.00  0.00     0.126 A 
HETATM    7  C   UNL     1     -41.747 -47.650  10.730  1.00  0.00     0.107 A 
ENDROOT
BRANCH   1   8
HETATM    8  N   UNL     1     -39.576 -48.455  11.380  1.00  0.00    -0.322 N 
HETATM    9  C   UNL     1     -39.310 -48.962  12.641  1.00  0.00     0.256 C 
HETATM   10  O   UNL     1     -39.752 -48.517  13.697  1.00  0.00    -0.270 OA
HETATM   11  H   UNL     1     -39.255 -49.000  10.583  1.00  0.00     0.169 HD
BRANCH   9  12
HETATM   12  C   UNL     1     -38.362 -50.194  12.614  1.00  0.00     0.133 C 
HETATM   13  C   UNL     1     -37.474 -50.204  13.867  1.00  0.00     0.056 C 
HETATM   14  C   UNL     1     -37.452 -50.057  11.384  1.00  0.00     0.056 C 
BRANCH  12  15
HETATM   15  O   UNL     1     -39.065 -51.435  12.454  1.00  0.00    -0.376 OA
HETATM   16  C   UNL     1     -39.333 -52.141  13.662  1.00  0.00     0.203 C 
ENDBRANCH  12  15
ENDBRANCH   9  12
ENDBRANCH   1   8
BRANCH   7  17
HETATM   17  O   UNL     1     -42.156 -48.954  10.667  1.00  0.00    -0.357 OA
HETATM   18  H   UNL     1     -41.371 -49.508  10.511  1.00  0.00     0.217 HD
ENDBRANCH   7  17
TORSDOF 4
ENDMDL
MODEL 5
REMARK VINA RESULT:      -4.6      7.530      8.166
REMARK  4 active torsions:
REMARK  status: ('A' for Active; 'I' for Inactive)
REMARK    1  A    between atoms: O_2  and  C_3 
REMARK    2  A    between atoms: C_3  and  C_6 
REMARK       I    between atoms: C_6  and  N_8 
REMARK    3  A    between atoms: N_8  and  C_9 
REMARK    4  A    between atoms: C_15  and  O_16 
ROOT
HETATM    1  C   UNL     1     -43.626 -53.705  13.498  1.00  0.00     0.070 A 
HETATM    2  C   UNL     1     -44.247 -54.805  14.082  1.00  0.00     0.049 A 
HETATM    3  C   UNL     1     -45.631 -54.852  14.100  1.00  0.00     0.090 A 
HETATM    4  N   UNL     1     -46.426 -53.891  13.582  1.00  0.00    -0.372 N 
ATOM      5  HN  UNL     1     -47.443 -53.966  13.602  1.00  0.00     0.164 HD
HETATM    6  C   UNL     1     -45.802 -52.823  13.036  1.00  0.00     0.126 A 
HETATM    7  C   UNL     1     -44.424 -52.681  12.989  1.00  0.00     0.107 A 
ENDROOT
BRANCH   1   8
HETATM    8  N   UNL     1     -42.225 -53.567  13.394  1.00  0.00    -0.322 N 
HETATM    9  C   UNL     1     -41.359 -53.118  14.376  1.00  0.00     0.256 C 
HETATM   10  O   UNL     1     -41.687 -52.735  15.496  1.00  0.00    -0.270 OA
HETATM   11  H   UNL     1     -41.810 -53.983  12.562  1.00  0.00     0.169 HD
BRANCH   9  12
HETATM   12  C   UNL     1     -39.870 -53.136  13.930  1.00  0.00     0.133 C 
HETATM   13  C   UNL     1     -39.317 -54.568  13.998  1.00  0.00     0.056 C 
HETATM   14  C   UNL     1     -39.075 -52.270  14.918  1.00  0.00     0.056 C 
BRANCH  12  15
HETATM   15  O   UNL     1     -39.668 -52.552  12.635  1.00  0.00    -0.376 OA
HETATM   16  C   UNL     1     -39.585 -51.130  12.616  1.00  0.00     0.203 C 
ENDBRANCH  12  15
ENDBRANCH   9  12
ENDBRANCH   1   8
BRANCH   7  17
HETATM   17  O   UNL     1     -43.825 -51.568  12.464  1.00  0.00    -0.357 OA
HETATM   18  H   UNL     1     -43.019 -51.854  11.998  1.00  0.00     0.217 HD
ENDBRANCH   7  17
TORSDOF 4
ENDMDL
MODEL 6
REMARK VINA RESULT:      -4.6      6.374      7.337
REMARK  4 active torsions:
REMARK  status: ('A' for Active; 'I' for Inactive)
REMARK    1  A    between atoms: O_2  and  C_3 
REMARK    2  A    between atoms: C_3  and  C_6 
REMARK       I    between atoms: C_6  and  N_8 
REMARK    3  A    between atoms: N_8  and  C_9 
REMARK    4  A    between atoms: C_15  and  O_16 
ROOT
HETATM    1  C   UNL     1     -40.954 -52.159  13.503  1.00  0.00     0.070 A 
HETATM    2  C   UNL     1     -41.483 -52.164  14.790  1.00  0.00     0.049 A 
HETATM    3  C   UNL     1     -42.141 -53.300  15.232  1.00  0.00     0.090 A 
HETATM    4  N   UNL     1     -42.304 -54.415  14.488  1.00  0.00    -0.372 N 
ATOM      5  HN  UNL     1     -42.783 -55.239  14.852  1.00  0.00     0.164 HD
HETATM    6  C   UNL     1     -41.798 -54.382  13.235  1.00  0.00     0.126 A 
HETATM    7  C   UNL     1     -41.140 -53.285  12.701  1.00  0.00     0.107 A 
ENDROOT
BRANCH   1   8
HETATM    8  N   UNL     1     -40.236 -51.072  12.960  1.00  0.00    -0.322 N 
HETATM    9  C   UNL     1     -38.863 -50.971  12.818  1.00  0.00     0.256 C 
HETATM   10  O   UNL     1     -38.044 -51.814  13.177  1.00  0.00    -0.270 OA
HETATM   11  H   UNL     1     -40.804 -50.365  12.497  1.00  0.00     0.169 HD
BRANCH   9  12
HETATM   12  C   UNL     1     -38.416 -49.647  12.137  1.00  0.00     0.133 C 
HETATM   13  C   UNL     1     -37.306 -49.928  11.113  1.00  0.00     0.056 C 
HETATM   14  C   UNL     1     -37.839 -48.732  13.228  1.00  0.00     0.056 C 
BRANCH  12  15
HETATM   15  O   UNL     1     -39.508 -48.926  11.549  1.00  0.00    -0.376 OA
HETATM   16  C   UNL     1     -39.702 -47.605  12.045  1.00  0.00     0.203 C 
ENDBRANCH  12  15
ENDBRANCH   9  12
ENDBRANCH   1   8
BRANCH   7  17
HETATM   17  O   UNL     1     -40.674 -53.271  11.415  1.00  0.00    -0.357 OA
HETATM   18  H   UNL     1     -39.716 -53.100  11.445  1.00  0.00     0.217 HD
ENDBRANCH   7  17
TORSDOF 4
ENDMDL
MODEL 7
REMARK VINA RESULT:      -4.6      6.135      8.097
REMARK  4 active torsions:
REMARK  status: ('A' for Active; 'I' for Inactive)
REMARK    1  A    between atoms: O_2  and  C_3 
REMARK    2  A    between atoms: C_3  and  C_6 
REMARK       I    between atoms: C_6  and  N_8 
REMARK    3  A    between atoms: N_8  and  C_9 
REMARK    4  A    between atoms: C_15  and  O_16 
ROOT
HETATM    1  C   UNL     1     -42.156 -51.372  12.506  1.00  0.00     0.070 A 
HETATM    2  C   UNL     1     -40.999 -52.091  12.791  1.00  0.00     0.049 A 
HETATM    3  C   UNL     1     -39.782 -51.432  12.747  1.00  0.00     0.090 A 
HETATM    4  N   UNL     1     -39.642 -50.124  12.442  1.00  0.00    -0.372 N 
ATOM      5  HN  UNL     1     -38.729 -49.669  12.433  1.00  0.00     0.164 HD
HETATM    6  C   UNL     1     -40.777 -49.449  12.151  1.00  0.00     0.126 A 
HETATM    7  C   UNL     1     -42.036 -50.028  12.152  1.00  0.00     0.107 A 
ENDROOT
BRANCH   1   8
HETATM    8  N   UNL     1     -43.451 -51.931  12.553  1.00  0.00    -0.322 N 
HETATM    9  C   UNL     1     -44.317 -51.931  13.634  1.00  0.00     0.256 C 
HETATM   10  O   UNL     1     -44.073 -51.466  14.744  1.00  0.00    -0.270 OA
HETATM   11  H   UNL     1     -43.829 -52.225  11.655  1.00  0.00     0.169 HD
BRANCH   9  12
HETATM   12  C   UNL     1     -45.684 -52.599  13.318  1.00  0.00     0.133 C 
HETATM   13  C   UNL     1     -46.516 -51.689  12.401  1.00  0.00     0.056 C 
HETATM   14  C   UNL     1     -46.443 -52.762  14.644  1.00  0.00     0.056 C 
BRANCH  12  15
HETATM   15  O   UNL     1     -45.549 -53.918  12.771  1.00  0.00    -0.376 OA
HETATM   16  C   UNL     1     -45.401 -54.961  13.731  1.00  0.00     0.203 C 
ENDBRANCH  12  15
ENDBRANCH   9  12
ENDBRANCH   1   8
BRANCH   7  17
HETATM   17  O   UNL     1     -43.160 -49.325  11.814  1.00  0.00    -0.357 OA
HETATM   18  H   UNL     1     -42.884 -48.437  11.528  1.00  0.00     0.217 HD
ENDBRANCH   7  17
TORSDOF 4
ENDMDL
MODEL 8
REMARK VINA RESULT:      -4.5      6.258      8.170
REMARK  4 active torsions:
REMARK  status: ('A' for Active; 'I' for Inactive)
REMARK    1  A    between atoms: O_2  and  C_3 
REMARK    2  A    between atoms: C_3  and  C_6 
REMARK       I    between atoms: C_6  and  N_8 
REMARK    3  A    between atoms: N_8  and  C_9 
REMARK    4  A    between atoms: C_15  and  O_16 
ROOT
HETATM    1  C   UNL     1     -42.443 -50.925  12.627  1.00  0.00     0.070 A 
HETATM    2  C   UNL     1     -42.289 -49.601  13.026  1.00  0.00     0.049 A 
HETATM    3  C   UNL     1     -41.032 -49.025  12.938  1.00  0.00     0.090 A 
HETATM    4  N   UNL     1     -39.935 -49.670  12.485  1.00  0.00    -0.372 N 
ATOM      5  HN  UNL     1     -39.028 -49.209  12.422  1.00  0.00     0.164 HD
HETATM    6  C   UNL     1     -40.105 -50.961  12.120  1.00  0.00     0.126 A 
HETATM    7  C   UNL     1     -41.319 -51.626  12.191  1.00  0.00     0.107 A 
ENDROOT
BRANCH   1   8
HETATM    8  N   UNL     1     -43.681 -51.603  12.642  1.00  0.00    -0.322 N 
HETATM    9  C   UNL     1     -44.350 -52.087  13.753  1.00  0.00     0.256 C 
HETATM   10  O   UNL     1     -43.945 -52.027  14.912  1.00  0.00    -0.270 OA
HETATM   11  H   UNL     1     -44.190 -51.595  11.760  1.00  0.00     0.169 HD
BRANCH   9  12
HETATM   12  C   UNL     1     -45.715 -52.743  13.405  1.00  0.00     0.133 C 
HETATM   13  C   UNL     1     -46.529 -51.814  12.491  1.00  0.00     0.056 C 
HETATM   14  C   UNL     1     -46.495 -52.926  14.716  1.00  0.00     0.056 C 
BRANCH  12  15
HETATM   15  O   UNL     1     -45.576 -54.053  12.837  1.00  0.00    -0.376 OA
HETATM   16  C   UNL     1     -45.450 -55.114  13.780  1.00  0.00     0.203 C 
ENDBRANCH  12  15
ENDBRANCH   9  12
ENDBRANCH   1   8
BRANCH   7  17
HETATM   17  O   UNL     1     -41.447 -52.945  11.850  1.00  0.00    -0.357 OA
HETATM   18  H   UNL     1     -42.303 -53.056  11.399  1.00  0.00     0.217 HD
ENDBRANCH   7  17
TORSDOF 4
ENDMDL
MODEL 9
REMARK VINA RESULT:      -4.5      5.322      5.989
REMARK  4 active torsions:
REMARK  status: ('A' for Active; 'I' for Inactive)
REMARK    1  A    between atoms: O_2  and  C_3 
REMARK    2  A    between atoms: C_3  and  C_6 
REMARK       I    between atoms: C_6  and  N_8 
REMARK    3  A    between atoms: N_8  and  C_9 
REMARK    4  A    between atoms: C_15  and  O_16 
ROOT
HETATM    1  C   UNL     1     -42.077 -51.767  12.300  1.00  0.00     0.070 A 
HETATM    2  C   UNL     1     -43.163 -52.543  12.696  1.00  0.00     0.049 A 
HETATM    3  C   UNL     1     -42.923 -53.811  13.197  1.00  0.00     0.090 A 
HETATM    4  N   UNL     1     -41.691 -54.351  13.329  1.00  0.00    -0.372 N 
ATOM      5  HN  UNL     1     -41.553 -55.285  13.716  1.00  0.00     0.164 HD
HETATM    6  C   UNL     1     -40.653 -53.587  12.922  1.00  0.00     0.126 A 
HETATM    7  C   UNL     1     -40.797 -52.315  12.391  1.00  0.00     0.107 A 
ENDROOT
BRANCH   1   8
HETATM    8  N   UNL     1     -42.199 -50.451  11.807  1.00  0.00    -0.322 N 
HETATM    9  C   UNL     1     -42.702 -49.353  12.486  1.00  0.00     0.256 C 
HETATM   10  O   UNL     1     -43.154 -49.366  13.628  1.00  0.00    -0.270 OA
HETATM   11  H   UNL     1     -41.732 -50.275  10.920  1.00  0.00     0.169 HD
BRANCH   9  12
HETATM   12  C   UNL     1     -42.648 -48.044  11.650  1.00  0.00     0.133 C 
HETATM   13  C   UNL     1     -41.346 -47.991  10.835  1.00  0.00     0.056 C 
HETATM   14  C   UNL     1     -42.645 -46.862  12.632  1.00  0.00     0.056 C 
BRANCH  12  15
HETATM   15  O   UNL     1     -43.801 -47.866  10.815  1.00  0.00    -0.376 OA
HETATM   16  C   UNL     1     -43.524 -47.484   9.471  1.00  0.00     0.203 C 
ENDBRANCH  12  15
ENDBRANCH   9  12
ENDBRANCH   1   8
BRANCH   7  17
HETATM   17  O   UNL     1     -39.727 -51.584  11.953  1.00  0.00    -0.357 OA
HETATM   18  H   UNL     1     -38.987 -52.197  11.801  1.00  0.00     0.217 HD
ENDBRANCH   7  17
TORSDOF 4
ENDMDL
