MODEL 1
REMARK VINA RESULT:      -6.4      0.000      0.000
REMARK  5 active torsions:
REMARK  status: ('A' for Active; 'I' for Inactive)
REMARK       I    between atoms: C_2  and  N_3 
REMARK       I    between atoms: C_2  and  N_13 
REMARK    1  A    between atoms: N_3  and  C_4 
REMARK    2  A    between atoms: C_4  and  C_5 
REMARK    3  A    between atoms: C_5  and  C_6 
REMARK    4  A    between atoms: N_13  and  C_14 
REMARK    5  A    between atoms: C_14  and  C_15 
ROOT
HETATM    1  O   UNL     1     -42.587 -49.249  11.913  1.00  0.00    -0.247 OA
HETATM    2  C   UNL     1     -41.552 -49.212  11.264  1.00  0.00     0.316 C 
HETATM    3  N   UNL     1     -41.109 -48.114  10.572  1.00  0.00    -0.343 N 
HETATM    4  N   UNL     1     -40.690 -50.263  11.122  1.00  0.00    -0.341 N 
HETATM    5  H   UNL     1     -40.105 -48.056  10.498  1.00  0.00     0.164 HD
HETATM    6  H   UNL     1     -40.046 -50.227  10.344  1.00  0.00     0.164 HD
ENDROOT
BRANCH   3   7
HETATM    7  C   UNL     1     -41.838 -46.862  10.682  1.00  0.00     0.129 C 
BRANCH   7   8
HETATM    8  C   UNL     1     -42.330 -46.375   9.320  1.00  0.00     0.060 C 
BRANCH   8   9
HETATM    9  C   UNL     1     -43.595 -47.065   8.897  1.00  0.00    -0.041 A 
HETATM   10  C   UNL     1     -44.737 -47.054   9.701  1.00  0.00     0.010 A 
HETATM   11  C   UNL     1     -45.878 -47.736   9.286  1.00  0.00     0.018 A 
HETATM   12  C   UNL     1     -45.837 -48.409   8.078  1.00  0.00     0.087 A 
HETATM   13  N   UNL     1     -44.753 -48.444   7.274  1.00  0.00    -0.375 N 
HETATM   14  C   UNL     1     -43.659 -47.776   7.702  1.00  0.00     0.094 A 
ATOM     15  HN  UNL     1     -44.759 -48.948   6.387  1.00  0.00     0.164 HD
ENDBRANCH   8   9
ENDBRANCH   7   8
ENDBRANCH   3   7
BRANCH   4  16
HETATM   16  C   UNL     1     -40.940 -51.569  11.708  1.00  0.00     0.158 C 
BRANCH  16  17
HETATM   17  C   UNL     1     -40.250 -51.847  13.066  1.00  0.00     0.167 C 
HETATM   18  C   UNL     1     -41.177 -51.597  14.282  1.00  0.00     0.306 C 
HETATM   19  N   UNL     1     -42.248 -52.593  14.263  1.00  0.00     0.097 N 
HETATM   20  C   UNL     1     -43.238 -52.506  15.323  1.00  0.00     0.273 C 
HETATM   21  C   UNL     1     -41.644 -53.929  14.398  1.00  0.00     0.246 C 
HETATM   22  C   UNL     1     -43.862 -53.904  15.303  1.00  0.00     0.032 C 
HETATM   23  C   UNL     1     -42.887 -54.787  14.511  1.00  0.00     0.040 C 
HETATM   24  C   UNL     1     -40.718 -54.217  13.216  1.00  0.00     0.204 C 
HETATM   25  O   UNL     1     -39.705 -53.196  13.100  1.00  0.00    -0.380 OA
ENDBRANCH  16  17
ENDBRANCH   4  16
TORSDOF 5
ENDMDL
MODEL 2
REMARK VINA RESULT:      -6.4      2.523      3.511
REMARK  5 active torsions:
REMARK  status: ('A' for Active; 'I' for Inactive)
REMARK       I    between atoms: C_2  and  N_3 
REMARK       I    between atoms: C_2  and  N_13 
REMARK    1  A    between atoms: N_3  and  C_4 
REMARK    2  A    between atoms: C_4  and  C_5 
REMARK    3  A    between atoms: C_5  and  C_6 
REMARK    4  A    between atoms: N_13  and  C_14 
REMARK    5  A    between atoms: C_14  and  C_15 
ROOT
HETATM    1  O   UNL     1     -42.492 -50.633  14.030  1.00  0.00    -0.247 OA
HETATM    2  C   UNL     1     -42.532 -50.902  12.838  1.00  0.00     0.316 C 
HETATM    3  N   UNL     1     -42.315 -49.995  11.832  1.00  0.00    -0.343 N 
HETATM    4  N   UNL     1     -42.810 -52.140  12.332  1.00  0.00    -0.341 N 
HETATM    5  H   UNL     1     -41.924 -50.399  10.995  1.00  0.00     0.164 HD
HETATM    6  H   UNL     1     -43.112 -52.186  11.369  1.00  0.00     0.164 HD
ENDROOT
BRANCH   3   7
HETATM    7  C   UNL     1     -41.905 -48.643  12.167  1.00  0.00     0.129 C 
BRANCH   7   8
HETATM    8  C   UNL     1     -43.012 -47.630  11.881  1.00  0.00     0.060 C 
BRANCH   8   9
HETATM    9  C   UNL     1     -43.459 -47.673  10.447  1.00  0.00    -0.041 A 
HETATM   10  C   UNL     1     -44.808 -47.575  10.099  1.00  0.00     0.010 A 
HETATM   11  C   UNL     1     -45.181 -47.654   8.761  1.00  0.00     0.018 A 
HETATM   12  C   UNL     1     -44.189 -47.831   7.812  1.00  0.00     0.087 A 
HETATM   13  N   UNL     1     -42.876 -47.931   8.109  1.00  0.00    -0.375 N 
HETATM   14  C   UNL     1     -42.542 -47.853   9.416  1.00  0.00     0.094 A 
ATOM     15  HN  UNL     1     -42.170 -48.058   7.383  1.00  0.00     0.164 HD
ENDBRANCH   8   9
ENDBRANCH   7   8
ENDBRANCH   3   7
BRANCH   4  16
HETATM   16  C   UNL     1     -43.131 -53.279  13.177  1.00  0.00     0.158 C 
BRANCH  16  17
HETATM   17  C   UNL     1     -44.494 -53.963  12.904  1.00  0.00     0.167 C 
HETATM   18  C   UNL     1     -45.197 -54.453  14.194  1.00  0.00     0.306 C 
HETATM   19  N   UNL     1     -45.584 -53.284  14.985  1.00  0.00     0.097 N 
HETATM   20  C   UNL     1     -46.244 -53.545  16.253  1.00  0.00     0.273 C 
HETATM   21  C   UNL     1     -46.541 -52.487  14.200  1.00  0.00     0.246 C 
HETATM   22  C   UNL     1     -46.925 -52.205  16.547  1.00  0.00     0.032 C 
HETATM   23  C   UNL     1     -46.930 -51.436  15.219  1.00  0.00     0.040 C 
HETATM   24  C   UNL     1     -45.885 -51.984  12.913  1.00  0.00     0.204 C 
HETATM   25  O   UNL     1     -45.367 -53.086  12.139  1.00  0.00    -0.380 OA
ENDBRANCH  16  17
ENDBRANCH   4  16
TORSDOF 5
ENDMDL
MODEL 3
REMARK VINA RESULT:      -6.3      3.868      6.363
REMARK  5 active torsions:
REMARK  status: ('A' for Active; 'I' for Inactive)
REMARK       I    between atoms: C_2  and  N_3 
REMARK       I    between atoms: C_2  and  N_13 
REMARK    1  A    between atoms: N_3  and  C_4 
REMARK    2  A    between atoms: C_4  and  C_5 
REMARK    3  A    between atoms: C_5  and  C_6 
REMARK    4  A    between atoms: N_13  and  C_14 
REMARK    5  A    between atoms: C_14  and  C_15 
ROOT
HETATM    1  O   UNL     1     -42.323 -51.798  13.745  1.00  0.00    -0.247 OA
HETATM    2  C   UNL     1     -42.364 -51.828  12.524  1.00  0.00     0.316 C 
HETATM    3  N   UNL     1     -43.154 -52.681  11.795  1.00  0.00    -0.343 N 
HETATM    4  N   UNL     1     -41.622 -51.025  11.705  1.00  0.00    -0.341 N 
HETATM    5  H   UNL     1     -43.443 -52.308  10.904  1.00  0.00     0.164 HD
HETATM    6  H   UNL     1     -41.504 -51.328  10.748  1.00  0.00     0.164 HD
ENDROOT
BRANCH   3   7
HETATM    7  C   UNL     1     -44.093 -53.546  12.486  1.00  0.00     0.129 C 
BRANCH   7   8
HETATM    8  C   UNL     1     -45.496 -52.942  12.523  1.00  0.00     0.060 C 
BRANCH   8   9
HETATM    9  C   UNL     1     -45.962 -52.686  13.928  1.00  0.00    -0.041 A 
HETATM   10  C   UNL     1     -46.629 -51.509  14.274  1.00  0.00     0.010 A 
HETATM   11  C   UNL     1     -47.013 -51.297  15.594  1.00  0.00     0.018 A 
HETATM   12  C   UNL     1     -46.716 -52.273  16.529  1.00  0.00     0.087 A 
HETATM   13  N   UNL     1     -46.073 -53.423  16.235  1.00  0.00    -0.375 N 
HETATM   14  C   UNL     1     -45.709 -53.601  14.946  1.00  0.00     0.094 A 
ATOM     15  HN  UNL     1     -45.873 -54.124  16.949  1.00  0.00     0.164 HD
ENDBRANCH   8   9
ENDBRANCH   7   8
ENDBRANCH   3   7
BRANCH   4  16
HETATM   16  C   UNL     1     -40.660 -50.060  12.212  1.00  0.00     0.158 C 
BRANCH  16  17
HETATM   17  C   UNL     1     -39.171 -50.364  11.909  1.00  0.00     0.167 C 
HETATM   18  C   UNL     1     -38.223 -49.200  12.292  1.00  0.00     0.306 C 
HETATM   19  N   UNL     1     -38.227 -49.058  13.749  1.00  0.00     0.097 N 
HETATM   20  C   UNL     1     -37.406 -47.994  14.302  1.00  0.00     0.273 C 
HETATM   21  C   UNL     1     -37.707 -50.303  14.339  1.00  0.00     0.246 C 
HETATM   22  C   UNL     1     -37.245 -48.431  15.761  1.00  0.00     0.032 C 
HETATM   23  C   UNL     1     -37.644 -49.913  15.802  1.00  0.00     0.040 C 
HETATM   24  C   UNL     1     -38.616 -51.481  13.983  1.00  0.00     0.204 C 
HETATM   25  O   UNL     1     -38.757 -51.602  12.552  1.00  0.00    -0.380 OA
ENDBRANCH  16  17
ENDBRANCH   4  16
TORSDOF 5
ENDMDL
MODEL 4
REMARK VINA RESULT:      -6.2      1.694      2.012
REMARK  5 active torsions:
REMARK  status: ('A' for Active; 'I' for Inactive)
REMARK       I    between atoms: C_2  and  N_3 
REMARK       I    between atoms: C_2  and  N_13 
REMARK    1  A    between atoms: N_3  and  C_4 
REMARK    2  A    between atoms: C_4  and  C_5 
REMARK    3  A    between atoms: C_5  and  C_6 
REMARK    4  A    between atoms: N_13  and  C_14 
REMARK    5  A    between atoms: C_14  and  C_15 
ROOT
HETATM    1  O   UNL     1     -42.678 -47.943  12.842  1.00  0.00    -0.247 OA
HETATM    2  C   UNL     1     -42.671 -48.820  11.990  1.00  0.00     0.316 C 
HETATM    3  N   UNL     1     -42.458 -48.600  10.653  1.00  0.00    -0.343 N 
HETATM    4  N   UNL     1     -42.885 -50.145  12.242  1.00  0.00    -0.341 N 
HETATM    5  H   UNL     1     -42.025 -49.376  10.175  1.00  0.00     0.164 HD
HETATM    6  H   UNL     1     -43.155 -50.724  11.459  1.00  0.00     0.164 HD
ENDROOT
BRANCH   3   7
HETATM    7  C   UNL     1     -42.111 -47.265  10.197  1.00  0.00     0.129 C 
BRANCH   7   8
HETATM    8  C   UNL     1     -43.353 -46.443   9.859  1.00  0.00     0.060 C 
BRANCH   8   9
HETATM    9  C   UNL     1     -44.361 -47.238   9.079  1.00  0.00    -0.041 A 
HETATM   10  C   UNL     1     -45.655 -47.450   9.559  1.00  0.00     0.010 A 
HETATM   11  C   UNL     1     -46.546 -48.221   8.820  1.00  0.00     0.018 A 
HETATM   12  C   UNL     1     -46.111 -48.759   7.620  1.00  0.00     0.087 A 
HETATM   13  N   UNL     1     -44.869 -48.577   7.123  1.00  0.00    -0.375 N 
HETATM   14  C   UNL     1     -44.024 -47.826   7.863  1.00  0.00     0.094 A 
ATOM     15  HN  UNL     1     -44.583 -48.985   6.233  1.00  0.00     0.164 HD
ENDBRANCH   8   9
ENDBRANCH   7   8
ENDBRANCH   3   7
BRANCH   4  16
HETATM   16  C   UNL     1     -43.188 -50.653  13.570  1.00  0.00     0.158 C 
BRANCH  16  17
HETATM   17  C   UNL     1     -42.464 -51.960  13.978  1.00  0.00     0.167 C 
HETATM   18  C   UNL     1     -43.060 -52.614  15.250  1.00  0.00     0.306 C 
HETATM   19  N   UNL     1     -44.411 -53.085  14.941  1.00  0.00     0.097 N 
HETATM   20  C   UNL     1     -45.146 -53.713  16.026  1.00  0.00     0.273 C 
HETATM   21  C   UNL     1     -44.318 -54.106  13.885  1.00  0.00     0.246 C 
HETATM   22  C   UNL     1     -46.229 -54.493  15.277  1.00  0.00     0.032 C 
HETATM   23  C   UNL     1     -45.759 -54.569  13.817  1.00  0.00     0.040 C 
HETATM   24  C   UNL     1     -43.732 -53.501  12.609  1.00  0.00     0.204 C 
HETATM   25  O   UNL     1     -42.445 -52.905  12.871  1.00  0.00    -0.380 OA
ENDBRANCH  16  17
ENDBRANCH   4  16
TORSDOF 5
ENDMDL
MODEL 5
REMARK VINA RESULT:      -6.1      3.510      5.578
REMARK  5 active torsions:
REMARK  status: ('A' for Active; 'I' for Inactive)
REMARK       I    between atoms: C_2  and  N_3 
REMARK       I    between atoms: C_2  and  N_13 
REMARK    1  A    between atoms: N_3  and  C_4 
REMARK    2  A    between atoms: C_4  and  C_5 
REMARK    3  A    between atoms: C_5  and  C_6 
REMARK    4  A    between atoms: N_13  and  C_14 
REMARK    5  A    between atoms: C_14  and  C_15 
ROOT
HETATM    1  O   UNL     1     -41.900 -50.918  13.330  1.00  0.00    -0.247 OA
HETATM    2  C   UNL     1     -41.703 -51.640  12.363  1.00  0.00     0.316 C 
HETATM    3  N   UNL     1     -41.058 -51.245  11.219  1.00  0.00    -0.343 N 
HETATM    4  N   UNL     1     -42.108 -52.941  12.273  1.00  0.00    -0.341 N 
HETATM    5  H   UNL     1     -40.569 -51.990  10.748  1.00  0.00     0.164 HD
HETATM    6  H   UNL     1     -42.167 -53.342  11.348  1.00  0.00     0.164 HD
ENDROOT
BRANCH   3   7
HETATM    7  C   UNL     1     -40.462 -49.921  11.159  1.00  0.00     0.129 C 
BRANCH   7   8
HETATM    8  C   UNL     1     -39.017 -49.930  11.653  1.00  0.00     0.060 C 
BRANCH   8   9
HETATM    9  C   UNL     1     -38.737 -48.795  12.597  1.00  0.00    -0.041 A 
HETATM   10  C   UNL     1     -37.709 -48.864  13.539  1.00  0.00     0.010 A 
HETATM   11  C   UNL     1     -37.506 -47.803  14.417  1.00  0.00     0.018 A 
HETATM   12  C   UNL     1     -38.344 -46.704  14.323  1.00  0.00     0.087 A 
HETATM   13  N   UNL     1     -39.348 -46.601  13.427  1.00  0.00    -0.375 N 
HETATM   14  C   UNL     1     -39.523 -47.646  12.589  1.00  0.00     0.094 A 
ATOM     15  HN  UNL     1     -39.944 -45.774  13.384  1.00  0.00     0.164 HD
ENDBRANCH   8   9
ENDBRANCH   7   8
ENDBRANCH   3   7
BRANCH   4  16
HETATM   16  C   UNL     1     -42.863 -53.603  13.325  1.00  0.00     0.158 C 
BRANCH  16  17
HETATM   17  C   UNL     1     -44.241 -54.178  12.913  1.00  0.00     0.167 C 
HETATM   18  C   UNL     1     -45.112 -54.596  14.124  1.00  0.00     0.306 C 
HETATM   19  N   UNL     1     -45.483 -53.392  14.868  1.00  0.00     0.097 N 
HETATM   20  C   UNL     1     -46.289 -53.586  16.061  1.00  0.00     0.273 C 
HETATM   21  C   UNL     1     -46.284 -52.528  13.987  1.00  0.00     0.246 C 
HETATM   22  C   UNL     1     -46.886 -52.192  16.281  1.00  0.00     0.032 C 
HETATM   23  C   UNL     1     -46.691 -51.438  14.958  1.00  0.00     0.040 C 
HETATM   24  C   UNL     1     -45.460 -52.092  12.774  1.00  0.00     0.204 C 
HETATM   25  O   UNL     1     -44.956 -53.240  12.060  1.00  0.00    -0.380 OA
ENDBRANCH  16  17
ENDBRANCH   4  16
TORSDOF 5
ENDMDL
MODEL 6
REMARK VINA RESULT:      -6.1      4.638      5.759
REMARK  5 active torsions:
REMARK  status: ('A' for Active; 'I' for Inactive)
REMARK       I    between atoms: C_2  and  N_3 
REMARK       I    between atoms: C_2  and  N_13 
REMARK    1  A    between atoms: N_3  and  C_4 
REMARK    2  A    between atoms: C_4  and  C_5 
REMARK    3  A    between atoms: C_5  and  C_6 
REMARK    4  A    between atoms: N_13  and  C_14 
REMARK    5  A    between atoms: C_14  and  C_15 
ROOT
HETATM    1  O   UNL     1     -43.815 -54.277  13.716  1.00  0.00    -0.247 OA
HETATM    2  C   UNL     1     -43.604 -53.507  12.790  1.00  0.00     0.316 C 
HETATM    3  N   UNL     1     -44.576 -52.788  12.142  1.00  0.00    -0.343 N 
HETATM    4  N   UNL     1     -42.371 -53.257  12.256  1.00  0.00    -0.341 N 
HETATM    5  H   UNL     1     -44.254 -51.908  11.770  1.00  0.00     0.164 HD
HETATM    6  H   UNL     1     -42.344 -52.857  11.329  1.00  0.00     0.164 HD
ENDROOT
BRANCH   3   7
HETATM    7  C   UNL     1     -45.944 -52.840  12.629  1.00  0.00     0.129 C 
BRANCH   7   8
HETATM    8  C   UNL     1     -46.421 -51.473  13.117  1.00  0.00     0.060 C 
BRANCH   8   9
HETATM    9  C   UNL     1     -46.229 -51.305  14.598  1.00  0.00    -0.041 A 
HETATM   10  C   UNL     1     -47.280 -51.493  15.497  1.00  0.00     0.010 A 
HETATM   11  C   UNL     1     -47.066 -51.294  16.858  1.00  0.00     0.018 A 
HETATM   12  C   UNL     1     -45.803 -50.911  17.275  1.00  0.00     0.087 A 
HETATM   13  N   UNL     1     -44.762 -50.720  16.437  1.00  0.00    -0.375 N 
HETATM   14  C   UNL     1     -44.999 -50.917  15.121  1.00  0.00     0.094 A 
ATOM     15  HN  UNL     1     -43.843 -50.440  16.779  1.00  0.00     0.164 HD
ENDBRANCH   8   9
ENDBRANCH   7   8
ENDBRANCH   3   7
BRANCH   4  16
HETATM   16  C   UNL     1     -41.165 -53.925  12.720  1.00  0.00     0.158 C 
BRANCH  16  17
HETATM   17  C   UNL     1     -40.260 -53.106  13.673  1.00  0.00     0.167 C 
HETATM   18  C   UNL     1     -40.848 -52.968  15.100  1.00  0.00     0.306 C 
HETATM   19  N   UNL     1     -40.856 -54.289  15.729  1.00  0.00     0.097 N 
HETATM   20  C   UNL     1     -41.397 -54.366  17.076  1.00  0.00     0.273 C 
HETATM   21  C   UNL     1     -39.466 -54.763  15.836  1.00  0.00     0.246 C 
HETATM   22  C   UNL     1     -40.815 -55.688  17.585  1.00  0.00     0.032 C 
HETATM   23  C   UNL     1     -39.666 -56.037  16.630  1.00  0.00     0.040 C 
HETATM   24  C   UNL     1     -38.846 -54.912  14.445  1.00  0.00     0.204 C 
HETATM   25  O   UNL     1     -38.918 -53.668  13.718  1.00  0.00    -0.380 OA
ENDBRANCH  16  17
ENDBRANCH   4  16
TORSDOF 5
ENDMDL
MODEL 7
REMARK VINA RESULT:      -6.0      2.820      4.884
REMARK  5 active torsions:
REMARK  status: ('A' for Active; 'I' for Inactive)
REMARK       I    between atoms: C_2  and  N_3 
REMARK       I    between atoms: C_2  and  N_13 
REMARK    1  A    between atoms: N_3  and  C_4 
REMARK    2  A    between atoms: C_4  and  C_5 
REMARK    3  A    between atoms: C_5  and  C_6 
REMARK    4  A    between atoms: N_13  and  C_14 
REMARK    5  A    between atoms: C_14  and  C_15 
ROOT
HETATM    1  O   UNL     1     -41.464 -51.554  13.781  1.00  0.00    -0.247 OA
HETATM    2  C   UNL     1     -40.710 -52.514  13.724  1.00  0.00     0.316 C 
HETATM    3  N   UNL     1     -39.341 -52.427  13.734  1.00  0.00    -0.343 N 
HETATM    4  N   UNL     1     -41.118 -53.815  13.631  1.00  0.00    -0.341 N 
HETATM    5  H   UNL     1     -38.883 -53.227  14.144  1.00  0.00     0.164 HD
HETATM    6  H   UNL     1     -40.442 -54.486  13.292  1.00  0.00     0.164 HD
ENDROOT
BRANCH   3   7
HETATM    7  C   UNL     1     -38.712 -51.133  13.930  1.00  0.00     0.129 C 
BRANCH   7   8
HETATM    8  C   UNL     1     -38.208 -50.545  12.613  1.00  0.00     0.060 C 
BRANCH   8   9
HETATM    9  C   UNL     1     -39.170 -49.545  12.037  1.00  0.00    -0.041 A 
HETATM   10  C   UNL     1     -39.189 -48.217  12.468  1.00  0.00     0.010 A 
HETATM   11  C   UNL     1     -40.119 -47.332  11.932  1.00  0.00     0.018 A 
HETATM   12  C   UNL     1     -41.005 -47.807  10.980  1.00  0.00     0.087 A 
HETATM   13  N   UNL     1     -41.019 -49.083  10.539  1.00  0.00    -0.375 N 
HETATM   14  C   UNL     1     -40.106 -49.921  11.078  1.00  0.00     0.094 A 
ATOM     15  HN  UNL     1     -41.684 -49.399   9.833  1.00  0.00     0.164 HD
ENDBRANCH   8   9
ENDBRANCH   7   8
ENDBRANCH   3   7
BRANCH   4  16
HETATM   16  C   UNL     1     -42.519 -54.194  13.548  1.00  0.00     0.158 C 
BRANCH  16  17
HETATM   17  C   UNL     1     -43.188 -54.614  14.881  1.00  0.00     0.167 C 
HETATM   18  C   UNL     1     -43.649 -53.407  15.736  1.00  0.00     0.306 C 
HETATM   19  N   UNL     1     -44.741 -52.731  15.035  1.00  0.00     0.097 N 
HETATM   20  C   UNL     1     -45.296 -51.551  15.677  1.00  0.00     0.273 C 
HETATM   21  C   UNL     1     -45.864 -53.673  14.904  1.00  0.00     0.246 C 
HETATM   22  C   UNL     1     -46.655 -51.414  14.986  1.00  0.00     0.032 C 
HETATM   23  C   UNL     1     -46.922 -52.765  14.309  1.00  0.00     0.040 C 
HETATM   24  C   UNL     1     -45.450 -54.883  14.065  1.00  0.00     0.204 C 
HETATM   25  O   UNL     1     -44.293 -55.528  14.637  1.00  0.00    -0.380 OA
ENDBRANCH  16  17
ENDBRANCH   4  16
TORSDOF 5
ENDMDL
MODEL 8
REMARK VINA RESULT:      -5.9      1.740      2.991
REMARK  5 active torsions:
REMARK  status: ('A' for Active; 'I' for Inactive)
REMARK       I    between atoms: C_2  and  N_3 
REMARK       I    between atoms: C_2  and  N_13 
REMARK    1  A    between atoms: N_3  and  C_4 
REMARK    2  A    between atoms: C_4  and  C_5 
REMARK    3  A    between atoms: C_5  and  C_6 
REMARK    4  A    between atoms: N_13  and  C_14 
REMARK    5  A    between atoms: C_14  and  C_15 
ROOT
HETATM    1  O   UNL     1     -41.796 -48.375  12.861  1.00  0.00    -0.247 OA
HETATM    2  C   UNL     1     -42.262 -49.066  11.967  1.00  0.00     0.316 C 
HETATM    3  N   UNL     1     -42.488 -48.629  10.687  1.00  0.00    -0.343 N 
HETATM    4  N   UNL     1     -42.637 -50.372  12.113  1.00  0.00    -0.341 N 
HETATM    5  H   UNL     1     -42.414 -49.353   9.989  1.00  0.00     0.164 HD
HETATM    6  H   UNL     1     -43.272 -50.748  11.424  1.00  0.00     0.164 HD
ENDROOT
BRANCH   3   7
HETATM    7  C   UNL     1     -42.061 -47.295  10.304  1.00  0.00     0.129 C 
BRANCH   7   8
HETATM    8  C   UNL     1     -43.242 -46.425   9.877  1.00  0.00     0.060 C 
BRANCH   8   9
HETATM    9  C   UNL     1     -44.266 -47.205   9.103  1.00  0.00    -0.041 A 
HETATM   10  C   UNL     1     -45.560 -47.398   9.590  1.00  0.00     0.010 A 
HETATM   11  C   UNL     1     -46.467 -48.156   8.856  1.00  0.00     0.018 A 
HETATM   12  C   UNL     1     -46.047 -48.699   7.654  1.00  0.00     0.087 A 
HETATM   13  N   UNL     1     -44.806 -48.535   7.149  1.00  0.00    -0.375 N 
HETATM   14  C   UNL     1     -43.945 -47.797   7.884  1.00  0.00     0.094 A 
ATOM     15  HN  UNL     1     -44.531 -48.948   6.258  1.00  0.00     0.164 HD
ENDBRANCH   8   9
ENDBRANCH   7   8
ENDBRANCH   3   7
BRANCH   4  16
HETATM   16  C   UNL     1     -42.554 -51.075  13.384  1.00  0.00     0.158 C 
BRANCH  16  17
HETATM   17  C   UNL     1     -41.637 -52.323  13.410  1.00  0.00     0.167 C 
HETATM   18  C   UNL     1     -40.325 -52.130  12.609  1.00  0.00     0.306 C 
HETATM   19  N   UNL     1     -39.508 -51.124  13.290  1.00  0.00     0.097 N 
HETATM   20  C   UNL     1     -38.237 -50.789  12.672  1.00  0.00     0.273 C 
HETATM   21  C   UNL     1     -39.172 -51.627  14.632  1.00  0.00     0.246 C 
HETATM   22  C   UNL     1     -37.471 -50.145  13.830  1.00  0.00     0.032 C 
HETATM   23  C   UNL     1     -38.223 -50.546  15.106  1.00  0.00     0.040 C 
HETATM   24  C   UNL     1     -40.444 -51.834  15.458  1.00  0.00     0.204 C 
HETATM   25  O   UNL     1     -41.353 -52.725  14.780  1.00  0.00    -0.380 OA
ENDBRANCH  16  17
ENDBRANCH   4  16
TORSDOF 5
ENDMDL
MODEL 9
REMARK VINA RESULT:      -5.8      3.172      5.283
REMARK  5 active torsions:
REMARK  status: ('A' for Active; 'I' for Inactive)
REMARK       I    between atoms: C_2  and  N_3 
REMARK       I    between atoms: C_2  and  N_13 
REMARK    1  A    between atoms: N_3  and  C_4 
REMARK    2  A    between atoms: C_4  and  C_5 
REMARK    3  A    between atoms: C_5  and  C_6 
REMARK    4  A    between atoms: N_13  and  C_14 
REMARK    5  A    between atoms: C_14  and  C_15 
ROOT
HETATM    1  O   UNL     1     -43.103 -50.351  14.165  1.00  0.00    -0.247 OA
HETATM    2  C   UNL     1     -43.655 -50.215  13.083  1.00  0.00     0.316 C 
HETATM    3  N   UNL     1     -43.217 -49.378  12.088  1.00  0.00    -0.343 N 
HETATM    4  N   UNL     1     -44.796 -50.867  12.709  1.00  0.00    -0.341 N 
HETATM    5  H   UNL     1     -43.447 -49.694  11.158  1.00  0.00     0.164 HD
HETATM    6  H   UNL     1     -45.324 -50.469  11.944  1.00  0.00     0.164 HD
ENDROOT
BRANCH   3   7
HETATM    7  C   UNL     1     -41.960 -48.671  12.255  1.00  0.00     0.129 C 
BRANCH   7   8
HETATM    8  C   UNL     1     -40.925 -49.107  11.219  1.00  0.00     0.060 C 
BRANCH   8   9
HETATM    9  C   UNL     1     -39.753 -49.803  11.851  1.00  0.00    -0.041 A 
HETATM   10  C   UNL     1     -38.439 -49.470  11.518  1.00  0.00     0.010 A 
HETATM   11  C   UNL     1     -37.383 -50.163  12.103  1.00  0.00     0.018 A 
HETATM   12  C   UNL     1     -37.679 -51.172  13.004  1.00  0.00     0.087 A 
HETATM   13  N   UNL     1     -38.936 -51.523  13.351  1.00  0.00    -0.375 N 
HETATM   14  C   UNL     1     -39.941 -50.835  12.766  1.00  0.00     0.094 A 
ATOM     15  HN  UNL     1     -39.118 -52.270  14.021  1.00  0.00     0.164 HD
ENDBRANCH   8   9
ENDBRANCH   7   8
ENDBRANCH   3   7
BRANCH   4  16
HETATM   16  C   UNL     1     -45.505 -51.778  13.593  1.00  0.00     0.158 C 
BRANCH  16  17
HETATM   17  C   UNL     1     -45.520 -53.266  13.164  1.00  0.00     0.167 C 
HETATM   18  C   UNL     1     -44.171 -53.740  12.566  1.00  0.00     0.306 C 
HETATM   19  N   UNL     1     -43.163 -53.727  13.627  1.00  0.00     0.097 N 
HETATM   20  C   UNL     1     -41.816 -54.123  13.251  1.00  0.00     0.273 C 
HETATM   21  C   UNL     1     -43.575 -54.678  14.673  1.00  0.00     0.246 C 
HETATM   22  C   UNL     1     -41.190 -54.472  14.604  1.00  0.00     0.032 C 
HETATM   23  C   UNL     1     -42.362 -54.637  15.580  1.00  0.00     0.040 C 
HETATM   24  C   UNL     1     -44.907 -54.247  15.289  1.00  0.00     0.204 C 
HETATM   25  O   UNL     1     -45.922 -54.118  14.273  1.00  0.00    -0.380 OA
ENDBRANCH  16  17
ENDBRANCH   4  16
TORSDOF 5
ENDMDL
