MODEL 1
REMARK VINA RESULT:      -5.8      0.000      0.000
REMARK  6 active torsions:
REMARK  status: ('A' for Active; 'I' for Inactive)
REMARK    1  A    between atoms: N_3  and  C_7 
REMARK    2  A    between atoms: C_4  and  C_12 
REMARK    3  A    between atoms: C_10  and  C_14 
REMARK    4  A    between atoms: C_10  and  O_13 
REMARK    5  A    between atoms: N_11  and  C_12 
REMARK    6  A    between atoms: N_11  and  C_14 
ROOT
HETATM    1  C   UNL     1     -44.236 -52.849  12.654  1.00  0.00     0.330 C 
HETATM    2  N   UNL     1     -43.071 -52.969  11.937  1.00  0.00    -0.275 N 
HETATM    3  N   UNL     1     -44.156 -52.077  13.815  1.00  0.00    -0.300 N 
HETATM    4  C   UNL     1     -41.787 -51.703  13.522  1.00  0.00     0.053 C 
HETATM    5  C   UNL     1     -42.940 -51.496  14.170  1.00  0.00     0.111 C 
HETATM    6  C   UNL     1     -41.833 -52.553  12.316  1.00  0.00     0.258 C 
HETATM    7  O   UNL     1     -45.227 -53.436  12.231  1.00  0.00    -0.246 OA
HETATM    8  O   UNL     1     -40.819 -52.870  11.704  1.00  0.00    -0.267 OA
HETATM    9  H   UNL     1     -43.121 -53.567  11.128  1.00  0.00     0.173 HD
ENDROOT
BRANCH   4  10
HETATM   10  C   UNL     1     -40.430 -51.198  13.929  1.00  0.00     0.315 C 
BRANCH  10  11
HETATM   11  N   UNL     1     -39.694 -50.546  12.828  1.00  0.00     0.090 N 
HETATM   12  H   UNL     1     -39.968 -51.022  11.966  1.00  0.00     0.316 HD
BRANCH  11  13
HETATM   13  C   UNL     1     -40.133 -49.145  12.687  1.00  0.00     0.307 C 
BRANCH  13  14
HETATM   14  C   UNL     1     -40.851 -48.937  11.345  1.00  0.00     0.084 C 
HETATM   15  C   UNL     1     -40.881 -47.489  10.760  1.00  0.00     0.039 C 
HETATM   16  C   UNL     1     -42.339 -47.775  10.340  1.00  0.00     0.006 C 
HETATM   17  C   UNL     1     -42.393 -48.794  11.494  1.00  0.00     0.039 C 
BRANCH  14  18
HETATM   18  O   UNL     1     -40.419 -49.954  10.401  1.00  0.00    -0.388 OA
HETATM   19  H   UNL     1     -39.788 -50.489  10.915  1.00  0.00     0.210 HD
ENDBRANCH  14  18
ENDBRANCH  13  14
ENDBRANCH  11  13
ENDBRANCH  10  11
ENDBRANCH   4  10
BRANCH   3  20
HETATM   20  C   UNL     1     -45.316 -51.898  14.774  1.00  0.00     0.030 C 
HETATM   21  C   UNL     1     -46.637 -51.442  14.116  1.00  0.00     0.038 C 
HETATM   22  C   UNL     1     -45.629 -53.248  15.471  1.00  0.00     0.038 C 
HETATM   23  C   UNL     1     -44.975 -50.841  15.849  1.00  0.00     0.038 C 
ENDBRANCH   3  20
TORSDOF 6
ENDMDL
MODEL 2
REMARK VINA RESULT:      -5.8      2.082      3.580
REMARK  6 active torsions:
REMARK  status: ('A' for Active; 'I' for Inactive)
REMARK    1  A    between atoms: N_3  and  C_7 
REMARK    2  A    between atoms: C_4  and  C_12 
REMARK    3  A    between atoms: C_10  and  C_14 
REMARK    4  A    between atoms: C_10  and  O_13 
REMARK    5  A    between atoms: N_11  and  C_12 
REMARK    6  A    between atoms: N_11  and  C_14 
ROOT
HETATM    1  C   UNL     1     -40.625 -51.906  12.341  1.00  0.00     0.330 C 
HETATM    2  N   UNL     1     -39.583 -51.155  11.851  1.00  0.00    -0.275 N 
HETATM    3  N   UNL     1     -41.802 -51.204  12.612  1.00  0.00    -0.300 N 
HETATM    4  C   UNL     1     -40.801 -49.090  12.005  1.00  0.00     0.053 C 
HETATM    5  C   UNL     1     -41.850 -49.830  12.383  1.00  0.00     0.111 C 
HETATM    6  C   UNL     1     -39.530 -49.800  11.755  1.00  0.00     0.258 C 
HETATM    7  O   UNL     1     -40.430 -53.105  12.512  1.00  0.00    -0.246 OA
HETATM    8  O   UNL     1     -38.493 -49.202  11.488  1.00  0.00    -0.267 OA
HETATM    9  H   UNL     1     -38.722 -51.655  11.704  1.00  0.00     0.173 HD
ENDROOT
BRANCH   4  10
HETATM   10  C   UNL     1     -40.767 -47.594  11.859  1.00  0.00     0.315 C 
BRANCH  10  11
HETATM   11  N   UNL     1     -40.799 -47.143  10.454  1.00  0.00     0.090 N 
HETATM   12  H   UNL     1     -40.931 -47.976   9.878  1.00  0.00     0.316 HD
BRANCH  11  13
HETATM   13  C   UNL     1     -41.977 -46.286  10.225  1.00  0.00     0.307 C 
BRANCH  13  14
HETATM   14  C   UNL     1     -43.087 -47.074   9.513  1.00  0.00     0.084 C 
HETATM   15  C   UNL     1     -44.201 -46.256   8.787  1.00  0.00     0.039 C 
HETATM   16  C   UNL     1     -45.206 -47.296   9.327  1.00  0.00     0.006 C 
HETATM   17  C   UNL     1     -44.212 -47.548  10.477  1.00  0.00     0.039 C 
BRANCH  14  18
HETATM   18  O   UNL     1     -42.492 -48.124   8.703  1.00  0.00    -0.388 OA
HETATM   19  H   UNL     1     -42.883 -47.983   7.822  1.00  0.00     0.210 HD
ENDBRANCH  14  18
ENDBRANCH  13  14
ENDBRANCH  11  13
ENDBRANCH  10  11
ENDBRANCH   4  10
BRANCH   3  20
HETATM   20  C   UNL     1     -43.027 -51.848  13.230  1.00  0.00     0.030 C 
HETATM   21  C   UNL     1     -43.620 -53.022  12.421  1.00  0.00     0.038 C 
HETATM   22  C   UNL     1     -42.665 -52.427  14.622  1.00  0.00     0.038 C 
HETATM   23  C   UNL     1     -44.162 -50.811  13.392  1.00  0.00     0.038 C 
ENDBRANCH   3  20
TORSDOF 6
ENDMDL
MODEL 3
REMARK VINA RESULT:      -5.7      2.922      5.753
REMARK  6 active torsions:
REMARK  status: ('A' for Active; 'I' for Inactive)
REMARK    1  A    between atoms: N_3  and  C_7 
REMARK    2  A    between atoms: C_4  and  C_12 
REMARK    3  A    between atoms: C_10  and  C_14 
REMARK    4  A    between atoms: C_10  and  O_13 
REMARK    5  A    between atoms: N_11  and  C_12 
REMARK    6  A    between atoms: N_11  and  C_14 
ROOT
HETATM    1  C   UNL     1     -42.031 -52.936  12.672  1.00  0.00     0.330 C 
HETATM    2  N   UNL     1     -43.250 -52.836  12.045  1.00  0.00    -0.275 N 
HETATM    3  N   UNL     1     -41.984 -53.801  13.768  1.00  0.00    -0.300 N 
HETATM    4  C   UNL     1     -44.341 -54.305  13.601  1.00  0.00     0.053 C 
HETATM    5  C   UNL     1     -43.135 -54.487  14.152  1.00  0.00     0.111 C 
HETATM    6  C   UNL     1     -44.430 -53.361  12.469  1.00  0.00     0.258 C 
HETATM    7  O   UNL     1     -41.109 -52.255  12.236  1.00  0.00    -0.246 OA
HETATM    8  O   UNL     1     -45.502 -53.063  11.953  1.00  0.00    -0.267 OA
HETATM    9  H   UNL     1     -43.293 -52.175  11.287  1.00  0.00     0.173 HD
ENDROOT
BRANCH   4  10
HETATM   10  C   UNL     1     -45.633 -54.927  14.052  1.00  0.00     0.315 C 
BRANCH  10  11
HETATM   11  N   UNL     1     -46.672 -53.936  14.394  1.00  0.00     0.090 N 
HETATM   12  H   UNL     1     -47.548 -54.451  14.505  1.00  0.00     0.316 HD
BRANCH  11  13
HETATM   13  C   UNL     1     -46.379 -53.327  15.705  1.00  0.00     0.307 C 
BRANCH  13  14
HETATM   14  C   UNL     1     -46.048 -51.836  15.546  1.00  0.00     0.084 C 
HETATM   15  C   UNL     1     -44.566 -51.396  15.770  1.00  0.00     0.039 C 
HETATM   16  C   UNL     1     -45.128 -50.155  16.498  1.00  0.00     0.006 C 
HETATM   17  C   UNL     1     -46.377 -51.000  16.817  1.00  0.00     0.039 C 
BRANCH  14  18
HETATM   18  O   UNL     1     -46.640 -51.337  14.316  1.00  0.00    -0.388 OA
HETATM   19  H   UNL     1     -46.051 -51.683  13.622  1.00  0.00     0.210 HD
ENDBRANCH  14  18
ENDBRANCH  13  14
ENDBRANCH  11  13
ENDBRANCH  10  11
ENDBRANCH   4  10
BRANCH   3  20
HETATM   20  C   UNL     1     -40.750 -53.979  14.631  1.00  0.00     0.030 C 
HETATM   21  C   UNL     1     -39.500 -54.485  13.878  1.00  0.00     0.038 C 
HETATM   22  C   UNL     1     -40.351 -52.617  15.256  1.00  0.00     0.038 C 
HETATM   23  C   UNL     1     -41.021 -54.996  15.763  1.00  0.00     0.038 C 
ENDBRANCH   3  20
TORSDOF 6
ENDMDL
MODEL 4
REMARK VINA RESULT:      -5.6      1.897      2.528
REMARK  6 active torsions:
REMARK  status: ('A' for Active; 'I' for Inactive)
REMARK    1  A    between atoms: N_3  and  C_7 
REMARK    2  A    between atoms: C_4  and  C_12 
REMARK    3  A    between atoms: C_10  and  C_14 
REMARK    4  A    between atoms: C_10  and  O_13 
REMARK    5  A    between atoms: N_11  and  C_12 
REMARK    6  A    between atoms: N_11  and  C_14 
ROOT
HETATM    1  C   UNL     1     -44.160 -53.446  12.956  1.00  0.00     0.330 C 
HETATM    2  N   UNL     1     -42.905 -53.909  12.645  1.00  0.00    -0.275 N 
HETATM    3  N   UNL     1     -44.238 -52.616  14.077  1.00  0.00    -0.300 N 
HETATM    4  C   UNL     1     -41.880 -52.856  14.545  1.00  0.00     0.053 C 
HETATM    5  C   UNL     1     -43.080 -52.317  14.792  1.00  0.00     0.111 C 
HETATM    6  C   UNL     1     -41.777 -53.774  13.393  1.00  0.00     0.258 C 
HETATM    7  O   UNL     1     -45.092 -53.809  12.246  1.00  0.00    -0.246 OA
HETATM    8  O   UNL     1     -40.744 -54.382  13.136  1.00  0.00    -0.267 OA
HETATM    9  H   UNL     1     -42.860 -54.547  11.867  1.00  0.00     0.173 HD
ENDROOT
BRANCH   4  10
HETATM   10  C   UNL     1     -40.629 -52.662  15.355  1.00  0.00     0.315 C 
BRANCH  10  11
HETATM   11  N   UNL     1     -39.444 -52.341  14.535  1.00  0.00     0.090 N 
HETATM   12  H   UNL     1     -39.489 -52.935  13.705  1.00  0.00     0.316 HD
BRANCH  11  13
HETATM   13  C   UNL     1     -39.523 -50.949  14.055  1.00  0.00     0.307 C 
BRANCH  13  14
HETATM   14  C   UNL     1     -38.965 -50.837  12.629  1.00  0.00     0.084 C 
HETATM   15  C   UNL     1     -37.414 -50.878  12.455  1.00  0.00     0.039 C 
HETATM   16  C   UNL     1     -37.584 -49.774  11.389  1.00  0.00     0.006 C 
HETATM   17  C   UNL     1     -38.877 -49.369  12.123  1.00  0.00     0.039 C 
BRANCH  14  18
HETATM   18  O   UNL     1     -39.688 -51.744  11.753  1.00  0.00    -0.388 OA
HETATM   19  H   UNL     1     -39.934 -51.183  10.996  1.00  0.00     0.210 HD
ENDBRANCH  14  18
ENDBRANCH  13  14
ENDBRANCH  11  13
ENDBRANCH  10  11
ENDBRANCH   4  10
BRANCH   3  20
HETATM   20  C   UNL     1     -45.547 -52.075  14.618  1.00  0.00     0.030 C 
HETATM   21  C   UNL     1     -46.459 -53.128  15.283  1.00  0.00     0.038 C 
HETATM   22  C   UNL     1     -45.260 -51.009  15.706  1.00  0.00     0.038 C 
HETATM   23  C   UNL     1     -46.378 -51.429  13.484  1.00  0.00     0.038 C 
ENDBRANCH   3  20
TORSDOF 6
ENDMDL
MODEL 5
REMARK VINA RESULT:      -5.5      2.049      5.962
REMARK  6 active torsions:
REMARK  status: ('A' for Active; 'I' for Inactive)
REMARK    1  A    between atoms: N_3  and  C_7 
REMARK    2  A    between atoms: C_4  and  C_12 
REMARK    3  A    between atoms: C_10  and  C_14 
REMARK    4  A    between atoms: C_10  and  O_13 
REMARK    5  A    between atoms: N_11  and  C_12 
REMARK    6  A    between atoms: N_11  and  C_14 
ROOT
HETATM    1  C   UNL     1     -38.613 -51.345  13.945  1.00  0.00     0.330 C 
HETATM    2  N   UNL     1     -38.972 -52.511  14.575  1.00  0.00    -0.275 N 
HETATM    3  N   UNL     1     -39.493 -50.893  12.960  1.00  0.00    -0.300 N 
HETATM    4  C   UNL     1     -40.933 -52.815  13.222  1.00  0.00     0.053 C 
HETATM    5  C   UNL     1     -40.644 -51.627  12.678  1.00  0.00     0.111 C 
HETATM    6  C   UNL     1     -39.996 -53.339  14.235  1.00  0.00     0.258 C 
HETATM    7  O   UNL     1     -37.558 -50.817  14.283  1.00  0.00    -0.246 OA
HETATM    8  O   UNL     1     -40.128 -54.455  14.728  1.00  0.00    -0.267 OA
HETATM    9  H   UNL     1     -38.311 -52.860  15.249  1.00  0.00     0.173 HD
ENDROOT
BRANCH   4  10
HETATM   10  C   UNL     1     -42.095 -53.701  12.869  1.00  0.00     0.315 C 
BRANCH  10  11
HETATM   11  N   UNL     1     -43.207 -52.978  12.222  1.00  0.00     0.090 N 
HETATM   12  H   UNL     1     -43.044 -53.025  11.214  1.00  0.00     0.316 HD
BRANCH  11  13
HETATM   13  C   UNL     1     -44.480 -53.681  12.471  1.00  0.00     0.307 C 
BRANCH  13  14
HETATM   14  C   UNL     1     -45.611 -52.674  12.727  1.00  0.00     0.084 C 
HETATM   15  C   UNL     1     -45.223 -51.297  13.354  1.00  0.00     0.039 C 
HETATM   16  C   UNL     1     -46.504 -51.415  14.208  1.00  0.00     0.006 C 
HETATM   17  C   UNL     1     -46.376 -52.942  14.056  1.00  0.00     0.039 C 
BRANCH  14  18
HETATM   18  O   UNL     1     -46.451 -52.577  11.546  1.00  0.00    -0.388 OA
HETATM   19  H   UNL     1     -47.318 -52.316  11.903  1.00  0.00     0.210 HD
ENDBRANCH  14  18
ENDBRANCH  13  14
ENDBRANCH  11  13
ENDBRANCH  10  11
ENDBRANCH   4  10
BRANCH   3  20
HETATM   20  C   UNL     1     -39.224 -49.669  12.105  1.00  0.00     0.030 C 
HETATM   21  C   UNL     1     -39.106 -48.344  12.889  1.00  0.00     0.038 C 
HETATM   22  C   UNL     1     -37.879 -49.845  11.354  1.00  0.00     0.038 C 
HETATM   23  C   UNL     1     -40.358 -49.467  11.074  1.00  0.00     0.038 C 
ENDBRANCH   3  20
TORSDOF 6
ENDMDL
MODEL 6
REMARK VINA RESULT:      -5.3      1.977      2.342
REMARK  6 active torsions:
REMARK  status: ('A' for Active; 'I' for Inactive)
REMARK    1  A    between atoms: N_3  and  C_7 
REMARK    2  A    between atoms: C_4  and  C_12 
REMARK    3  A    between atoms: C_10  and  C_14 
REMARK    4  A    between atoms: C_10  and  O_13 
REMARK    5  A    between atoms: N_11  and  C_12 
REMARK    6  A    between atoms: N_11  and  C_14 
ROOT
HETATM    1  C   UNL     1     -42.818 -54.656  14.453  1.00  0.00     0.330 C 
HETATM    2  N   UNL     1     -41.478 -54.548  14.168  1.00  0.00    -0.275 N 
HETATM    3  N   UNL     1     -43.658 -53.787  13.753  1.00  0.00    -0.300 N 
HETATM    4  C   UNL     1     -41.795 -52.719  12.645  1.00  0.00     0.053 C 
HETATM    5  C   UNL     1     -43.108 -52.889  12.840  1.00  0.00     0.111 C 
HETATM    6  C   UNL     1     -40.881 -53.594  13.406  1.00  0.00     0.258 C 
HETATM    7  O   UNL     1     -43.155 -55.480  15.297  1.00  0.00    -0.246 OA
HETATM    8  O   UNL     1     -39.663 -53.459  13.361  1.00  0.00    -0.267 OA
HETATM    9  H   UNL     1     -40.872 -55.141  14.710  1.00  0.00     0.173 HD
ENDROOT
BRANCH   4  10
HETATM   10  C   UNL     1     -41.148 -51.687  11.763  1.00  0.00     0.315 C 
BRANCH  10  11
HETATM   11  N   UNL     1     -41.865 -50.397  11.749  1.00  0.00     0.090 N 
HETATM   12  H   UNL     1     -42.178 -50.221  12.706  1.00  0.00     0.316 HD
BRANCH  11  13
HETATM   13  C   UNL     1     -40.935 -49.305  11.408  1.00  0.00     0.307 C 
BRANCH  13  14
HETATM   14  C   UNL     1     -41.681 -48.159  10.709  1.00  0.00     0.084 C 
HETATM   15  C   UNL     1     -41.178 -46.704  10.972  1.00  0.00     0.039 C 
HETATM   16  C   UNL     1     -42.663 -46.285  11.026  1.00  0.00     0.006 C 
HETATM   17  C   UNL     1     -42.978 -47.731  11.454  1.00  0.00     0.039 C 
BRANCH  14  18
HETATM   18  O   UNL     1     -41.861 -48.484   9.304  1.00  0.00    -0.388 OA
HETATM   19  H   UNL     1     -41.262 -47.867   8.848  1.00  0.00     0.210 HD
ENDBRANCH  14  18
ENDBRANCH  13  14
ENDBRANCH  11  13
ENDBRANCH  10  11
ENDBRANCH   4  10
BRANCH   3  20
HETATM   20  C   UNL     1     -45.153 -53.706  13.993  1.00  0.00     0.030 C 
HETATM   21  C   UNL     1     -45.882 -55.067  14.004  1.00  0.00     0.038 C 
HETATM   22  C   UNL     1     -45.424 -53.063  15.377  1.00  0.00     0.038 C 
HETATM   23  C   UNL     1     -45.833 -52.854  12.897  1.00  0.00     0.038 C 
ENDBRANCH   3  20
TORSDOF 6
ENDMDL
MODEL 7
REMARK VINA RESULT:      -5.2      1.987      6.076
REMARK  6 active torsions:
REMARK  status: ('A' for Active; 'I' for Inactive)
REMARK    1  A    between atoms: N_3  and  C_7 
REMARK    2  A    between atoms: C_4  and  C_12 
REMARK    3  A    between atoms: C_10  and  C_14 
REMARK    4  A    between atoms: C_10  and  O_13 
REMARK    5  A    between atoms: N_11  and  C_12 
REMARK    6  A    between atoms: N_11  and  C_14 
ROOT
HETATM    1  C   UNL     1     -40.550 -50.697  11.754  1.00  0.00     0.330 C 
HETATM    2  N   UNL     1     -41.683 -51.423  11.476  1.00  0.00    -0.275 N 
HETATM    3  N   UNL     1     -39.767 -51.177  12.806  1.00  0.00    -0.300 N 
HETATM    4  C   UNL     1     -41.322 -52.963  13.283  1.00  0.00     0.053 C 
HETATM    5  C   UNL     1     -40.166 -52.323  13.492  1.00  0.00     0.111 C 
HETATM    6  C   UNL     1     -42.193 -52.450  12.206  1.00  0.00     0.258 C 
HETATM    7  O   UNL     1     -40.336 -49.695  11.079  1.00  0.00    -0.246 OA
HETATM    8  O   UNL     1     -43.308 -52.914  11.994  1.00  0.00    -0.267 OA
HETATM    9  H   UNL     1     -42.270 -51.046  10.750  1.00  0.00     0.173 HD
ENDROOT
BRANCH   4  10
HETATM   10  C   UNL     1     -41.855 -54.128  14.071  1.00  0.00     0.315 C 
BRANCH  10  11
HETATM   11  N   UNL     1     -42.974 -53.768  14.963  1.00  0.00     0.090 N 
HETATM   12  H   UNL     1     -43.320 -52.858  14.652  1.00  0.00     0.316 HD
BRANCH  11  13
HETATM   13  C   UNL     1     -44.087 -54.719  14.788  1.00  0.00     0.307 C 
BRANCH  13  14
HETATM   14  C   UNL     1     -45.360 -53.984  14.342  1.00  0.00     0.084 C 
HETATM   15  C   UNL     1     -45.468 -52.461  14.673  1.00  0.00     0.039 C 
HETATM   16  C   UNL     1     -46.953 -52.721  15.008  1.00  0.00     0.006 C 
HETATM   17  C   UNL     1     -46.549 -54.173  15.327  1.00  0.00     0.039 C 
BRANCH  14  18
HETATM   18  O   UNL     1     -45.652 -54.317  12.958  1.00  0.00    -0.388 OA
HETATM   19  H   UNL     1     -46.527 -54.741  13.005  1.00  0.00     0.210 HD
ENDBRANCH  14  18
ENDBRANCH  13  14
ENDBRANCH  11  13
ENDBRANCH  10  11
ENDBRANCH   4  10
BRANCH   3  20
HETATM   20  C   UNL     1     -38.526 -50.465  13.308  1.00  0.00     0.030 C 
HETATM   21  C   UNL     1     -38.687 -48.942  13.506  1.00  0.00     0.038 C 
HETATM   22  C   UNL     1     -38.121 -51.037  14.691  1.00  0.00     0.038 C 
HETATM   23  C   UNL     1     -37.353 -50.655  12.319  1.00  0.00     0.038 C 
ENDBRANCH   3  20
TORSDOF 6
ENDMDL
MODEL 8
REMARK VINA RESULT:      -5.1      2.135      2.943
REMARK  6 active torsions:
REMARK  status: ('A' for Active; 'I' for Inactive)
REMARK    1  A    between atoms: N_3  and  C_7 
REMARK    2  A    between atoms: C_4  and  C_12 
REMARK    3  A    between atoms: C_10  and  C_14 
REMARK    4  A    between atoms: C_10  and  O_13 
REMARK    5  A    between atoms: N_11  and  C_12 
REMARK    6  A    between atoms: N_11  and  C_14 
ROOT
HETATM    1  C   UNL     1     -43.275 -54.620  15.370  1.00  0.00     0.330 C 
HETATM    2  N   UNL     1     -41.996 -54.816  14.908  1.00  0.00    -0.275 N 
HETATM    3  N   UNL     1     -44.070 -53.761  14.609  1.00  0.00    -0.300 N 
HETATM    4  C   UNL     1     -42.262 -53.281  13.079  1.00  0.00     0.053 C 
HETATM    5  C   UNL     1     -43.538 -53.168  13.464  1.00  0.00     0.111 C 
HETATM    6  C   UNL     1     -41.386 -54.148  13.892  1.00  0.00     0.258 C 
HETATM    7  O   UNL     1     -43.599 -55.193  16.406  1.00  0.00    -0.246 OA
HETATM    8  O   UNL     1     -40.184 -54.249  13.671  1.00  0.00    -0.267 OA
HETATM    9  H   UNL     1     -41.411 -55.396  15.486  1.00  0.00     0.173 HD
ENDROOT
BRANCH   4  10
HETATM   10  C   UNL     1     -41.610 -52.571  11.925  1.00  0.00     0.315 C 
BRANCH  10  11
HETATM   11  N   UNL     1     -41.980 -51.146  11.831  1.00  0.00     0.090 N 
HETATM   12  H   UNL     1     -42.885 -51.043  12.296  1.00  0.00     0.316 HD
BRANCH  11  13
HETATM   13  C   UNL     1     -41.025 -50.323  12.595  1.00  0.00     0.307 C 
BRANCH  13  14
HETATM   14  C   UNL     1     -39.811 -49.958  11.726  1.00  0.00     0.084 C 
HETATM   15  C   UNL     1     -38.459 -50.676  12.037  1.00  0.00     0.039 C 
HETATM   16  C   UNL     1     -37.772 -49.316  11.783  1.00  0.00     0.006 C 
HETATM   17  C   UNL     1     -39.102 -48.652  12.187  1.00  0.00     0.039 C 
BRANCH  14  18
HETATM   18  O   UNL     1     -40.193 -49.985  10.324  1.00  0.00    -0.388 OA
HETATM   19  H   UNL     1     -40.931 -49.351  10.276  1.00  0.00     0.210 HD
ENDBRANCH  14  18
ENDBRANCH  13  14
ENDBRANCH  11  13
ENDBRANCH  10  11
ENDBRANCH   4  10
BRANCH   3  20
HETATM   20  C   UNL     1     -45.478 -53.364  15.006  1.00  0.00     0.030 C 
HETATM   21  C   UNL     1     -45.644 -52.956  16.486  1.00  0.00     0.038 C 
HETATM   22  C   UNL     1     -45.928 -52.138  14.170  1.00  0.00     0.038 C 
HETATM   23  C   UNL     1     -46.461 -54.532  14.761  1.00  0.00     0.038 C 
ENDBRANCH   3  20
TORSDOF 6
ENDMDL
MODEL 9
REMARK VINA RESULT:      -5.0      2.883      6.679
REMARK  6 active torsions:
REMARK  status: ('A' for Active; 'I' for Inactive)
REMARK    1  A    between atoms: N_3  and  C_7 
REMARK    2  A    between atoms: C_4  and  C_12 
REMARK    3  A    between atoms: C_10  and  C_14 
REMARK    4  A    between atoms: C_10  and  O_13 
REMARK    5  A    between atoms: N_11  and  C_12 
REMARK    6  A    between atoms: N_11  and  C_14 
ROOT
HETATM    1  C   UNL     1     -39.413 -46.083  13.362  1.00  0.00     0.330 C 
HETATM    2  N   UNL     1     -38.685 -47.146  13.839  1.00  0.00    -0.275 N 
HETATM    3  N   UNL     1     -40.165 -46.331  12.212  1.00  0.00    -0.300 N 
HETATM    4  C   UNL     1     -39.341 -48.596  12.040  1.00  0.00     0.053 C 
HETATM    5  C   UNL     1     -40.133 -47.598  11.631  1.00  0.00     0.111 C 
HETATM    6  C   UNL     1     -38.500 -48.347  13.228  1.00  0.00     0.258 C 
HETATM    7  O   UNL     1     -39.328 -45.019  13.967  1.00  0.00    -0.246 OA
HETATM    8  O   UNL     1     -37.682 -49.167  13.630  1.00  0.00    -0.267 OA
HETATM    9  H   UNL     1     -38.106 -46.950  14.639  1.00  0.00     0.173 HD
ENDROOT
BRANCH   4  10
HETATM   10  C   UNL     1     -39.180 -49.938  11.381  1.00  0.00     0.315 C 
BRANCH  10  11
HETATM   11  N   UNL     1     -40.458 -50.645  11.173  1.00  0.00     0.090 N 
HETATM   12  H   UNL     1     -40.246 -51.490  10.639  1.00  0.00     0.316 HD
BRANCH  11  13
HETATM   13  C   UNL     1     -41.002 -51.096  12.467  1.00  0.00     0.307 C 
BRANCH  13  14
HETATM   14  C   UNL     1     -41.410 -52.576  12.395  1.00  0.00     0.084 C 
HETATM   15  C   UNL     1     -42.938 -52.903  12.375  1.00  0.00     0.039 C 
HETATM   16  C   UNL     1     -42.615 -54.085  13.314  1.00  0.00     0.006 C 
HETATM   17  C   UNL     1     -41.386 -53.283  13.781  1.00  0.00     0.039 C 
BRANCH  14  18
HETATM   18  O   UNL     1     -40.643 -53.240  11.355  1.00  0.00    -0.388 OA
HETATM   19  H   UNL     1     -39.849 -53.554  11.822  1.00  0.00     0.210 HD
ENDBRANCH  14  18
ENDBRANCH  13  14
ENDBRANCH  11  13
ENDBRANCH  10  11
ENDBRANCH   4  10
BRANCH   3  20
HETATM   20  C   UNL     1     -40.966 -45.260  11.498  1.00  0.00     0.030 C 
HETATM   21  C   UNL     1     -42.022 -44.550  12.372  1.00  0.00     0.038 C 
HETATM   22  C   UNL     1     -40.012 -44.149  10.990  1.00  0.00     0.038 C 
HETATM   23  C   UNL     1     -41.727 -45.863  10.295  1.00  0.00     0.038 C 
ENDBRANCH   3  20
TORSDOF 6
ENDMDL
