MODEL 1
REMARK VINA RESULT:      -5.4      0.000      0.000
REMARK  4 active torsions:
REMARK  status: ('A' for Active; 'I' for Inactive)
REMARK    1  A    between atoms: C_2  and  N_4 
REMARK    2  A    between atoms: N_4  and  C_13 
REMARK    3  A    between atoms: C_13  and  C_14 
REMARK    4  A    between atoms: C_15  and  O_18 
ROOT
HETATM    1  C   UNL     1     -42.227 -48.965  11.865  1.00  0.00     0.053 A 
HETATM    2  C   UNL     1     -41.903 -49.704  13.037  1.00  0.00     0.118 A 
HETATM    3  C   UNL     1     -41.346 -49.077  10.789  1.00  0.00     0.120 A 
HETATM    4  N   UNL     1     -40.844 -50.563  12.919  1.00  0.00    -0.338 N 
ATOM      5  HN  UNL     1     -40.604 -51.178  13.697  1.00  0.00     0.168 HD
HETATM    6  N   UNL     1     -40.273 -49.863  10.684  1.00  0.00    -0.338 N 
ATOM      7  HN  UNL     1     -39.654 -49.893   9.873  1.00  0.00     0.168 HD
HETATM    8  N   UNL     1     -41.733 -48.202   9.811  1.00  0.00    -0.351 N 
HETATM    9  C   UNL     1     -43.242 -48.062  11.422  1.00  0.00     0.036 A 
HETATM   10  C   UNL     1     -40.116 -50.607  11.786  1.00  0.00     0.183 A 
HETATM   11  C   UNL     1     -42.899 -47.591  10.172  1.00  0.00     0.091 A 
HETATM   12  H   UNL     1     -41.215 -48.062   8.955  1.00  0.00     0.166 HD
ENDROOT
BRANCH   2  13
HETATM   13  N   UNL     1     -42.528 -49.632  14.287  1.00  0.00    -0.370 N 
HETATM   14  C   UNL     1     -42.197 -48.445  15.084  1.00  0.00     0.151 C 
BRANCH  13  15
HETATM   15  C   UNL     1     -43.839 -50.220  14.554  1.00  0.00     0.128 C 
BRANCH  15  16
HETATM   16  C   UNL     1     -44.333 -51.084  13.401  1.00  0.00     0.008 C 
HETATM   17  C   UNL     1     -45.826 -51.513  13.504  1.00  0.00     0.038 C 
HETATM   18  C   UNL     1     -45.420 -52.808  12.760  1.00  0.00     0.119 C 
HETATM   19  C   UNL     1     -44.020 -52.612  13.402  1.00  0.00     0.038 C 
BRANCH  18  20
HETATM   20  O   UNL     1     -46.138 -53.994  13.136  1.00  0.00    -0.396 OA
HETATM   21  H   UNL     1     -46.253 -53.921  14.099  1.00  0.00     0.210 HD
ENDBRANCH  18  20
ENDBRANCH  15  16
ENDBRANCH  13  15
ENDBRANCH   2  13
TORSDOF 4
ENDMDL
MODEL 2
REMARK VINA RESULT:      -5.4      2.847      3.961
REMARK  4 active torsions:
REMARK  status: ('A' for Active; 'I' for Inactive)
REMARK    1  A    between atoms: C_2  and  N_4 
REMARK    2  A    between atoms: N_4  and  C_13 
REMARK    3  A    between atoms: C_13  and  C_14 
REMARK    4  A    between atoms: C_15  and  O_18 
ROOT
HETATM    1  C   UNL     1     -40.091 -50.370  12.534  1.00  0.00     0.053 A 
HETATM    2  C   UNL     1     -41.426 -50.426  13.022  1.00  0.00     0.118 A 
HETATM    3  C   UNL     1     -39.894 -49.709  11.321  1.00  0.00     0.120 A 
HETATM    4  N   UNL     1     -42.343 -49.689  12.322  1.00  0.00    -0.338 N 
ATOM      5  HN  UNL     1     -43.303 -49.626  12.660  1.00  0.00     0.168 HD
HETATM    6  N   UNL     1     -40.792 -49.041  10.593  1.00  0.00    -0.338 N 
ATOM      7  HN  UNL     1     -40.592 -48.587   9.702  1.00  0.00     0.168 HD
HETATM    8  N   UNL     1     -38.590 -49.871  10.938  1.00  0.00    -0.351 N 
HETATM    9  C   UNL     1     -38.795 -50.829  12.921  1.00  0.00     0.036 A 
HETATM   10  C   UNL     1     -41.990 -49.048  11.190  1.00  0.00     0.183 A 
HETATM   11  C   UNL     1     -37.902 -50.534  11.913  1.00  0.00     0.091 A 
HETATM   12  H   UNL     1     -38.223 -49.528  10.062  1.00  0.00     0.166 HD
ENDROOT
BRANCH   2  13
HETATM   13  N   UNL     1     -41.901 -51.161  14.115  1.00  0.00    -0.370 N 
HETATM   14  C   UNL     1     -42.188 -50.374  15.320  1.00  0.00     0.151 C 
BRANCH  13  15
HETATM   15  C   UNL     1     -42.683 -52.387  13.966  1.00  0.00     0.128 C 
BRANCH  15  16
HETATM   16  C   UNL     1     -41.818 -53.639  14.041  1.00  0.00     0.008 C 
HETATM   17  C   UNL     1     -40.461 -53.448  14.781  1.00  0.00     0.038 C 
HETATM   18  C   UNL     1     -39.886 -54.526  13.832  1.00  0.00     0.119 C 
HETATM   19  C   UNL     1     -40.951 -54.044  12.810  1.00  0.00     0.038 C 
BRANCH  18  20
HETATM   20  O   UNL     1     -38.511 -54.354  13.454  1.00  0.00    -0.396 OA
HETATM   21  H   UNL     1     -38.530 -54.241  12.488  1.00  0.00     0.210 HD
ENDBRANCH  18  20
ENDBRANCH  15  16
ENDBRANCH  13  15
ENDBRANCH   2  13
TORSDOF 4
ENDMDL
MODEL 3
REMARK VINA RESULT:      -5.4      3.718      6.191
REMARK  4 active torsions:
REMARK  status: ('A' for Active; 'I' for Inactive)
REMARK    1  A    between atoms: C_2  and  N_4 
REMARK    2  A    between atoms: N_4  and  C_13 
REMARK    3  A    between atoms: C_13  and  C_14 
REMARK    4  A    between atoms: C_15  and  O_18 
ROOT
HETATM    1  C   UNL     1     -44.969 -53.299  14.065  1.00  0.00     0.053 A 
HETATM    2  C   UNL     1     -44.366 -52.022  14.231  1.00  0.00     0.118 A 
HETATM    3  C   UNL     1     -46.267 -53.449  14.554  1.00  0.00     0.120 A 
HETATM    4  N   UNL     1     -45.188 -51.040  14.714  1.00  0.00    -0.338 N 
ATOM      5  HN  UNL     1     -44.841 -50.083  14.788  1.00  0.00     0.168 HD
HETATM    6  N   UNL     1     -47.057 -52.515  15.087  1.00  0.00    -0.338 N 
ATOM      7  HN  UNL     1     -47.998 -52.687  15.442  1.00  0.00     0.168 HD
HETATM    8  N   UNL     1     -46.633 -54.762  14.436  1.00  0.00    -0.351 N 
HETATM    9  C   UNL     1     -44.625 -54.578  13.526  1.00  0.00     0.036 A 
HETATM   10  C   UNL     1     -46.450 -51.322  15.092  1.00  0.00     0.183 A 
HETATM   11  C   UNL     1     -45.652 -55.460  13.792  1.00  0.00     0.091 A 
HETATM   12  H   UNL     1     -47.512 -55.126  14.775  1.00  0.00     0.166 HD
ENDROOT
BRANCH   2  13
HETATM   13  N   UNL     1     -43.035 -51.671  13.977  1.00  0.00    -0.370 N 
HETATM   14  C   UNL     1     -42.850 -50.553  13.045  1.00  0.00     0.151 C 
BRANCH  13  15
HETATM   15  C   UNL     1     -41.966 -51.852  14.958  1.00  0.00     0.128 C 
BRANCH  15  16
HETATM   16  C   UNL     1     -41.329 -53.233  14.874  1.00  0.00     0.008 C 
HETATM   17  C   UNL     1     -39.797 -53.260  15.148  1.00  0.00     0.038 C 
HETATM   18  C   UNL     1     -39.724 -54.453  14.165  1.00  0.00     0.119 C 
HETATM   19  C   UNL     1     -40.967 -53.824  13.477  1.00  0.00     0.038 C 
BRANCH  18  20
HETATM   20  O   UNL     1     -38.528 -54.537  13.375  1.00  0.00    -0.396 OA
HETATM   21  H   UNL     1     -37.963 -53.814  13.699  1.00  0.00     0.210 HD
ENDBRANCH  18  20
ENDBRANCH  15  16
ENDBRANCH  13  15
ENDBRANCH   2  13
TORSDOF 4
ENDMDL
MODEL 4
REMARK VINA RESULT:      -5.3      1.875      3.217
REMARK  4 active torsions:
REMARK  status: ('A' for Active; 'I' for Inactive)
REMARK    1  A    between atoms: C_2  and  N_4 
REMARK    2  A    between atoms: N_4  and  C_13 
REMARK    3  A    between atoms: C_13  and  C_14 
REMARK    4  A    between atoms: C_15  and  O_18 
ROOT
HETATM    1  C   UNL     1     -41.720 -52.122  13.334  1.00  0.00     0.053 A 
HETATM    2  C   UNL     1     -42.255 -50.884  13.786  1.00  0.00     0.118 A 
HETATM    3  C   UNL     1     -41.097 -52.119  12.086  1.00  0.00     0.120 A 
HETATM    4  N   UNL     1     -41.960 -49.795  13.011  1.00  0.00    -0.338 N 
ATOM      5  HN  UNL     1     -42.249 -48.866  13.316  1.00  0.00     0.168 HD
HETATM    6  N   UNL     1     -40.859 -51.075  11.290  1.00  0.00    -0.338 N 
ATOM      7  HN  UNL     1     -40.409 -51.135  10.376  1.00  0.00     0.168 HD
HETATM    8  N   UNL     1     -40.770 -53.405  11.754  1.00  0.00    -0.351 N 
HETATM    9  C   UNL     1     -41.632 -53.474  13.790  1.00  0.00     0.036 A 
HETATM   10  C   UNL     1     -41.290 -49.938  11.850  1.00  0.00     0.183 A 
HETATM   11  C   UNL     1     -41.070 -54.241  12.791  1.00  0.00     0.091 A 
HETATM   12  H   UNL     1     -40.358 -53.662  10.869  1.00  0.00     0.166 HD
ENDROOT
BRANCH   2  13
HETATM   13  N   UNL     1     -43.059 -50.665  14.911  1.00  0.00    -0.370 N 
HETATM   14  C   UNL     1     -43.180 -49.264  15.330  1.00  0.00     0.151 C 
BRANCH  13  15
HETATM   15  C   UNL     1     -44.193 -51.522  15.256  1.00  0.00     0.128 C 
BRANCH  15  16
HETATM   16  C   UNL     1     -45.428 -51.214  14.419  1.00  0.00     0.008 C 
HETATM   17  C   UNL     1     -46.354 -52.438  14.154  1.00  0.00     0.038 C 
HETATM   18  C   UNL     1     -46.712 -51.771  12.804  1.00  0.00     0.119 C 
HETATM   19  C   UNL     1     -45.298 -51.130  12.867  1.00  0.00     0.038 C 
BRANCH  18  20
HETATM   20  O   UNL     1     -46.961 -52.669  11.712  1.00  0.00    -0.396 OA
HETATM   21  H   UNL     1     -47.922 -52.818  11.725  1.00  0.00     0.210 HD
ENDBRANCH  18  20
ENDBRANCH  15  16
ENDBRANCH  13  15
ENDBRANCH   2  13
TORSDOF 4
ENDMDL
MODEL 5
REMARK VINA RESULT:      -5.3      3.113      4.809
REMARK  4 active torsions:
REMARK  status: ('A' for Active; 'I' for Inactive)
REMARK    1  A    between atoms: C_2  and  N_4 
REMARK    2  A    between atoms: N_4  and  C_13 
REMARK    3  A    between atoms: C_13  and  C_14 
REMARK    4  A    between atoms: C_15  and  O_18 
ROOT
HETATM    1  C   UNL     1     -41.385 -47.153  11.260  1.00  0.00     0.053 A 
HETATM    2  C   UNL     1     -42.280 -48.245  11.436  1.00  0.00     0.118 A 
HETATM    3  C   UNL     1     -41.626 -46.312  10.173  1.00  0.00     0.120 A 
HETATM    4  N   UNL     1     -43.369 -48.254  10.607  1.00  0.00    -0.338 N 
ATOM      5  HN  UNL     1     -44.089 -48.967  10.728  1.00  0.00     0.168 HD
HETATM    6  N   UNL     1     -42.649 -46.349   9.317  1.00  0.00    -0.338 N 
ATOM      7  HN  UNL     1     -42.767 -45.713   8.529  1.00  0.00     0.168 HD
HETATM    8  N   UNL     1     -40.601 -45.411  10.078  1.00  0.00    -0.351 N 
HETATM    9  C   UNL     1     -40.217 -46.621  11.890  1.00  0.00     0.036 A 
HETATM   10  C   UNL     1     -43.501 -47.333   9.632  1.00  0.00     0.183 A 
HETATM   11  C   UNL     1     -39.744 -45.572  11.128  1.00  0.00     0.091 A 
HETATM   12  H   UNL     1     -40.526 -44.733   9.333  1.00  0.00     0.166 HD
ENDROOT
BRANCH   2  13
HETATM   13  N   UNL     1     -42.158 -49.308  12.338  1.00  0.00    -0.370 N 
HETATM   14  C   UNL     1     -43.349 -49.577  13.151  1.00  0.00     0.151 C 
BRANCH  13  15
HETATM   15  C   UNL     1     -41.291 -50.460  12.094  1.00  0.00     0.128 C 
BRANCH  15  16
HETATM   16  C   UNL     1     -39.937 -50.322  12.777  1.00  0.00     0.008 C 
HETATM   17  C   UNL     1     -38.738 -50.112  11.806  1.00  0.00     0.038 C 
HETATM   18  C   UNL     1     -37.872 -50.867  12.842  1.00  0.00     0.119 C 
HETATM   19  C   UNL     1     -39.180 -51.604  13.240  1.00  0.00     0.038 C 
BRANCH  18  20
HETATM   20  O   UNL     1     -36.818 -51.678  12.300  1.00  0.00    -0.396 OA
HETATM   21  H   UNL     1     -36.926 -52.545  12.727  1.00  0.00     0.210 HD
ENDBRANCH  18  20
ENDBRANCH  15  16
ENDBRANCH  13  15
ENDBRANCH   2  13
TORSDOF 4
ENDMDL
MODEL 6
REMARK VINA RESULT:      -5.3      3.936      6.173
REMARK  4 active torsions:
REMARK  status: ('A' for Active; 'I' for Inactive)
REMARK    1  A    between atoms: C_2  and  N_4 
REMARK    2  A    between atoms: N_4  and  C_13 
REMARK    3  A    between atoms: C_13  and  C_14 
REMARK    4  A    between atoms: C_15  and  O_18 
ROOT
HETATM    1  C   UNL     1     -45.152 -52.572  14.763  1.00  0.00     0.053 A 
HETATM    2  C   UNL     1     -44.045 -53.207  14.134  1.00  0.00     0.118 A 
HETATM    3  C   UNL     1     -46.357 -53.273  14.771  1.00  0.00     0.120 A 
HETATM    4  N   UNL     1     -44.252 -54.502  13.744  1.00  0.00    -0.338 N 
ATOM      5  HN  UNL     1     -43.479 -55.041  13.353  1.00  0.00     0.168 HD
HETATM    6  N   UNL     1     -46.589 -54.514  14.336  1.00  0.00    -0.338 N 
ATOM      7  HN  UNL     1     -47.500 -54.973  14.355  1.00  0.00     0.168 HD
HETATM    8  N   UNL     1     -47.334 -52.465  15.287  1.00  0.00    -0.351 N 
HETATM    9  C   UNL     1     -45.436 -51.337  15.425  1.00  0.00     0.036 A 
HETATM   10  C   UNL     1     -45.466 -55.074  13.871  1.00  0.00     0.183 A 
HETATM   11  C   UNL     1     -46.785 -51.289  15.709  1.00  0.00     0.091 A 
HETATM   12  H   UNL     1     -48.305 -52.735  15.342  1.00  0.00     0.166 HD
ENDROOT
BRANCH   2  13
HETATM   13  N   UNL     1     -42.792 -52.650  13.854  1.00  0.00    -0.370 N 
HETATM   14  C   UNL     1     -42.656 -52.055  12.520  1.00  0.00     0.151 C 
BRANCH  13  15
HETATM   15  C   UNL     1     -41.929 -52.078  14.886  1.00  0.00     0.128 C 
BRANCH  15  16
HETATM   16  C   UNL     1     -40.731 -52.965  15.198  1.00  0.00     0.008 C 
HETATM   17  C   UNL     1     -39.515 -52.773  14.244  1.00  0.00     0.038 C 
HETATM   18  C   UNL     1     -39.201 -54.271  14.476  1.00  0.00     0.119 C 
HETATM   19  C   UNL     1     -40.727 -54.445  14.707  1.00  0.00     0.038 C 
BRANCH  18  20
HETATM   20  O   UNL     1     -38.638 -54.970  13.355  1.00  0.00    -0.396 OA
HETATM   21  H   UNL     1     -37.860 -54.444  13.098  1.00  0.00     0.210 HD
ENDBRANCH  18  20
ENDBRANCH  15  16
ENDBRANCH  13  15
ENDBRANCH   2  13
TORSDOF 4
ENDMDL
MODEL 7
REMARK VINA RESULT:      -5.2      2.779      3.924
REMARK  4 active torsions:
REMARK  status: ('A' for Active; 'I' for Inactive)
REMARK    1  A    between atoms: C_2  and  N_4 
REMARK    2  A    between atoms: N_4  and  C_13 
REMARK    3  A    between atoms: C_13  and  C_14 
REMARK    4  A    between atoms: C_15  and  O_18 
ROOT
HETATM    1  C   UNL     1     -40.612 -46.999  11.408  1.00  0.00     0.053 A 
HETATM    2  C   UNL     1     -40.875 -48.393  11.304  1.00  0.00     0.118 A 
HETATM    3  C   UNL     1     -41.286 -46.164  10.517  1.00  0.00     0.120 A 
HETATM    4  N   UNL     1     -41.880 -48.741  10.442  1.00  0.00    -0.338 N 
ATOM      5  HN  UNL     1     -42.171 -49.716  10.374  1.00  0.00     0.168 HD
HETATM    6  N   UNL     1     -42.222 -46.499   9.626  1.00  0.00    -0.338 N 
ATOM      7  HN  UNL     1     -42.673 -45.843   8.987  1.00  0.00     0.168 HD
HETATM    8  N   UNL     1     -40.813 -44.889  10.664  1.00  0.00    -0.351 N 
HETATM    9  C   UNL     1     -39.796 -46.125  12.191  1.00  0.00     0.036 A 
HETATM   10  C   UNL     1     -42.489 -47.809   9.682  1.00  0.00     0.183 A 
HETATM   11  C   UNL     1     -39.919 -44.844  11.695  1.00  0.00     0.091 A 
HETATM   12  H   UNL     1     -41.111 -44.116  10.086  1.00  0.00     0.166 HD
ENDROOT
BRANCH   2  13
HETATM   13  N   UNL     1     -40.213 -49.435  11.963  1.00  0.00    -0.370 N 
HETATM   14  C   UNL     1     -38.826 -49.659  11.541  1.00  0.00     0.151 C 
BRANCH  13  15
HETATM   15  C   UNL     1     -40.522 -49.829  13.336  1.00  0.00     0.128 C 
BRANCH  15  16
HETATM   16  C   UNL     1     -41.204 -51.189  13.410  1.00  0.00     0.008 C 
HETATM   17  C   UNL     1     -40.243 -52.384  13.680  1.00  0.00     0.038 C 
HETATM   18  C   UNL     1     -41.214 -53.249  12.842  1.00  0.00     0.119 C 
HETATM   19  C   UNL     1     -41.565 -51.937  12.090  1.00  0.00     0.038 C 
BRANCH  18  20
HETATM   20  O   UNL     1     -40.606 -54.292  12.063  1.00  0.00    -0.396 OA
HETATM   21  H   UNL     1     -41.339 -54.888  11.829  1.00  0.00     0.210 HD
ENDBRANCH  18  20
ENDBRANCH  15  16
ENDBRANCH  13  15
ENDBRANCH   2  13
TORSDOF 4
ENDMDL
MODEL 8
REMARK VINA RESULT:      -5.2      3.046      5.213
REMARK  4 active torsions:
REMARK  status: ('A' for Active; 'I' for Inactive)
REMARK    1  A    between atoms: C_2  and  N_4 
REMARK    2  A    between atoms: N_4  and  C_13 
REMARK    3  A    between atoms: C_13  and  C_14 
REMARK    4  A    between atoms: C_15  and  O_18 
ROOT
HETATM    1  C   UNL     1     -44.654 -51.455  13.391  1.00  0.00     0.053 A 
HETATM    2  C   UNL     1     -43.453 -50.713  13.211  1.00  0.00     0.118 A 
HETATM    3  C   UNL     1     -44.717 -52.706  12.778  1.00  0.00     0.120 A 
HETATM    4  N   UNL     1     -42.436 -51.381  12.583  1.00  0.00    -0.338 N 
ATOM      5  HN  UNL     1     -41.524 -50.934  12.487  1.00  0.00     0.168 HD
HETATM    6  N   UNL     1     -43.754 -53.342  12.107  1.00  0.00    -0.338 N 
ATOM      7  HN  UNL     1     -43.863 -54.255  11.666  1.00  0.00     0.168 HD
HETATM    8  N   UNL     1     -45.978 -53.212  12.938  1.00  0.00    -0.351 N 
HETATM    9  C   UNL     1     -45.916 -51.295  14.042  1.00  0.00     0.036 A 
HETATM   10  C   UNL     1     -42.627 -52.621  12.091  1.00  0.00     0.183 A 
HETATM   11  C   UNL     1     -46.716 -52.374  13.724  1.00  0.00     0.091 A 
HETATM   12  H   UNL     1     -46.282 -54.084  12.531  1.00  0.00     0.166 HD
ENDROOT
BRANCH   2  13
HETATM   13  N   UNL     1     -43.210 -49.385  13.581  1.00  0.00    -0.370 N 
HETATM   14  C   UNL     1     -43.205 -49.130  15.025  1.00  0.00     0.151 C 
BRANCH  13  15
HETATM   15  C   UNL     1     -42.391 -48.476  12.781  1.00  0.00     0.128 C 
BRANCH  15  16
HETATM   16  C   UNL     1     -43.004 -48.192  11.416  1.00  0.00     0.008 C 
HETATM   17  C   UNL     1     -41.976 -48.082  10.252  1.00  0.00     0.038 C 
HETATM   18  C   UNL     1     -42.948 -47.071   9.597  1.00  0.00     0.119 C 
HETATM   19  C   UNL     1     -43.399 -46.730  11.044  1.00  0.00     0.038 C 
BRANCH  18  20
HETATM   20  O   UNL     1     -42.334 -46.010   8.849  1.00  0.00    -0.396 OA
HETATM   21  H   UNL     1     -43.053 -45.378   8.677  1.00  0.00     0.210 HD
ENDBRANCH  18  20
ENDBRANCH  15  16
ENDBRANCH  13  15
ENDBRANCH   2  13
TORSDOF 4
ENDMDL
MODEL 9
REMARK VINA RESULT:      -5.2      1.951      3.286
REMARK  4 active torsions:
REMARK  status: ('A' for Active; 'I' for Inactive)
REMARK    1  A    between atoms: C_2  and  N_4 
REMARK    2  A    between atoms: N_4  and  C_13 
REMARK    3  A    between atoms: C_13  and  C_14 
REMARK    4  A    between atoms: C_15  and  O_18 
ROOT
HETATM    1  C   UNL     1     -39.622 -50.750  12.425  1.00  0.00     0.053 A 
HETATM    2  C   UNL     1     -40.918 -51.101  12.895  1.00  0.00     0.118 A 
HETATM    3  C   UNL     1     -39.558 -49.783  11.422  1.00  0.00     0.120 A 
HETATM    4  N   UNL     1     -41.947 -50.336  12.416  1.00  0.00    -0.338 N 
ATOM      5  HN  UNL     1     -42.893 -50.485  12.768  1.00  0.00     0.168 HD
HETATM    6  N   UNL     1     -40.562 -49.075  10.899  1.00  0.00    -0.338 N 
ATOM      7  HN  UNL     1     -40.456 -48.387  10.152  1.00  0.00     0.168 HD
HETATM    8  N   UNL     1     -38.262 -49.672  10.999  1.00  0.00    -0.351 N 
HETATM    9  C   UNL     1     -38.264 -51.121  12.670  1.00  0.00     0.036 A 
HETATM   10  C   UNL     1     -41.724 -49.387  11.485  1.00  0.00     0.183 A 
HETATM   11  C   UNL     1     -37.457 -50.466  11.764  1.00  0.00     0.091 A 
HETATM   12  H   UNL     1     -37.976 -49.074  10.237  1.00  0.00     0.166 HD
ENDROOT
BRANCH   2  13
HETATM   13  N   UNL     1     -41.253 -52.144  13.766  1.00  0.00    -0.370 N 
HETATM   14  C   UNL     1     -41.501 -51.743  15.155  1.00  0.00     0.151 C 
BRANCH  13  15
HETATM   15  C   UNL     1     -41.954 -53.350  13.327  1.00  0.00     0.128 C 
BRANCH  15  16
HETATM   16  C   UNL     1     -43.365 -53.440  13.894  1.00  0.00     0.008 C 
HETATM   17  C   UNL     1     -43.704 -54.796  14.580  1.00  0.00     0.038 C 
HETATM   18  C   UNL     1     -45.163 -54.572  14.118  1.00  0.00     0.119 C 
HETATM   19  C   UNL     1     -44.553 -53.765  12.938  1.00  0.00     0.038 C 
BRANCH  18  20
HETATM   20  O   UNL     1     -45.897 -55.757  13.772  1.00  0.00    -0.396 OA
HETATM   21  H   UNL     1     -46.773 -55.636  14.177  1.00  0.00     0.210 HD
ENDBRANCH  18  20
ENDBRANCH  15  16
ENDBRANCH  13  15
ENDBRANCH   2  13
TORSDOF 4
ENDMDL
