MODEL 1
REMARK VINA RESULT:      -6.5      0.000      0.000
REMARK  5 active torsions:
REMARK  status: ('A' for Active; 'I' for Inactive)
REMARK    1  A    between atoms: C_2  and  N_3 
REMARK    2  A    between atoms: C_5  and  N_6 
REMARK       I    between atoms: N_6  and  C_7 
REMARK       I    between atoms: C_7  and  N_9 
REMARK    3  A    between atoms: N_9  and  C_10 
REMARK    4  A    between atoms: C_10  and  C_11 
REMARK    5  A    between atoms: C_11  and  N_12 
ROOT
HETATM    1  N   UNL     1     -41.848 -48.324   9.570  1.00  0.00    -0.306 N 
HETATM    2  C   UNL     1     -41.394 -48.803  10.775  1.00  0.00     0.320 C 
HETATM    3  O   UNL     1     -41.794 -48.466  11.886  1.00  0.00    -0.247 OA
HETATM    4  N   UNL     1     -40.380 -49.731  10.627  1.00  0.00    -0.341 N 
HETATM    5  H   UNL     1     -41.336 -48.563   8.733  1.00  0.00     0.171 HD
HETATM    6  H   UNL     1     -40.458 -50.330   9.818  1.00  0.00     0.164 HD
ENDROOT
BRANCH   1   7
HETATM    7  C   UNL     1     -42.887 -47.417   9.451  1.00  0.00     0.070 A 
HETATM    8  C   UNL     1     -44.205 -47.685   9.166  1.00  0.00     0.141 A 
HETATM    9  N   UNL     1     -44.848 -46.488   9.129  1.00  0.00    -0.302 N 
HETATM   10  N   UNL     1     -44.040 -45.438   9.380  1.00  0.00    -0.308 N 
HETATM   11  C   UNL     1     -42.846 -46.011   9.577  1.00  0.00     0.138 A 
ATOM     12  HN  UNL     1     -44.281 -44.447   9.413  1.00  0.00     0.186 HD
BRANCH   9  13
HETATM   13  C   UNL     1     -46.250 -46.292   8.815  1.00  0.00     0.143 C 
HETATM   14  C   UNL     1     -47.072 -47.549   9.038  1.00  0.00     0.028 C 
ENDBRANCH   9  13
ENDBRANCH   1   7
BRANCH   4  15
HETATM   15  C   UNL     1     -39.879 -50.329  11.853  1.00  0.00     0.154 C 
BRANCH  15  16
HETATM   16  C   UNL     1     -40.535 -51.671  12.193  1.00  0.00     0.292 C 
BRANCH  16  17
HETATM   17  N   UNL     1     -41.297 -51.647  13.455  1.00  0.00     0.090 N 
HETATM   18  C   UNL     1     -40.875 -52.666  14.432  1.00  0.00     0.272 C 
HETATM   19  C   UNL     1     -41.223 -54.096  14.017  1.00  0.00     0.031 C 
HETATM   20  C   UNL     1     -42.715 -54.231  13.712  1.00  0.00     0.007 C 
HETATM   21  C   UNL     1     -43.173 -53.154  12.721  1.00  0.00     0.010 C 
HETATM   22  C   UNL     1     -44.682 -53.212  12.504  1.00  0.00     0.011 C 
HETATM   23  C   UNL     1     -42.746 -51.760  13.212  1.00  0.00     0.276 C 
ENDBRANCH  16  17
ENDBRANCH  15  16
ENDBRANCH   4  15
TORSDOF 5
ENDMDL
MODEL 2
REMARK VINA RESULT:      -5.9      2.920      4.437
REMARK  5 active torsions:
REMARK  status: ('A' for Active; 'I' for Inactive)
REMARK    1  A    between atoms: C_2  and  N_3 
REMARK    2  A    between atoms: C_5  and  N_6 
REMARK       I    between atoms: N_6  and  C_7 
REMARK       I    between atoms: C_7  and  N_9 
REMARK    3  A    between atoms: N_9  and  C_10 
REMARK    4  A    between atoms: C_10  and  C_11 
REMARK    5  A    between atoms: C_11  and  N_12 
ROOT
HETATM    1  N   UNL     1     -40.916 -51.378  11.383  1.00  0.00    -0.306 N 
HETATM    2  C   UNL     1     -41.148 -52.062  12.551  1.00  0.00     0.320 C 
HETATM    3  O   UNL     1     -41.025 -51.616  13.688  1.00  0.00    -0.247 OA
HETATM    4  N   UNL     1     -41.534 -53.371  12.330  1.00  0.00    -0.341 N 
HETATM    5  H   UNL     1     -40.902 -51.896  10.516  1.00  0.00     0.171 HD
HETATM    6  H   UNL     1     -42.104 -53.521  11.510  1.00  0.00     0.164 HD
ENDROOT
BRANCH   1   7
HETATM    7  C   UNL     1     -40.559 -50.041  11.338  1.00  0.00     0.070 A 
HETATM    8  C   UNL     1     -41.375 -48.964  11.084  1.00  0.00     0.141 A 
HETATM    9  N   UNL     1     -40.585 -47.858  11.122  1.00  0.00    -0.302 N 
HETATM   10  N   UNL     1     -39.293 -48.132  11.393  1.00  0.00    -0.308 N 
HETATM   11  C   UNL     1     -39.284 -49.464  11.525  1.00  0.00     0.138 A 
ATOM     12  HN  UNL     1     -38.513 -47.480  11.478  1.00  0.00     0.186 HD
BRANCH   9  13
HETATM   13  C   UNL     1     -41.022 -46.501  10.862  1.00  0.00     0.143 C 
HETATM   14  C   UNL     1     -39.859 -45.561  10.596  1.00  0.00     0.028 C 
ENDBRANCH   9  13
ENDBRANCH   1   7
BRANCH   4  15
HETATM   15  C   UNL     1     -41.854 -54.150  13.514  1.00  0.00     0.154 C 
BRANCH  15  16
HETATM   16  C   UNL     1     -43.357 -54.274  13.780  1.00  0.00     0.292 C 
BRANCH  16  17
HETATM   17  N   UNL     1     -43.883 -53.221  14.669  1.00  0.00     0.090 N 
HETATM   18  C   UNL     1     -44.737 -53.725  15.758  1.00  0.00     0.272 C 
HETATM   19  C   UNL     1     -46.083 -54.271  15.280  1.00  0.00     0.031 C 
HETATM   20  C   UNL     1     -46.833 -53.232  14.448  1.00  0.00     0.007 C 
HETATM   21  C   UNL     1     -45.942 -52.674  13.331  1.00  0.00     0.010 C 
HETATM   22  C   UNL     1     -46.646 -51.554  12.572  1.00  0.00     0.011 C 
HETATM   23  C   UNL     1     -44.603 -52.184  13.910  1.00  0.00     0.276 C 
ENDBRANCH  16  17
ENDBRANCH  15  16
ENDBRANCH   4  15
TORSDOF 5
ENDMDL
MODEL 3
REMARK VINA RESULT:      -5.9      1.936      3.196
REMARK  5 active torsions:
REMARK  status: ('A' for Active; 'I' for Inactive)
REMARK    1  A    between atoms: C_2  and  N_3 
REMARK    2  A    between atoms: C_5  and  N_6 
REMARK       I    between atoms: N_6  and  C_7 
REMARK       I    between atoms: C_7  and  N_9 
REMARK    3  A    between atoms: N_9  and  C_10 
REMARK    4  A    between atoms: C_10  and  C_11 
REMARK    5  A    between atoms: C_11  and  N_12 
ROOT
HETATM    1  N   UNL     1     -41.145 -49.300  10.499  1.00  0.00    -0.306 N 
HETATM    2  C   UNL     1     -41.158 -50.080  11.630  1.00  0.00     0.320 C 
HETATM    3  O   UNL     1     -41.429 -49.703  12.766  1.00  0.00    -0.247 OA
HETATM    4  N   UNL     1     -40.801 -51.391  11.372  1.00  0.00    -0.341 N 
HETATM    5  H   UNL     1     -40.756 -49.687   9.651  1.00  0.00     0.171 HD
HETATM    6  H   UNL     1     -41.103 -51.753  10.480  1.00  0.00     0.164 HD
ENDROOT
BRANCH   1   7
HETATM    7  C   UNL     1     -41.505 -47.964  10.489  1.00  0.00     0.070 A 
HETATM    8  C   UNL     1     -40.753 -46.890  10.906  1.00  0.00     0.141 A 
HETATM    9  N   UNL     1     -41.522 -45.783  10.730  1.00  0.00    -0.302 N 
HETATM   10  N   UNL     1     -42.737 -46.051  10.212  1.00  0.00    -0.308 N 
HETATM   11  C   UNL     1     -42.720 -47.383  10.066  1.00  0.00     0.138 A 
ATOM     12  HN  UNL     1     -43.487 -45.398   9.985  1.00  0.00     0.186 HD
BRANCH   9  13
HETATM   13  C   UNL     1     -41.144 -44.429  11.083  1.00  0.00     0.143 C 
HETATM   14  C   UNL     1     -39.770 -44.362  11.725  1.00  0.00     0.028 C 
ENDBRANCH   9  13
ENDBRANCH   1   7
BRANCH   4  15
HETATM   15  C   UNL     1     -40.843 -52.297  12.507  1.00  0.00     0.154 C 
BRANCH  15  16
HETATM   16  C   UNL     1     -42.165 -53.059  12.635  1.00  0.00     0.292 C 
BRANCH  16  17
HETATM   17  N   UNL     1     -42.959 -52.660  13.812  1.00  0.00     0.090 N 
HETATM   18  C   UNL     1     -43.303 -53.775  14.712  1.00  0.00     0.272 C 
HETATM   19  C   UNL     1     -44.312 -54.758  14.115  1.00  0.00     0.031 C 
HETATM   20  C   UNL     1     -45.575 -54.033  13.653  1.00  0.00     0.007 C 
HETATM   21  C   UNL     1     -45.228 -52.848  12.742  1.00  0.00     0.010 C 
HETATM   22  C   UNL     1     -46.477 -52.053  12.374  1.00  0.00     0.011 C 
HETATM   23  C   UNL     1     -44.184 -51.943  13.418  1.00  0.00     0.276 C 
ENDBRANCH  16  17
ENDBRANCH  15  16
ENDBRANCH   4  15
TORSDOF 5
ENDMDL
MODEL 4
REMARK VINA RESULT:      -5.8      2.768      6.711
REMARK  5 active torsions:
REMARK  status: ('A' for Active; 'I' for Inactive)
REMARK    1  A    between atoms: C_2  and  N_3 
REMARK    2  A    between atoms: C_5  and  N_6 
REMARK       I    between atoms: N_6  and  C_7 
REMARK       I    between atoms: C_7  and  N_9 
REMARK    3  A    between atoms: N_9  and  C_10 
REMARK    4  A    between atoms: C_10  and  C_11 
REMARK    5  A    between atoms: C_11  and  N_12 
ROOT
HETATM    1  N   UNL     1     -43.116 -52.758  11.934  1.00  0.00    -0.306 N 
HETATM    2  C   UNL     1     -42.164 -51.893  12.416  1.00  0.00     0.320 C 
HETATM    3  O   UNL     1     -42.165 -51.359  13.522  1.00  0.00    -0.247 OA
HETATM    4  N   UNL     1     -41.161 -51.644  11.497  1.00  0.00    -0.341 N 
HETATM    5  H   UNL     1     -43.088 -53.009  10.956  1.00  0.00     0.171 HD
HETATM    6  H   UNL     1     -40.913 -52.425  10.908  1.00  0.00     0.164 HD
ENDROOT
BRANCH   1   7
HETATM    7  C   UNL     1     -44.199 -53.195  12.678  1.00  0.00     0.070 A 
HETATM    8  C   UNL     1     -45.122 -52.426  13.346  1.00  0.00     0.141 A 
HETATM    9  N   UNL     1     -45.983 -53.287  13.951  1.00  0.00    -0.302 N 
HETATM   10  N   UNL     1     -45.695 -54.583  13.719  1.00  0.00    -0.308 N 
HETATM   11  C   UNL     1     -44.607 -54.521  12.942  1.00  0.00     0.138 A 
ATOM     12  HN  UNL     1     -46.188 -55.411  14.056  1.00  0.00     0.186 HD
BRANCH   9  13
HETATM   13  C   UNL     1     -47.092 -52.909  14.804  1.00  0.00     0.143 C 
HETATM   14  C   UNL     1     -47.017 -51.458  15.241  1.00  0.00     0.028 C 
ENDBRANCH   9  13
ENDBRANCH   1   7
BRANCH   4  15
HETATM   15  C   UNL     1     -40.083 -50.781  11.949  1.00  0.00     0.154 C 
BRANCH  15  16
HETATM   16  C   UNL     1     -40.126 -49.377  11.340  1.00  0.00     0.292 C 
BRANCH  16  17
HETATM   17  N   UNL     1     -40.923 -48.420  12.131  1.00  0.00     0.090 N 
HETATM   18  C   UNL     1     -42.328 -48.309  11.702  1.00  0.00     0.272 C 
HETATM   19  C   UNL     1     -42.504 -47.635  10.341  1.00  0.00     0.031 C 
HETATM   20  C   UNL     1     -41.825 -46.266  10.314  1.00  0.00     0.007 C 
HETATM   21  C   UNL     1     -40.370 -46.364  10.791  1.00  0.00     0.010 C 
HETATM   22  C   UNL     1     -39.725 -44.984  10.877  1.00  0.00     0.011 C 
HETATM   23  C   UNL     1     -40.300 -47.085  12.148  1.00  0.00     0.276 C 
ENDBRANCH  16  17
ENDBRANCH  15  16
ENDBRANCH   4  15
TORSDOF 5
ENDMDL
MODEL 5
REMARK VINA RESULT:      -5.6      1.728      2.388
REMARK  5 active torsions:
REMARK  status: ('A' for Active; 'I' for Inactive)
REMARK    1  A    between atoms: C_2  and  N_3 
REMARK    2  A    between atoms: C_5  and  N_6 
REMARK       I    between atoms: N_6  and  C_7 
REMARK       I    between atoms: C_7  and  N_9 
REMARK    3  A    between atoms: N_9  and  C_10 
REMARK    4  A    between atoms: C_10  and  C_11 
REMARK    5  A    between atoms: C_11  and  N_12 
ROOT
HETATM    1  N   UNL     1     -41.727 -47.306   9.804  1.00  0.00    -0.306 N 
HETATM    2  C   UNL     1     -41.236 -47.580  11.058  1.00  0.00     0.320 C 
HETATM    3  O   UNL     1     -41.830 -47.418  12.119  1.00  0.00    -0.247 OA
HETATM    4  N   UNL     1     -39.939 -48.060  11.025  1.00  0.00    -0.341 N 
HETATM    5  H   UNL     1     -41.090 -47.334   9.021  1.00  0.00     0.171 HD
HETATM    6  H   UNL     1     -39.715 -48.644  10.233  1.00  0.00     0.164 HD
ENDROOT
BRANCH   1   7
HETATM    7  C   UNL     1     -43.014 -46.855   9.569  1.00  0.00     0.070 A 
HETATM    8  C   UNL     1     -44.172 -47.596   9.554  1.00  0.00     0.141 A 
HETATM    9  N   UNL     1     -45.183 -46.735   9.260  1.00  0.00    -0.302 N 
HETATM   10  N   UNL     1     -44.770 -45.464   9.086  1.00  0.00    -0.308 N 
HETATM   11  C   UNL     1     -43.447 -45.543   9.277  1.00  0.00     0.138 A 
ATOM     12  HN  UNL     1     -45.330 -44.641   8.864  1.00  0.00     0.186 HD
BRANCH   9  13
HETATM   13  C   UNL     1     -46.577 -47.096   9.095  1.00  0.00     0.143 C 
HETATM   14  C   UNL     1     -46.764 -48.586   8.870  1.00  0.00     0.028 C 
ENDBRANCH   9  13
ENDBRANCH   1   7
BRANCH   4  15
HETATM   15  C   UNL     1     -39.364 -48.428  12.308  1.00  0.00     0.154 C 
BRANCH  15  16
HETATM   16  C   UNL     1     -39.361 -49.936  12.569  1.00  0.00     0.292 C 
BRANCH  16  17
HETATM   17  N   UNL     1     -40.325 -50.353  13.604  1.00  0.00     0.090 N 
HETATM   18  C   UNL     1     -39.901 -50.043  14.980  1.00  0.00     0.272 C 
HETATM   19  C   UNL     1     -38.718 -50.884  15.463  1.00  0.00     0.031 C 
HETATM   20  C   UNL     1     -39.009 -52.377  15.314  1.00  0.00     0.007 C 
HETATM   21  C   UNL     1     -39.484 -52.706  13.893  1.00  0.00     0.010 C 
HETATM   22  C   UNL     1     -39.885 -54.173  13.773  1.00  0.00     0.011 C 
HETATM   23  C   UNL     1     -40.650 -51.785  13.492  1.00  0.00     0.276 C 
ENDBRANCH  16  17
ENDBRANCH  15  16
ENDBRANCH   4  15
TORSDOF 5
ENDMDL
MODEL 6
REMARK VINA RESULT:      -5.5      1.549      7.734
REMARK  5 active torsions:
REMARK  status: ('A' for Active; 'I' for Inactive)
REMARK    1  A    between atoms: C_2  and  N_3 
REMARK    2  A    between atoms: C_5  and  N_6 
REMARK       I    between atoms: N_6  and  C_7 
REMARK       I    between atoms: C_7  and  N_9 
REMARK    3  A    between atoms: N_9  and  C_10 
REMARK    4  A    between atoms: C_10  and  C_11 
REMARK    5  A    between atoms: C_11  and  N_12 
ROOT
HETATM    1  N   UNL     1     -40.767 -51.378  11.455  1.00  0.00    -0.306 N 
HETATM    2  C   UNL     1     -41.119 -50.068  11.667  1.00  0.00     0.320 C 
HETATM    3  O   UNL     1     -41.501 -49.583  12.729  1.00  0.00    -0.247 OA
HETATM    4  N   UNL     1     -41.024 -49.302  10.520  1.00  0.00    -0.341 N 
HETATM    5  H   UNL     1     -40.619 -51.690  10.506  1.00  0.00     0.171 HD
HETATM    6  H   UNL     1     -40.269 -49.550   9.897  1.00  0.00     0.164 HD
ENDROOT
BRANCH   1   7
HETATM    7  C   UNL     1     -40.739 -52.334  12.456  1.00  0.00     0.070 A 
HETATM    8  C   UNL     1     -39.728 -52.576  13.356  1.00  0.00     0.141 A 
HETATM    9  N   UNL     1     -40.135 -53.618  14.130  1.00  0.00    -0.302 N 
HETATM   10  N   UNL     1     -41.360 -54.079  13.806  1.00  0.00    -0.308 N 
HETATM   11  C   UNL     1     -41.723 -53.292  12.785  1.00  0.00     0.138 A 
ATOM     12  HN  UNL     1     -41.882 -54.843  14.234  1.00  0.00     0.186 HD
BRANCH   9  13
HETATM   13  C   UNL     1     -39.358 -54.240  15.184  1.00  0.00     0.143 C 
HETATM   14  C   UNL     1     -40.184 -55.204  16.016  1.00  0.00     0.028 C 
ENDBRANCH   9  13
ENDBRANCH   1   7
BRANCH   4  15
HETATM   15  C   UNL     1     -41.327 -47.889  10.670  1.00  0.00     0.154 C 
BRANCH  15  16
HETATM   16  C   UNL     1     -42.801 -47.550  10.434  1.00  0.00     0.292 C 
BRANCH  16  17
HETATM   17  N   UNL     1     -43.140 -47.370   9.010  1.00  0.00     0.090 N 
HETATM   18  C   UNL     1     -43.203 -45.962   8.580  1.00  0.00     0.272 C 
HETATM   19  C   UNL     1     -44.390 -45.194   9.164  1.00  0.00     0.031 C 
HETATM   20  C   UNL     1     -45.707 -45.907   8.862  1.00  0.00     0.007 C 
HETATM   21  C   UNL     1     -45.642 -47.383   9.274  1.00  0.00     0.010 C 
HETATM   22  C   UNL     1     -46.911 -48.125   8.868  1.00  0.00     0.011 C 
HETATM   23  C   UNL     1     -44.398 -48.053   8.665  1.00  0.00     0.276 C 
ENDBRANCH  16  17
ENDBRANCH  15  16
ENDBRANCH   4  15
TORSDOF 5
ENDMDL
MODEL 7
REMARK VINA RESULT:      -5.5      2.534      7.682
REMARK  5 active torsions:
REMARK  status: ('A' for Active; 'I' for Inactive)
REMARK    1  A    between atoms: C_2  and  N_3 
REMARK    2  A    between atoms: C_5  and  N_6 
REMARK       I    between atoms: N_6  and  C_7 
REMARK       I    between atoms: C_7  and  N_9 
REMARK    3  A    between atoms: N_9  and  C_10 
REMARK    4  A    between atoms: C_10  and  C_11 
REMARK    5  A    between atoms: C_11  and  N_12 
ROOT
HETATM    1  N   UNL     1     -40.557 -49.997  10.833  1.00  0.00    -0.306 N 
HETATM    2  C   UNL     1     -41.475 -48.991  11.018  1.00  0.00     0.320 C 
HETATM    3  O   UNL     1     -42.137 -48.792  12.033  1.00  0.00    -0.247 OA
HETATM    4  N   UNL     1     -41.616 -48.192   9.898  1.00  0.00    -0.341 N 
HETATM    5  H   UNL     1     -40.192 -50.151   9.905  1.00  0.00     0.171 HD
HETATM    6  H   UNL     1     -40.772 -48.042   9.366  1.00  0.00     0.164 HD
ENDROOT
BRANCH   1   7
HETATM    7  C   UNL     1     -40.208 -50.903  11.819  1.00  0.00     0.070 A 
HETATM    8  C   UNL     1     -40.861 -52.065  12.159  1.00  0.00     0.141 A 
HETATM    9  N   UNL     1     -40.170 -52.613  13.193  1.00  0.00    -0.302 N 
HETATM   10  N   UNL     1     -39.090 -51.893  13.558  1.00  0.00    -0.308 N 
HETATM   11  C   UNL     1     -39.119 -50.852  12.716  1.00  0.00     0.138 A 
ATOM     12  HN  UNL     1     -38.416 -52.093  14.297  1.00  0.00     0.186 HD
BRANCH   9  13
HETATM   13  C   UNL     1     -40.531 -53.826  13.900  1.00  0.00     0.143 C 
HETATM   14  C   UNL     1     -41.957 -54.260  13.611  1.00  0.00     0.028 C 
ENDBRANCH   9  13
ENDBRANCH   1   7
BRANCH   4  15
HETATM   15  C   UNL     1     -42.530 -47.069  10.029  1.00  0.00     0.154 C 
BRANCH  15  16
HETATM   16  C   UNL     1     -41.826 -45.732  10.272  1.00  0.00     0.292 C 
BRANCH  16  17
HETATM   17  N   UNL     1     -42.200 -45.097  11.550  1.00  0.00     0.090 N 
HETATM   18  C   UNL     1     -42.382 -43.637  11.465  1.00  0.00     0.272 C 
HETATM   19  C   UNL     1     -41.081 -42.867  11.235  1.00  0.00     0.031 C 
HETATM   20  C   UNL     1     -40.042 -43.217  12.299  1.00  0.00     0.007 C 
HETATM   21  C   UNL     1     -39.867 -44.736  12.420  1.00  0.00     0.010 C 
HETATM   22  C   UNL     1     -38.918 -45.092  13.559  1.00  0.00     0.011 C 
HETATM   23  C   UNL     1     -41.233 -45.417  12.614  1.00  0.00     0.276 C 
ENDBRANCH  16  17
ENDBRANCH  15  16
ENDBRANCH   4  15
TORSDOF 5
ENDMDL
MODEL 8
REMARK VINA RESULT:      -5.5      2.425      6.897
REMARK  5 active torsions:
REMARK  status: ('A' for Active; 'I' for Inactive)
REMARK    1  A    between atoms: C_2  and  N_3 
REMARK    2  A    between atoms: C_5  and  N_6 
REMARK       I    between atoms: N_6  and  C_7 
REMARK       I    between atoms: C_7  and  N_9 
REMARK    3  A    between atoms: N_9  and  C_10 
REMARK    4  A    between atoms: C_10  and  C_11 
REMARK    5  A    between atoms: C_11  and  N_12 
ROOT
HETATM    1  N   UNL     1     -42.223 -52.479  11.734  1.00  0.00    -0.306 N 
HETATM    2  C   UNL     1     -41.354 -51.508  12.169  1.00  0.00     0.320 C 
HETATM    3  O   UNL     1     -41.103 -51.233  13.339  1.00  0.00    -0.247 OA
HETATM    4  N   UNL     1     -40.770 -50.815  11.125  1.00  0.00    -0.341 N 
HETATM    5  H   UNL     1     -42.463 -52.507  10.754  1.00  0.00     0.171 HD
HETATM    6  H   UNL     1     -40.578 -51.361  10.298  1.00  0.00     0.164 HD
ENDROOT
BRANCH   1   7
HETATM    7  C   UNL     1     -42.900 -53.336  12.585  1.00  0.00     0.070 A 
HETATM    8  C   UNL     1     -44.241 -53.644  12.571  1.00  0.00     0.141 A 
HETATM    9  N   UNL     1     -44.453 -54.506  13.601  1.00  0.00    -0.302 N 
HETATM   10  N   UNL     1     -43.335 -54.798  14.295  1.00  0.00    -0.308 N 
HETATM   11  C   UNL     1     -42.392 -54.082  13.671  1.00  0.00     0.138 A 
ATOM     12  HN  UNL     1     -43.233 -55.415  15.101  1.00  0.00     0.186 HD
BRANCH   9  13
HETATM   13  C   UNL     1     -45.737 -55.056  13.989  1.00  0.00     0.143 C 
HETATM   14  C   UNL     1     -46.528 -54.109  14.873  1.00  0.00     0.028 C 
ENDBRANCH   9  13
ENDBRANCH   1   7
BRANCH   4  15
HETATM   15  C   UNL     1     -39.795 -49.804  11.498  1.00  0.00     0.154 C 
BRANCH  15  16
HETATM   16  C   UNL     1     -40.357 -48.380  11.498  1.00  0.00     0.292 C 
BRANCH  16  17
HETATM   17  N   UNL     1     -41.804 -48.321  11.222  1.00  0.00     0.090 N 
HETATM   18  C   UNL     1     -42.160 -47.502  10.051  1.00  0.00     0.272 C 
HETATM   19  C   UNL     1     -41.937 -46.003  10.258  1.00  0.00     0.031 C 
HETATM   20  C   UNL     1     -42.672 -45.507  11.503  1.00  0.00     0.007 C 
HETATM   21  C   UNL     1     -42.336 -46.374  12.723  1.00  0.00     0.010 C 
HETATM   22  C   UNL     1     -43.155 -45.954  13.939  1.00  0.00     0.011 C 
HETATM   23  C   UNL     1     -42.560 -47.862  12.400  1.00  0.00     0.276 C 
ENDBRANCH  16  17
ENDBRANCH  15  16
ENDBRANCH   4  15
TORSDOF 5
ENDMDL
MODEL 9
REMARK VINA RESULT:      -5.5      3.317      4.816
REMARK  5 active torsions:
REMARK  status: ('A' for Active; 'I' for Inactive)
REMARK    1  A    between atoms: C_2  and  N_3 
REMARK    2  A    between atoms: C_5  and  N_6 
REMARK       I    between atoms: N_6  and  C_7 
REMARK       I    between atoms: C_7  and  N_9 
REMARK    3  A    between atoms: N_9  and  C_10 
REMARK    4  A    between atoms: C_10  and  C_11 
REMARK    5  A    between atoms: C_11  and  N_12 
ROOT
HETATM    1  N   UNL     1     -41.547 -47.451  10.101  1.00  0.00    -0.306 N 
HETATM    2  C   UNL     1     -41.058 -48.453  10.903  1.00  0.00     0.320 C 
HETATM    3  O   UNL     1     -41.649 -49.482  11.217  1.00  0.00    -0.247 OA
HETATM    4  N   UNL     1     -39.785 -48.184  11.369  1.00  0.00    -0.341 N 
HETATM    5  H   UNL     1     -41.030 -46.586  10.041  1.00  0.00     0.171 HD
HETATM    6  H   UNL     1     -39.187 -47.684  10.727  1.00  0.00     0.164 HD
ENDROOT
BRANCH   1   7
HETATM    7  C   UNL     1     -42.783 -47.503   9.479  1.00  0.00     0.070 A 
HETATM    8  C   UNL     1     -44.016 -47.270  10.043  1.00  0.00     0.141 A 
HETATM    9  N   UNL     1     -44.936 -47.458   9.060  1.00  0.00    -0.302 N 
HETATM   10  N   UNL     1     -44.392 -47.795   7.873  1.00  0.00    -0.308 N 
HETATM   11  C   UNL     1     -43.079 -47.820   8.135  1.00  0.00     0.138 A 
ATOM     12  HN  UNL     1     -44.866 -47.984   6.990  1.00  0.00     0.186 HD
BRANCH   9  13
HETATM   13  C   UNL     1     -46.373 -47.363   9.222  1.00  0.00     0.143 C 
HETATM   14  C   UNL     1     -47.074 -48.682   8.948  1.00  0.00     0.028 C 
ENDBRANCH   9  13
ENDBRANCH   1   7
BRANCH   4  15
HETATM   15  C   UNL     1     -39.171 -49.220  12.181  1.00  0.00     0.154 C 
BRANCH  15  16
HETATM   16  C   UNL     1     -38.209 -48.679  13.242  1.00  0.00     0.292 C 
BRANCH  16  17
HETATM   17  N   UNL     1     -38.425 -49.260  14.580  1.00  0.00     0.090 N 
HETATM   18  C   UNL     1     -39.495 -48.607  15.354  1.00  0.00     0.272 C 
HETATM   19  C   UNL     1     -39.145 -47.189  15.809  1.00  0.00     0.031 C 
HETATM   20  C   UNL     1     -37.831 -47.171  16.588  1.00  0.00     0.007 C 
HETATM   21  C   UNL     1     -36.717 -47.879  15.806  1.00  0.00     0.010 C 
HETATM   22  C   UNL     1     -35.436 -47.965  16.630  1.00  0.00     0.011 C 
HETATM   23  C   UNL     1     -37.180 -49.279  15.367  1.00  0.00     0.276 C 
ENDBRANCH  16  17
ENDBRANCH  15  16
ENDBRANCH   4  15
TORSDOF 5
ENDMDL
