MODEL 1
REMARK VINA RESULT:      -6.6      0.000      0.000
REMARK  4 active torsions:
REMARK  status: ('A' for Active; 'I' for Inactive)
REMARK       I    between atoms: C_2  and  N_3 
REMARK    1  A    between atoms: C_2  and  C_13 
REMARK    2  A    between atoms: N_3  and  C_4 
REMARK    3  A    between atoms: C_4  and  C_5 
REMARK    4  A    between atoms: C_5  and  C_6 
ROOT
HETATM    1  O   UNL     1     -40.482 -49.949  12.387  1.00  0.00    -0.273 OA
HETATM    2  C   UNL     1     -41.697 -50.052  12.243  1.00  0.00     0.221 C 
HETATM    3  N   UNL     1     -42.405 -49.280  11.351  1.00  0.00    -0.360 N 
HETATM    4  H   UNL     1     -43.381 -49.486  11.166  1.00  0.00     0.162 HD
ENDROOT
BRANCH   3   5
HETATM    5  C   UNL     1     -41.766 -48.254  10.546  1.00  0.00     0.130 C 
BRANCH   5   6
HETATM    6  C   UNL     1     -42.674 -47.054  10.315  1.00  0.00     0.098 C 
BRANCH   6   7
HETATM    7  C   UNL     1     -43.865 -47.411   9.482  1.00  0.00     0.101 A 
HETATM    8  N   UNL     1     -43.837 -48.098   8.376  1.00  0.00    -0.285 N 
HETATM    9  N   UNL     1     -45.154 -48.175   8.010  1.00  0.00    -0.250 N 
ATOM     10  HN  UNL     1     -43.026 -48.487   7.896  1.00  0.00     0.188 HD
HETATM   11  C   UNL     1     -45.955 -47.524   8.936  1.00  0.00     0.340 A 
HETATM   12  H   UNL     1     -45.471 -48.655   7.178  1.00  0.00     0.192 HD
HETATM   13  O   UNL     1     -47.164 -47.392   8.911  1.00  0.00    -0.245 OA
HETATM   14  N   UNL     1     -45.098 -47.051   9.884  1.00  0.00    -0.296 N 
HETATM   15  H   UNL     1     -45.378 -46.514  10.686  1.00  0.00     0.172 HD
ENDBRANCH   6   7
ENDBRANCH   5   6
ENDBRANCH   3   5
BRANCH   2  16
HETATM   16  C   UNL     1     -42.542 -51.080  12.996  1.00  0.00     0.078 C 
HETATM   17  C   UNL     1     -42.458 -52.422  12.252  1.00  0.00     0.014 C 
HETATM   18  C   UNL     1     -43.009 -53.593  13.059  1.00  0.00     0.001 C 
HETATM   19  C   UNL     1     -44.502 -53.836  12.880  1.00  0.00     0.000 C 
HETATM   20  C   UNL     1     -45.393 -52.599  12.824  1.00  0.00     0.000 C 
HETATM   21  C   UNL     1     -44.988 -51.473  13.771  1.00  0.00     0.001 C 
HETATM   22  C   UNL     1     -43.961 -50.518  13.160  1.00  0.00     0.014 C 
ENDBRANCH   2  16
TORSDOF 4
ENDMDL
MODEL 2
REMARK VINA RESULT:      -6.6      4.145      5.877
REMARK  4 active torsions:
REMARK  status: ('A' for Active; 'I' for Inactive)
REMARK       I    between atoms: C_2  and  N_3 
REMARK    1  A    between atoms: C_2  and  C_13 
REMARK    2  A    between atoms: N_3  and  C_4 
REMARK    3  A    between atoms: C_4  and  C_5 
REMARK    4  A    between atoms: C_5  and  C_6 
ROOT
HETATM    1  O   UNL     1     -43.346 -55.888  15.193  1.00  0.00    -0.273 OA
HETATM    2  C   UNL     1     -43.470 -54.733  14.794  1.00  0.00     0.221 C 
HETATM    3  N   UNL     1     -42.410 -53.859  14.721  1.00  0.00    -0.360 N 
HETATM    4  H   UNL     1     -42.525 -52.961  14.263  1.00  0.00     0.162 HD
ENDROOT
BRANCH   3   5
HETATM    5  C   UNL     1     -41.075 -54.231  15.154  1.00  0.00     0.130 C 
BRANCH   5   6
HETATM    6  C   UNL     1     -40.067 -54.188  14.013  1.00  0.00     0.098 C 
BRANCH   6   7
HETATM    7  C   UNL     1     -40.499 -53.255  12.926  1.00  0.00     0.101 A 
HETATM    8  N   UNL     1     -40.907 -53.610  11.741  1.00  0.00    -0.285 N 
HETATM    9  N   UNL     1     -41.201 -52.420  11.131  1.00  0.00    -0.250 N 
ATOM     10  HN  UNL     1     -40.989 -54.552  11.358  1.00  0.00     0.188 HD
HETATM   11  C   UNL     1     -40.965 -51.360  11.993  1.00  0.00     0.340 A 
HETATM   12  H   UNL     1     -41.551 -52.354  10.184  1.00  0.00     0.192 HD
HETATM   13  O   UNL     1     -41.109 -50.173  11.769  1.00  0.00    -0.245 OA
HETATM   14  N   UNL     1     -40.524 -51.929  13.150  1.00  0.00    -0.296 N 
HETATM   15  H   UNL     1     -40.250 -51.412  13.968  1.00  0.00     0.172 HD
ENDBRANCH   6   7
ENDBRANCH   5   6
ENDBRANCH   3   5
BRANCH   2  16
HETATM   16  C   UNL     1     -44.794 -54.162  14.289  1.00  0.00     0.078 C 
HETATM   17  C   UNL     1     -44.496 -53.157  13.164  1.00  0.00     0.014 C 
HETATM   18  C   UNL     1     -45.738 -52.747  12.380  1.00  0.00     0.001 C 
HETATM   19  C   UNL     1     -46.481 -51.548  12.956  1.00  0.00     0.000 C 
HETATM   20  C   UNL     1     -46.614 -51.494  14.475  1.00  0.00     0.000 C 
HETATM   21  C   UNL     1     -46.859 -52.842  15.146  1.00  0.00     0.001 C 
HETATM   22  C   UNL     1     -45.565 -53.586  15.484  1.00  0.00     0.014 C 
ENDBRANCH   2  16
TORSDOF 4
ENDMDL
MODEL 3
REMARK VINA RESULT:      -6.4      1.073      1.947
REMARK  4 active torsions:
REMARK  status: ('A' for Active; 'I' for Inactive)
REMARK       I    between atoms: C_2  and  N_3 
REMARK    1  A    between atoms: C_2  and  C_13 
REMARK    2  A    between atoms: N_3  and  C_4 
REMARK    3  A    between atoms: C_4  and  C_5 
REMARK    4  A    between atoms: C_5  and  C_6 
ROOT
HETATM    1  O   UNL     1     -40.564 -49.845  12.969  1.00  0.00    -0.273 OA
HETATM    2  C   UNL     1     -41.295 -50.328  12.109  1.00  0.00     0.221 C 
HETATM    3  N   UNL     1     -41.730 -49.609  11.019  1.00  0.00    -0.360 N 
HETATM    4  H   UNL     1     -42.220 -50.079  10.266  1.00  0.00     0.162 HD
ENDROOT
BRANCH   3   5
HETATM    5  C   UNL     1     -41.386 -48.211  10.834  1.00  0.00     0.130 C 
BRANCH   5   6
HETATM    6  C   UNL     1     -42.614 -47.309  10.844  1.00  0.00     0.098 C 
BRANCH   6   7
HETATM    7  C   UNL     1     -43.490 -47.552   9.655  1.00  0.00     0.101 A 
HETATM    8  N   UNL     1     -43.085 -47.635   8.420  1.00  0.00    -0.285 N 
HETATM    9  N   UNL     1     -44.235 -47.880   7.719  1.00  0.00    -0.250 N 
ATOM     10  HN  UNL     1     -42.136 -47.539   8.060  1.00  0.00     0.188 HD
HETATM   11  C   UNL     1     -45.322 -47.950   8.577  1.00  0.00     0.340 A 
HETATM   12  H   UNL     1     -44.257 -48.000   6.715  1.00  0.00     0.192 HD
HETATM   13  O   UNL     1     -46.488 -48.143   8.286  1.00  0.00    -0.245 OA
HETATM   14  N   UNL     1     -44.810 -47.748   9.823  1.00  0.00    -0.296 N 
HETATM   15  H   UNL     1     -45.359 -47.723  10.665  1.00  0.00     0.172 HD
ENDBRANCH   6   7
ENDBRANCH   5   6
ENDBRANCH   3   5
BRANCH   2  16
HETATM   16  C   UNL     1     -41.756 -51.785  12.126  1.00  0.00     0.078 C 
HETATM   17  C   UNL     1     -43.108 -51.863  12.854  1.00  0.00     0.014 C 
HETATM   18  C   UNL     1     -43.811 -53.204  12.676  1.00  0.00     0.001 C 
HETATM   19  C   UNL     1     -43.439 -54.255  13.714  1.00  0.00     0.000 C 
HETATM   20  C   UNL     1     -41.968 -54.331  14.111  1.00  0.00     0.000 C 
HETATM   21  C   UNL     1     -40.982 -54.117  12.966  1.00  0.00     0.001 C 
HETATM   22  C   UNL     1     -40.641 -52.642  12.739  1.00  0.00     0.014 C 
ENDBRANCH   2  16
TORSDOF 4
ENDMDL
MODEL 4
REMARK VINA RESULT:      -6.4      2.078      2.924
REMARK  4 active torsions:
REMARK  status: ('A' for Active; 'I' for Inactive)
REMARK       I    between atoms: C_2  and  N_3 
REMARK    1  A    between atoms: C_2  and  C_13 
REMARK    2  A    between atoms: N_3  and  C_4 
REMARK    3  A    between atoms: C_4  and  C_5 
REMARK    4  A    between atoms: C_5  and  C_6 
ROOT
HETATM    1  O   UNL     1     -39.557 -52.258  12.893  1.00  0.00    -0.273 OA
HETATM    2  C   UNL     1     -40.696 -52.279  12.436  1.00  0.00     0.221 C 
HETATM    3  N   UNL     1     -41.148 -51.342  11.534  1.00  0.00    -0.360 N 
HETATM    4  H   UNL     1     -42.046 -51.469  11.080  1.00  0.00     0.162 HD
ENDROOT
BRANCH   3   5
HETATM    5  C   UNL     1     -40.318 -50.235  11.094  1.00  0.00     0.130 C 
BRANCH   5   6
HETATM    6  C   UNL     1     -40.728 -48.916  11.734  1.00  0.00     0.098 C 
BRANCH   6   7
HETATM    7  C   UNL     1     -41.451 -48.032  10.768  1.00  0.00     0.101 A 
HETATM    8  N   UNL     1     -41.021 -46.886  10.321  1.00  0.00    -0.285 N 
HETATM    9  N   UNL     1     -42.010 -46.482   9.465  1.00  0.00    -0.250 N 
ATOM     10  HN  UNL     1     -40.154 -46.405  10.554  1.00  0.00     0.188 HD
HETATM   11  C   UNL     1     -43.025 -47.425   9.414  1.00  0.00     0.340 A 
HETATM   12  H   UNL     1     -41.974 -45.614   8.947  1.00  0.00     0.192 HD
HETATM   13  O   UNL     1     -44.054 -47.377   8.765  1.00  0.00    -0.245 OA
HETATM   14  N   UNL     1     -42.632 -48.423  10.254  1.00  0.00    -0.296 N 
HETATM   15  H   UNL     1     -43.172 -49.249  10.447  1.00  0.00     0.172 HD
ENDBRANCH   6   7
ENDBRANCH   5   6
ENDBRANCH   3   5
BRANCH   2  16
HETATM   16  C   UNL     1     -41.712 -53.369  12.774  1.00  0.00     0.078 C 
HETATM   17  C   UNL     1     -43.125 -52.813  12.533  1.00  0.00     0.014 C 
HETATM   18  C   UNL     1     -44.205 -53.890  12.545  1.00  0.00     0.001 C 
HETATM   19  C   UNL     1     -44.790 -54.181  13.921  1.00  0.00     0.000 C 
HETATM   20  C   UNL     1     -43.807 -54.222  15.086  1.00  0.00     0.000 C 
HETATM   21  C   UNL     1     -42.458 -54.859  14.765  1.00  0.00     0.001 C 
HETATM   22  C   UNL     1     -41.444 -53.859  14.203  1.00  0.00     0.014 C 
ENDBRANCH   2  16
TORSDOF 4
ENDMDL
MODEL 5
REMARK VINA RESULT:      -6.3      1.634      2.636
REMARK  4 active torsions:
REMARK  status: ('A' for Active; 'I' for Inactive)
REMARK       I    between atoms: C_2  and  N_3 
REMARK    1  A    between atoms: C_2  and  C_13 
REMARK    2  A    between atoms: N_3  and  C_4 
REMARK    3  A    between atoms: C_4  and  C_5 
REMARK    4  A    between atoms: C_5  and  C_6 
ROOT
HETATM    1  O   UNL     1     -41.732 -52.510  13.332  1.00  0.00    -0.273 OA
HETATM    2  C   UNL     1     -42.732 -51.993  12.844  1.00  0.00     0.221 C 
HETATM    3  N   UNL     1     -42.689 -50.802  12.157  1.00  0.00    -0.360 N 
HETATM    4  H   UNL     1     -43.508 -50.476  11.656  1.00  0.00     0.162 HD
ENDROOT
BRANCH   3   5
HETATM    5  C   UNL     1     -41.456 -50.050  11.999  1.00  0.00     0.130 C 
BRANCH   5   6
HETATM    6  C   UNL     1     -41.705 -48.551  11.892  1.00  0.00     0.098 C 
BRANCH   6   7
HETATM    7  C   UNL     1     -42.390 -48.193  10.611  1.00  0.00     0.101 A 
HETATM    8  N   UNL     1     -41.864 -48.277   9.422  1.00  0.00    -0.285 N 
HETATM    9  N   UNL     1     -42.873 -47.863   8.593  1.00  0.00    -0.250 N 
ATOM     10  HN  UNL     1     -40.924 -48.579   9.168  1.00  0.00     0.188 HD
HETATM   11  C   UNL     1     -44.006 -47.545   9.327  1.00  0.00     0.340 A 
HETATM   12  H   UNL     1     -42.779 -47.816   7.587  1.00  0.00     0.192 HD
HETATM   13  O   UNL     1     -45.072 -47.136   8.908  1.00  0.00    -0.245 OA
HETATM   14  N   UNL     1     -43.671 -47.780  10.626  1.00  0.00    -0.296 N 
HETATM   15  H   UNL     1     -44.284 -47.624  11.408  1.00  0.00     0.172 HD
ENDBRANCH   6   7
ENDBRANCH   5   6
ENDBRANCH   3   5
BRANCH   2  16
HETATM   16  C   UNL     1     -44.117 -52.638  12.899  1.00  0.00     0.078 C 
HETATM   17  C   UNL     1     -45.037 -51.751  13.754  1.00  0.00     0.014 C 
HETATM   18  C   UNL     1     -46.510 -52.124  13.638  1.00  0.00     0.001 C 
HETATM   19  C   UNL     1     -46.973 -53.184  14.631  1.00  0.00     0.000 C 
HETATM   20  C   UNL     1     -46.018 -54.345  14.883  1.00  0.00     0.000 C 
HETATM   21  C   UNL     1     -45.269 -54.840  13.649  1.00  0.00     0.001 C 
HETATM   22  C   UNL     1     -43.964 -54.081  13.397  1.00  0.00     0.014 C 
ENDBRANCH   2  16
TORSDOF 4
ENDMDL
MODEL 6
REMARK VINA RESULT:      -6.3      2.685      4.102
REMARK  4 active torsions:
REMARK  status: ('A' for Active; 'I' for Inactive)
REMARK       I    between atoms: C_2  and  N_3 
REMARK    1  A    between atoms: C_2  and  C_13 
REMARK    2  A    between atoms: N_3  and  C_4 
REMARK    3  A    between atoms: C_4  and  C_5 
REMARK    4  A    between atoms: C_5  and  C_6 
ROOT
HETATM    1  O   UNL     1     -42.288 -54.143  13.760  1.00  0.00    -0.273 OA
HETATM    2  C   UNL     1     -43.002 -53.370  13.126  1.00  0.00     0.221 C 
HETATM    3  N   UNL     1     -42.519 -52.589  12.101  1.00  0.00    -0.360 N 
HETATM    4  H   UNL     1     -43.162 -52.066  11.517  1.00  0.00     0.162 HD
ENDROOT
BRANCH   3   5
HETATM    5  C   UNL     1     -41.116 -52.594  11.726  1.00  0.00     0.130 C 
BRANCH   5   6
HETATM    6  C   UNL     1     -40.394 -51.334  12.182  1.00  0.00     0.098 C 
BRANCH   6   7
HETATM    7  C   UNL     1     -40.884 -50.120  11.455  1.00  0.00     0.101 A 
HETATM    8  N   UNL     1     -40.566 -49.787  10.237  1.00  0.00    -0.285 N 
HETATM    9  N   UNL     1     -41.271 -48.632  10.024  1.00  0.00    -0.250 N 
ATOM     10  HN  UNL     1     -39.941 -50.272   9.594  1.00  0.00     0.188 HD
HETATM   11  C   UNL     1     -42.017 -48.304  11.146  1.00  0.00     0.340 A 
HETATM   12  H   UNL     1     -41.239 -48.117   9.155  1.00  0.00     0.192 HD
HETATM   13  O   UNL     1     -42.743 -47.340  11.299  1.00  0.00    -0.245 OA
HETATM   14  N   UNL     1     -41.759 -49.289  12.051  1.00  0.00    -0.296 N 
HETATM   15  H   UNL     1     -42.143 -49.322  12.979  1.00  0.00     0.172 HD
ENDBRANCH   6   7
ENDBRANCH   5   6
ENDBRANCH   3   5
BRANCH   2  16
HETATM   16  C   UNL     1     -44.505 -53.232  13.369  1.00  0.00     0.078 C 
HETATM   17  C   UNL     1     -44.833 -51.743  13.568  1.00  0.00     0.014 C 
HETATM   18  C   UNL     1     -46.328 -51.446  13.519  1.00  0.00     0.001 C 
HETATM   19  C   UNL     1     -47.038 -51.558  14.862  1.00  0.00     0.000 C 
HETATM   20  C   UNL     1     -46.629 -52.724  15.755  1.00  0.00     0.000 C 
HETATM   21  C   UNL     1     -46.345 -54.029  15.018  1.00  0.00     0.001 C 
HETATM   22  C   UNL     1     -44.895 -54.143  14.541  1.00  0.00     0.014 C 
ENDBRANCH   2  16
TORSDOF 4
ENDMDL
MODEL 7
REMARK VINA RESULT:      -6.3      1.955      2.754
REMARK  4 active torsions:
REMARK  status: ('A' for Active; 'I' for Inactive)
REMARK       I    between atoms: C_2  and  N_3 
REMARK    1  A    between atoms: C_2  and  C_13 
REMARK    2  A    between atoms: N_3  and  C_4 
REMARK    3  A    between atoms: C_4  and  C_5 
REMARK    4  A    between atoms: C_5  and  C_6 
ROOT
HETATM    1  O   UNL     1     -43.405 -50.141  14.576  1.00  0.00    -0.273 OA
HETATM    2  C   UNL     1     -43.901 -50.454  13.498  1.00  0.00     0.221 C 
HETATM    3  N   UNL     1     -43.643 -49.762  12.337  1.00  0.00    -0.360 N 
HETATM    4  H   UNL     1     -43.963 -50.129  11.447  1.00  0.00     0.162 HD
ENDROOT
BRANCH   3   5
HETATM    5  C   UNL     1     -42.796 -48.583  12.316  1.00  0.00     0.130 C 
BRANCH   5   6
HETATM    6  C   UNL     1     -41.907 -48.533  11.081  1.00  0.00     0.098 C 
BRANCH   6   7
HETATM    7  C   UNL     1     -42.510 -47.696   9.997  1.00  0.00     0.101 A 
HETATM    8  N   UNL     1     -42.709 -48.079   8.768  1.00  0.00    -0.285 N 
HETATM    9  N   UNL     1     -43.291 -46.987   8.181  1.00  0.00    -0.250 N 
ATOM     10  HN  UNL     1     -42.485 -48.978   8.343  1.00  0.00     0.188 HD
HETATM   11  C   UNL     1     -43.437 -45.959   9.100  1.00  0.00     0.340 A 
HETATM   12  H   UNL     1     -43.574 -46.965   7.210  1.00  0.00     0.192 HD
HETATM   13  O   UNL     1     -43.904 -44.852   8.911  1.00  0.00    -0.245 OA
HETATM   14  N   UNL     1     -42.937 -46.449  10.269  1.00  0.00    -0.296 N 
HETATM   15  H   UNL     1     -42.885 -45.928  11.128  1.00  0.00     0.172 HD
ENDBRANCH   6   7
ENDBRANCH   5   6
ENDBRANCH   3   5
BRANCH   2  16
HETATM   16  C   UNL     1     -44.810 -51.670  13.317  1.00  0.00     0.078 C 
HETATM   17  C   UNL     1     -45.650 -51.847  14.593  1.00  0.00     0.014 C 
HETATM   18  C   UNL     1     -46.800 -52.834  14.423  1.00  0.00     0.001 C 
HETATM   19  C   UNL     1     -46.437 -54.283  14.723  1.00  0.00     0.000 C 
HETATM   20  C   UNL     1     -45.079 -54.763  14.224  1.00  0.00     0.000 C 
HETATM   21  C   UNL     1     -44.668 -54.221  12.858  1.00  0.00     0.001 C 
HETATM   22  C   UNL     1     -43.940 -52.877  12.942  1.00  0.00     0.014 C 
ENDBRANCH   2  16
TORSDOF 4
ENDMDL
MODEL 8
REMARK VINA RESULT:      -6.0      2.960      4.050
REMARK  4 active torsions:
REMARK  status: ('A' for Active; 'I' for Inactive)
REMARK       I    between atoms: C_2  and  N_3 
REMARK    1  A    between atoms: C_2  and  C_13 
REMARK    2  A    between atoms: N_3  and  C_4 
REMARK    3  A    between atoms: C_4  and  C_5 
REMARK    4  A    between atoms: C_5  and  C_6 
ROOT
HETATM    1  O   UNL     1     -39.411 -46.762  12.825  1.00  0.00    -0.273 OA
HETATM    2  C   UNL     1     -39.691 -47.452  11.849  1.00  0.00     0.221 C 
HETATM    3  N   UNL     1     -40.217 -46.921  10.694  1.00  0.00    -0.360 N 
HETATM    4  H   UNL     1     -40.309 -47.501   9.867  1.00  0.00     0.162 HD
ENDROOT
BRANCH   3   5
HETATM    5  C   UNL     1     -40.519 -45.507  10.566  1.00  0.00     0.130 C 
BRANCH   5   6
HETATM    6  C   UNL     1     -42.010 -45.222  10.692  1.00  0.00     0.098 C 
BRANCH   6   7
HETATM    7  C   UNL     1     -42.835 -46.298  10.059  1.00  0.00     0.101 A 
HETATM    8  N   UNL     1     -43.721 -47.031  10.670  1.00  0.00    -0.285 N 
HETATM    9  N   UNL     1     -44.210 -47.840   9.679  1.00  0.00    -0.250 N 
ATOM     10  HN  UNL     1     -43.988 -47.009  11.654  1.00  0.00     0.188 HD
HETATM   11  C   UNL     1     -43.595 -47.553   8.470  1.00  0.00     0.340 A 
HETATM   12  H   UNL     1     -44.928 -48.535   9.835  1.00  0.00     0.192 HD
HETATM   13  O   UNL     1     -43.784 -48.089   7.394  1.00  0.00    -0.245 OA
HETATM   14  N   UNL     1     -42.721 -46.544   8.741  1.00  0.00    -0.296 N 
HETATM   15  H   UNL     1     -42.108 -46.126   8.062  1.00  0.00     0.172 HD
ENDBRANCH   6   7
ENDBRANCH   5   6
ENDBRANCH   3   5
BRANCH   2  16
HETATM   16  C   UNL     1     -39.437 -48.958  11.791  1.00  0.00     0.078 C 
HETATM   17  C   UNL     1     -40.584 -49.676  12.519  1.00  0.00     0.014 C 
HETATM   18  C   UNL     1     -40.604 -51.181  12.273  1.00  0.00     0.001 C 
HETATM   19  C   UNL     1     -39.766 -51.993  13.253  1.00  0.00     0.000 C 
HETATM   20  C   UNL     1     -38.412 -51.407  13.640  1.00  0.00     0.000 C 
HETATM   21  C   UNL     1     -37.663 -50.715  12.504  1.00  0.00     0.001 C 
HETATM   22  C   UNL     1     -38.037 -49.239  12.354  1.00  0.00     0.014 C 
ENDBRANCH   2  16
TORSDOF 4
ENDMDL
MODEL 9
REMARK VINA RESULT:      -5.9      3.383      5.187
REMARK  4 active torsions:
REMARK  status: ('A' for Active; 'I' for Inactive)
REMARK       I    between atoms: C_2  and  N_3 
REMARK    1  A    between atoms: C_2  and  C_13 
REMARK    2  A    between atoms: N_3  and  C_4 
REMARK    3  A    between atoms: C_4  and  C_5 
REMARK    4  A    between atoms: C_5  and  C_6 
ROOT
HETATM    1  O   UNL     1     -41.595 -52.051  12.250  1.00  0.00    -0.273 OA
HETATM    2  C   UNL     1     -42.484 -51.352  12.728  1.00  0.00     0.221 C 
HETATM    3  N   UNL     1     -42.610 -50.014  12.435  1.00  0.00    -0.360 N 
HETATM    4  H   UNL     1     -43.432 -49.504  12.741  1.00  0.00     0.162 HD
ENDROOT
BRANCH   3   5
HETATM    5  C   UNL     1     -41.669 -49.324  11.571  1.00  0.00     0.130 C 
BRANCH   5   6
HETATM    6  C   UNL     1     -40.467 -48.789  12.338  1.00  0.00     0.098 C 
BRANCH   6   7
HETATM    7  C   UNL     1     -39.199 -49.466  11.923  1.00  0.00     0.101 A 
HETATM    8  N   UNL     1     -38.440 -49.108  10.927  1.00  0.00    -0.285 N 
HETATM    9  N   UNL     1     -37.409 -50.008  10.967  1.00  0.00    -0.250 N 
ATOM     10  HN  UNL     1     -38.580 -48.339  10.272  1.00  0.00     0.188 HD
HETATM   11  C   UNL     1     -37.578 -50.896  12.018  1.00  0.00     0.340 A 
HETATM   12  H   UNL     1     -36.638 -49.997  10.312  1.00  0.00     0.192 HD
HETATM   13  O   UNL     1     -36.857 -51.824  12.332  1.00  0.00    -0.245 OA
HETATM   14  N   UNL     1     -38.736 -50.514  12.628  1.00  0.00    -0.296 N 
HETATM   15  H   UNL     1     -39.140 -50.981  13.422  1.00  0.00     0.172 HD
ENDBRANCH   6   7
ENDBRANCH   5   6
ENDBRANCH   3   5
BRANCH   2  16
HETATM   16  C   UNL     1     -43.573 -51.900  13.650  1.00  0.00     0.078 C 
HETATM   17  C   UNL     1     -44.543 -52.749  12.813  1.00  0.00     0.014 C 
HETATM   18  C   UNL     1     -45.493 -53.589  13.661  1.00  0.00     0.001 C 
HETATM   19  C   UNL     1     -46.787 -52.883  14.046  1.00  0.00     0.000 C 
HETATM   20  C   UNL     1     -46.670 -51.416  14.447  1.00  0.00     0.000 C 
HETATM   21  C   UNL     1     -45.429 -51.070  15.264  1.00  0.00     0.001 C 
HETATM   22  C   UNL     1     -44.218 -50.724  14.395  1.00  0.00     0.014 C 
ENDBRANCH   2  16
TORSDOF 4
ENDMDL
