MODEL 1
REMARK VINA RESULT:      -6.5      0.000      0.000
REMARK  4 active torsions:
REMARK  status: ('A' for Active; 'I' for Inactive)
REMARK    1  A    between atoms: C_2  and  O_3 
REMARK    2  A    between atoms: O_3  and  C_4 
REMARK    3  A    between atoms: C_10  and  N_11 
REMARK       I    between atoms: N_11  and  C_12 
REMARK       I    between atoms: C_12  and  N_14 
REMARK    4  A    between atoms: N_14  and  C_15 
ROOT
HETATM    1  N   UNL     1     -42.142 -49.096  11.114  1.00  0.00    -0.305 N 
HETATM    2  C   UNL     1     -42.697 -49.460  12.324  1.00  0.00     0.321 C 
HETATM    3  O   UNL     1     -42.975 -48.676  13.223  1.00  0.00    -0.247 OA
HETATM    4  N   UNL     1     -42.963 -50.802  12.390  1.00  0.00    -0.336 N 
HETATM    5  H   UNL     1     -42.568 -49.529  10.303  1.00  0.00     0.171 HD
HETATM    6  H   UNL     1     -42.288 -51.401  11.933  1.00  0.00     0.164 HD
ENDROOT
BRANCH   1   7
HETATM    7  C   UNL     1     -41.587 -47.809  10.908  1.00  0.00     0.087 A 
HETATM    8  C   UNL     1     -42.262 -46.797  10.219  1.00  0.00     0.169 A 
HETATM    9  N   UNL     1     -41.709 -45.590   9.933  1.00  0.00    -0.345 N 
HETATM   10  C   UNL     1     -40.466 -45.353  10.396  1.00  0.00     0.090 A 
ATOM     11  HN  UNL     1     -42.214 -44.891   9.389  1.00  0.00     0.167 HD
HETATM   12  C   UNL     1     -39.736 -46.264  11.130  1.00  0.00     0.019 A 
HETATM   13  C   UNL     1     -40.306 -47.515  11.379  1.00  0.00     0.035 A 
BRANCH   8  14
HETATM   14  O   UNL     1     -43.594 -46.983   9.870  1.00  0.00    -0.334 OA
BRANCH  14  15
HETATM   15  C   UNL     1     -43.767 -46.691   8.468  1.00  0.00     0.173 C 
HETATM   16  C   UNL     1     -43.468 -47.909   7.615  1.00  0.00     0.034 C 
ENDBRANCH  14  15
ENDBRANCH   8  14
ENDBRANCH   1   7
BRANCH   4  17
HETATM   17  C   UNL     1     -43.786 -51.400  13.447  1.00  0.00     0.121 C 
HETATM   18  C   UNL     1     -45.303 -51.423  13.206  1.00  0.00     0.057 C 
HETATM   19  C   UNL     1     -45.735 -52.880  13.432  1.00  0.00     0.275 C 
HETATM   20  N   UNL     1     -44.671 -53.426  14.271  1.00  0.00     0.095 N 
HETATM   21  C   UNL     1     -44.598 -54.888  14.289  1.00  0.00     0.273 C 
HETATM   22  C   UNL     1     -43.439 -52.875  13.685  1.00  0.00     0.245 C 
HETATM   23  C   UNL     1     -43.408 -55.337  15.152  1.00  0.00     0.030 C 
HETATM   24  C   UNL     1     -42.092 -54.645  14.769  1.00  0.00     0.004 C 
HETATM   25  C   UNL     1     -42.276 -53.132  14.632  1.00  0.00     0.038 C 
ENDBRANCH   4  17
TORSDOF 4
ENDMDL
MODEL 2
REMARK VINA RESULT:      -6.4      2.099      3.347
REMARK  4 active torsions:
REMARK  status: ('A' for Active; 'I' for Inactive)
REMARK    1  A    between atoms: C_2  and  O_3 
REMARK    2  A    between atoms: O_3  and  C_4 
REMARK    3  A    between atoms: C_10  and  N_11 
REMARK       I    between atoms: N_11  and  C_12 
REMARK       I    between atoms: C_12  and  N_14 
REMARK    4  A    between atoms: N_14  and  C_15 
ROOT
HETATM    1  N   UNL     1     -41.627 -51.583  11.596  1.00  0.00    -0.305 N 
HETATM    2  C   UNL     1     -42.258 -52.154  12.683  1.00  0.00     0.321 C 
HETATM    3  O   UNL     1     -42.211 -51.713  13.824  1.00  0.00    -0.247 OA
HETATM    4  N   UNL     1     -43.003 -53.249  12.333  1.00  0.00    -0.336 N 
HETATM    5  H   UNL     1     -42.197 -51.513  10.761  1.00  0.00     0.171 HD
HETATM    6  H   UNL     1     -42.608 -53.828  11.605  1.00  0.00     0.164 HD
ENDROOT
BRANCH   1   7
HETATM    7  C   UNL     1     -40.637 -50.582  11.755  1.00  0.00     0.087 A 
HETATM    8  C   UNL     1     -40.853 -49.244  11.409  1.00  0.00     0.169 A 
HETATM    9  N   UNL     1     -39.886 -48.292  11.468  1.00  0.00    -0.345 N 
HETATM   10  C   UNL     1     -38.680 -48.662  11.941  1.00  0.00     0.090 A 
ATOM     11  HN  UNL     1     -40.066 -47.335  11.166  1.00  0.00     0.167 HD
HETATM   12  C   UNL     1     -38.381 -49.943  12.355  1.00  0.00     0.019 A 
HETATM   13  C   UNL     1     -39.376 -50.917  12.250  1.00  0.00     0.035 A 
BRANCH   8  14
HETATM   14  O   UNL     1     -42.133 -48.829  11.064  1.00  0.00    -0.334 OA
BRANCH  14  15
HETATM   15  C   UNL     1     -42.048 -47.639  10.253  1.00  0.00     0.173 C 
HETATM   16  C   UNL     1     -43.163 -47.596   9.227  1.00  0.00     0.034 C 
ENDBRANCH  14  15
ENDBRANCH   8  14
ENDBRANCH   1   7
BRANCH   4  17
HETATM   17  C   UNL     1     -43.973 -53.876  13.238  1.00  0.00     0.121 C 
HETATM   18  C   UNL     1     -43.397 -54.728  14.379  1.00  0.00     0.057 C 
HETATM   19  C   UNL     1     -44.055 -54.198  15.662  1.00  0.00     0.275 C 
HETATM   20  N   UNL     1     -45.272 -53.549  15.179  1.00  0.00     0.095 N 
HETATM   21  C   UNL     1     -45.871 -52.599  16.118  1.00  0.00     0.273 C 
HETATM   22  C   UNL     1     -44.839 -52.841  13.965  1.00  0.00     0.245 C 
HETATM   23  C   UNL     1     -47.103 -51.942  15.475  1.00  0.00     0.030 C 
HETATM   24  C   UNL     1     -46.816 -51.358  14.085  1.00  0.00     0.004 C 
HETATM   25  C   UNL     1     -46.065 -52.358  13.203  1.00  0.00     0.038 C 
ENDBRANCH   4  17
TORSDOF 4
ENDMDL
MODEL 3
REMARK VINA RESULT:      -6.3      1.335      2.357
REMARK  4 active torsions:
REMARK  status: ('A' for Active; 'I' for Inactive)
REMARK    1  A    between atoms: C_2  and  O_3 
REMARK    2  A    between atoms: O_3  and  C_4 
REMARK    3  A    between atoms: C_10  and  N_11 
REMARK       I    between atoms: N_11  and  C_12 
REMARK       I    between atoms: C_12  and  N_14 
REMARK    4  A    between atoms: N_14  and  C_15 
ROOT
HETATM    1  N   UNL     1     -41.910 -49.326  10.978  1.00  0.00    -0.305 N 
HETATM    2  C   UNL     1     -42.211 -49.883  12.205  1.00  0.00     0.321 C 
HETATM    3  O   UNL     1     -42.425 -49.241  13.225  1.00  0.00    -0.247 OA
HETATM    4  N   UNL     1     -42.306 -51.248  12.145  1.00  0.00    -0.336 N 
HETATM    5  H   UNL     1     -42.413 -49.726  10.194  1.00  0.00     0.171 HD
HETATM    6  H   UNL     1     -41.652 -51.702  11.520  1.00  0.00     0.164 HD
ENDROOT
BRANCH   1   7
HETATM    7  C   UNL     1     -41.550 -47.962  10.851  1.00  0.00     0.087 A 
HETATM    8  C   UNL     1     -42.397 -47.007  10.281  1.00  0.00     0.169 A 
HETATM    9  N   UNL     1     -42.032 -45.716  10.068  1.00  0.00    -0.345 N 
HETATM   10  C   UNL     1     -40.808 -45.342  10.486  1.00  0.00     0.090 A 
ATOM     11  HN  UNL     1     -42.660 -45.056   9.609  1.00  0.00     0.167 HD
HETATM   12  C   UNL     1     -39.917 -46.193  11.105  1.00  0.00     0.019 A 
HETATM   13  C   UNL     1     -40.295 -47.526  11.279  1.00  0.00     0.035 A 
BRANCH   8  14
HETATM   14  O   UNL     1     -43.710 -47.352   9.986  1.00  0.00    -0.334 OA
BRANCH  14  15
HETATM   15  C   UNL     1     -44.022 -46.941   8.639  1.00  0.00     0.173 C 
HETATM   16  C   UNL     1     -43.497 -47.942   7.627  1.00  0.00     0.034 C 
ENDBRANCH  14  15
ENDBRANCH   8  14
ENDBRANCH   1   7
BRANCH   4  17
HETATM   17  C   UNL     1     -42.867 -52.057  13.232  1.00  0.00     0.121 C 
HETATM   18  C   UNL     1     -42.054 -52.119  14.534  1.00  0.00     0.057 C 
HETATM   19  C   UNL     1     -43.037 -51.745  15.653  1.00  0.00     0.275 C 
HETATM   20  N   UNL     1     -44.345 -52.036  15.071  1.00  0.00     0.095 N 
HETATM   21  C   UNL     1     -45.471 -51.384  15.742  1.00  0.00     0.273 C 
HETATM   22  C   UNL     1     -44.237 -51.541  13.689  1.00  0.00     0.245 C 
HETATM   23  C   UNL     1     -46.778 -51.716  15.004  1.00  0.00     0.030 C 
HETATM   24  C   UNL     1     -46.702 -51.447  13.495  1.00  0.00     0.004 C 
HETATM   25  C   UNL     1     -45.429 -52.039  12.885  1.00  0.00     0.038 C 
ENDBRANCH   4  17
TORSDOF 4
ENDMDL
MODEL 4
REMARK VINA RESULT:      -6.3      2.599      4.385
REMARK  4 active torsions:
REMARK  status: ('A' for Active; 'I' for Inactive)
REMARK    1  A    between atoms: C_2  and  O_3 
REMARK    2  A    between atoms: O_3  and  C_4 
REMARK    3  A    between atoms: C_10  and  N_11 
REMARK       I    between atoms: N_11  and  C_12 
REMARK       I    between atoms: C_12  and  N_14 
REMARK    4  A    between atoms: N_14  and  C_15 
ROOT
HETATM    1  N   UNL     1     -41.405 -51.323  11.366  1.00  0.00    -0.305 N 
HETATM    2  C   UNL     1     -42.093 -51.870  12.431  1.00  0.00     0.321 C 
HETATM    3  O   UNL     1     -42.302 -51.294  13.491  1.00  0.00    -0.247 OA
HETATM    4  N   UNL     1     -42.574 -53.121  12.149  1.00  0.00    -0.336 N 
HETATM    5  H   UNL     1     -41.839 -51.464  10.462  1.00  0.00     0.171 HD
HETATM    6  H   UNL     1     -41.975 -53.697  11.573  1.00  0.00     0.164 HD
ENDROOT
BRANCH   1   7
HETATM    7  C   UNL     1     -40.639 -50.139  11.507  1.00  0.00     0.087 A 
HETATM    8  C   UNL     1     -39.348 -50.134  12.044  1.00  0.00     0.169 A 
HETATM    9  N   UNL     1     -38.638 -48.998  12.270  1.00  0.00    -0.345 N 
HETATM   10  C   UNL     1     -39.200 -47.832  11.899  1.00  0.00     0.090 A 
ATOM     11  HN  UNL     1     -37.716 -49.028  12.705  1.00  0.00     0.167 HD
HETATM   12  C   UNL     1     -40.445 -47.734  11.314  1.00  0.00     0.019 A 
HETATM   13  C   UNL     1     -41.177 -48.908  11.126  1.00  0.00     0.035 A 
BRANCH   8  14
HETATM   14  O   UNL     1     -38.709 -51.342  12.290  1.00  0.00    -0.334 OA
BRANCH  14  15
HETATM   15  C   UNL     1     -38.541 -51.514  13.712  1.00  0.00     0.173 C 
HETATM   16  C   UNL     1     -39.047 -52.871  14.162  1.00  0.00     0.034 C 
ENDBRANCH  14  15
ENDBRANCH   8  14
ENDBRANCH   1   7
BRANCH   4  17
HETATM   17  C   UNL     1     -43.553 -53.809  12.999  1.00  0.00     0.121 C 
HETATM   18  C   UNL     1     -42.993 -54.590  14.197  1.00  0.00     0.057 C 
HETATM   19  C   UNL     1     -43.782 -54.093  15.419  1.00  0.00     0.275 C 
HETATM   20  N   UNL     1     -45.009 -53.554  14.837  1.00  0.00     0.095 N 
HETATM   21  C   UNL     1     -45.748 -52.640  15.709  1.00  0.00     0.273 C 
HETATM   22  C   UNL     1     -44.549 -52.834  13.639  1.00  0.00     0.245 C 
HETATM   23  C   UNL     1     -46.979 -52.096  14.967  1.00  0.00     0.030 C 
HETATM   24  C   UNL     1     -46.641 -51.516  13.587  1.00  0.00     0.004 C 
HETATM   25  C   UNL     1     -45.752 -52.467  12.783  1.00  0.00     0.038 C 
ENDBRANCH   4  17
TORSDOF 4
ENDMDL
MODEL 5
REMARK VINA RESULT:      -6.3      1.677      2.426
REMARK  4 active torsions:
REMARK  status: ('A' for Active; 'I' for Inactive)
REMARK    1  A    between atoms: C_2  and  O_3 
REMARK    2  A    between atoms: O_3  and  C_4 
REMARK    3  A    between atoms: C_10  and  N_11 
REMARK       I    between atoms: N_11  and  C_12 
REMARK       I    between atoms: C_12  and  N_14 
REMARK    4  A    between atoms: N_14  and  C_15 
ROOT
HETATM    1  N   UNL     1     -43.284 -48.692  11.571  1.00  0.00    -0.305 N 
HETATM    2  C   UNL     1     -43.346 -49.440  12.729  1.00  0.00     0.321 C 
HETATM    3  O   UNL     1     -42.713 -49.196  13.748  1.00  0.00    -0.247 OA
HETATM    4  N   UNL     1     -44.250 -50.465  12.636  1.00  0.00    -0.336 N 
HETATM    5  H   UNL     1     -44.181 -48.486  11.148  1.00  0.00     0.171 HD
HETATM    6  H   UNL     1     -44.308 -50.912  11.731  1.00  0.00     0.164 HD
ENDROOT
BRANCH   1   7
HETATM    7  C   UNL     1     -42.267 -47.726  11.365  1.00  0.00     0.087 A 
HETATM    8  C   UNL     1     -40.946 -48.072  11.064  1.00  0.00     0.169 A 
HETATM    9  N   UNL     1     -39.943 -47.163  10.955  1.00  0.00    -0.345 N 
HETATM   10  C   UNL     1     -40.267 -45.863  11.091  1.00  0.00     0.090 A 
ATOM     11  HN  UNL     1     -38.981 -47.454  10.778  1.00  0.00     0.167 HD
HETATM   12  C   UNL     1     -41.547 -45.415  11.338  1.00  0.00     0.019 A 
HETATM   13  C   UNL     1     -42.559 -46.366  11.487  1.00  0.00     0.035 A 
BRANCH   8  14
HETATM   14  O   UNL     1     -40.638 -49.395  10.777  1.00  0.00    -0.334 OA
BRANCH  14  15
HETATM   15  C   UNL     1     -39.704 -49.893  11.756  1.00  0.00     0.173 C 
HETATM   16  C   UNL     1     -40.145 -51.240  12.297  1.00  0.00     0.034 C 
ENDBRANCH  14  15
ENDBRANCH   8  14
ENDBRANCH   1   7
BRANCH   4  17
HETATM   17  C   UNL     1     -44.701 -51.239  13.797  1.00  0.00     0.121 C 
HETATM   18  C   UNL     1     -46.217 -51.438  13.945  1.00  0.00     0.057 C 
HETATM   19  C   UNL     1     -46.420 -52.950  14.121  1.00  0.00     0.275 C 
HETATM   20  N   UNL     1     -45.122 -53.416  14.603  1.00  0.00     0.095 N 
HETATM   21  C   UNL     1     -44.894 -54.854  14.452  1.00  0.00     0.273 C 
HETATM   22  C   UNL     1     -44.151 -52.671  13.787  1.00  0.00     0.245 C 
HETATM   23  C   UNL     1     -43.479 -55.209  14.936  1.00  0.00     0.030 C 
HETATM   24  C   UNL     1     -42.390 -54.328  14.308  1.00  0.00     0.004 C 
HETATM   25  C   UNL     1     -42.760 -52.845  14.379  1.00  0.00     0.038 C 
ENDBRANCH   4  17
TORSDOF 4
ENDMDL
MODEL 6
REMARK VINA RESULT:      -6.3      1.639      7.548
REMARK  4 active torsions:
REMARK  status: ('A' for Active; 'I' for Inactive)
REMARK    1  A    between atoms: C_2  and  O_3 
REMARK    2  A    between atoms: O_3  and  C_4 
REMARK    3  A    between atoms: C_10  and  N_11 
REMARK       I    between atoms: N_11  and  C_12 
REMARK       I    between atoms: C_12  and  N_14 
REMARK    4  A    between atoms: N_14  and  C_15 
ROOT
HETATM    1  N   UNL     1     -42.097 -52.044  12.360  1.00  0.00    -0.305 N 
HETATM    2  C   UNL     1     -42.458 -50.740  12.630  1.00  0.00     0.321 C 
HETATM    3  O   UNL     1     -42.908 -50.352  13.700  1.00  0.00    -0.247 OA
HETATM    4  N   UNL     1     -42.200 -49.902  11.577  1.00  0.00    -0.336 N 
HETATM    5  H   UNL     1     -41.209 -52.150  11.885  1.00  0.00     0.171 HD
HETATM    6  H   UNL     1     -42.352 -50.298  10.660  1.00  0.00     0.164 HD
ENDROOT
BRANCH   1   7
HETATM    7  C   UNL     1     -42.473 -53.110  13.214  1.00  0.00     0.087 A 
HETATM    8  C   UNL     1     -43.754 -53.672  13.203  1.00  0.00     0.169 A 
HETATM    9  N   UNL     1     -44.157 -54.630  14.077  1.00  0.00    -0.345 N 
HETATM   10  C   UNL     1     -43.245 -55.091  14.955  1.00  0.00     0.090 A 
ATOM     11  HN  UNL     1     -45.113 -54.986  14.070  1.00  0.00     0.167 HD
HETATM   12  C   UNL     1     -41.943 -54.641  15.013  1.00  0.00     0.019 A 
HETATM   13  C   UNL     1     -41.558 -53.627  14.133  1.00  0.00     0.035 A 
BRANCH   8  14
HETATM   14  O   UNL     1     -44.648 -53.305  12.206  1.00  0.00    -0.334 OA
BRANCH  14  15
HETATM   15  C   UNL     1     -45.929 -53.004  12.798  1.00  0.00     0.173 C 
HETATM   16  C   UNL     1     -46.058 -51.522  13.096  1.00  0.00     0.034 C 
ENDBRANCH  14  15
ENDBRANCH   8  14
ENDBRANCH   1   7
BRANCH   4  17
HETATM   17  C   UNL     1     -42.242 -48.440  11.693  1.00  0.00     0.121 C 
HETATM   18  C   UNL     1     -40.890 -47.723  11.836  1.00  0.00     0.057 C 
HETATM   19  C   UNL     1     -40.884 -46.634  10.753  1.00  0.00     0.275 C 
HETATM   20  N   UNL     1     -42.302 -46.422  10.473  1.00  0.00     0.095 N 
HETATM   21  C   UNL     1     -42.580 -45.758   9.198  1.00  0.00     0.273 C 
HETATM   22  C   UNL     1     -42.869 -47.780  10.459  1.00  0.00     0.245 C 
HETATM   23  C   UNL     1     -44.099 -45.647   8.991  1.00  0.00     0.030 C 
HETATM   24  C   UNL     1     -44.830 -46.984   9.179  1.00  0.00     0.004 C 
HETATM   25  C   UNL     1     -44.388 -47.688  10.463  1.00  0.00     0.038 C 
ENDBRANCH   4  17
TORSDOF 4
ENDMDL
MODEL 7
REMARK VINA RESULT:      -6.2      1.714      2.522
REMARK  4 active torsions:
REMARK  status: ('A' for Active; 'I' for Inactive)
REMARK    1  A    between atoms: C_2  and  O_3 
REMARK    2  A    between atoms: O_3  and  C_4 
REMARK    3  A    between atoms: C_10  and  N_11 
REMARK       I    between atoms: N_11  and  C_12 
REMARK       I    between atoms: C_12  and  N_14 
REMARK    4  A    between atoms: N_14  and  C_15 
ROOT
HETATM    1  N   UNL     1     -41.427 -48.906  10.510  1.00  0.00    -0.305 N 
HETATM    2  C   UNL     1     -41.273 -49.734  11.604  1.00  0.00     0.321 C 
HETATM    3  O   UNL     1     -41.507 -49.407  12.760  1.00  0.00    -0.247 OA
HETATM    4  N   UNL     1     -40.883 -50.997  11.247  1.00  0.00    -0.336 N 
HETATM    5  H   UNL     1     -41.890 -49.332   9.716  1.00  0.00     0.171 HD
HETATM    6  H   UNL     1     -40.240 -51.049  10.468  1.00  0.00     0.164 HD
ENDROOT
BRANCH   1   7
HETATM    7  C   UNL     1     -41.609 -47.509  10.656  1.00  0.00     0.087 A 
HETATM    8  C   UNL     1     -42.850 -46.886  10.487  1.00  0.00     0.169 A 
HETATM    9  N   UNL     1     -43.023 -45.540  10.533  1.00  0.00    -0.345 N 
HETATM   10  C   UNL     1     -41.943 -44.786  10.814  1.00  0.00     0.090 A 
ATOM     11  HN  UNL     1     -43.935 -45.117  10.361  1.00  0.00     0.167 HD
HETATM   12  C   UNL     1     -40.687 -45.305  11.047  1.00  0.00     0.019 A 
HETATM   13  C   UNL     1     -40.520 -46.688  10.956  1.00  0.00     0.035 A 
BRANCH   8  14
HETATM   14  O   UNL     1     -43.989 -47.669  10.345  1.00  0.00    -0.334 OA
BRANCH  14  15
HETATM   15  C   UNL     1     -44.625 -47.365   9.087  1.00  0.00     0.173 C 
HETATM   16  C   UNL     1     -46.135 -47.408   9.214  1.00  0.00     0.034 C 
ENDBRANCH  14  15
ENDBRANCH   8  14
ENDBRANCH   1   7
BRANCH   4  17
HETATM   17  C   UNL     1     -40.904 -52.131  12.177  1.00  0.00     0.121 C 
HETATM   18  C   UNL     1     -39.889 -52.093  13.330  1.00  0.00     0.057 C 
HETATM   19  C   UNL     1     -40.709 -52.322  14.609  1.00  0.00     0.275 C 
HETATM   20  N   UNL     1     -41.914 -52.992  14.127  1.00  0.00     0.095 N 
HETATM   21  C   UNL     1     -43.048 -52.948  15.052  1.00  0.00     0.273 C 
HETATM   22  C   UNL     1     -42.254 -52.268  12.892  1.00  0.00     0.245 C 
HETATM   23  C   UNL     1     -44.268 -53.629  14.410  1.00  0.00     0.030 C 
HETATM   24  C   UNL     1     -44.581 -53.100  13.004  1.00  0.00     0.004 C 
HETATM   25  C   UNL     1     -43.322 -53.044  12.135  1.00  0.00     0.038 C 
ENDBRANCH   4  17
TORSDOF 4
ENDMDL
MODEL 8
REMARK VINA RESULT:      -6.2      2.207      7.476
REMARK  4 active torsions:
REMARK  status: ('A' for Active; 'I' for Inactive)
REMARK    1  A    between atoms: C_2  and  O_3 
REMARK    2  A    between atoms: O_3  and  C_4 
REMARK    3  A    between atoms: C_10  and  N_11 
REMARK       I    between atoms: N_11  and  C_12 
REMARK       I    between atoms: C_12  and  N_14 
REMARK    4  A    between atoms: N_14  and  C_15 
ROOT
HETATM    1  N   UNL     1     -43.556 -52.267  12.305  1.00  0.00    -0.305 N 
HETATM    2  C   UNL     1     -43.018 -51.168  12.944  1.00  0.00     0.321 C 
HETATM    3  O   UNL     1     -43.082 -50.967  14.150  1.00  0.00    -0.247 OA
HETATM    4  N   UNL     1     -42.344 -50.345  12.081  1.00  0.00    -0.336 N 
HETATM    5  H   UNL     1     -42.947 -52.703  11.623  1.00  0.00     0.171 HD
HETATM    6  H   UNL     1     -42.750 -50.256  11.160  1.00  0.00     0.164 HD
ENDROOT
BRANCH   1   7
HETATM    7  C   UNL     1     -44.473 -53.129  12.956  1.00  0.00     0.087 A 
HETATM    8  C   UNL     1     -45.814 -52.790  13.161  1.00  0.00     0.169 A 
HETATM    9  N   UNL     1     -46.681 -53.564  13.863  1.00  0.00    -0.345 N 
HETATM   10  C   UNL     1     -46.223 -54.742  14.329  1.00  0.00     0.090 A 
ATOM     11  HN  UNL     1     -47.642 -53.264  14.032  1.00  0.00     0.167 HD
HETATM   12  C   UNL     1     -44.934 -55.192  14.136  1.00  0.00     0.019 A 
HETATM   13  C   UNL     1     -44.046 -54.364  13.446  1.00  0.00     0.035 A 
BRANCH   8  14
HETATM   14  O   UNL     1     -46.327 -51.649  12.557  1.00  0.00    -0.334 OA
BRANCH  14  15
HETATM   15  C   UNL     1     -47.099 -52.026  11.399  1.00  0.00     0.173 C 
HETATM   16  C   UNL     1     -47.650 -50.805  10.688  1.00  0.00     0.034 C 
ENDBRANCH  14  15
ENDBRANCH   8  14
ENDBRANCH   1   7
BRANCH   4  17
HETATM   17  C   UNL     1     -41.465 -49.262  12.536  1.00  0.00     0.121 C 
HETATM   18  C   UNL     1     -39.963 -49.578  12.603  1.00  0.00     0.057 C 
HETATM   19  C   UNL     1     -39.270 -48.456  11.815  1.00  0.00     0.275 C 
HETATM   20  N   UNL     1     -40.243 -47.367  11.842  1.00  0.00     0.095 N 
HETATM   21  C   UNL     1     -40.036 -46.337  10.823  1.00  0.00     0.273 C 
HETATM   22  C   UNL     1     -41.533 -48.037  11.615  1.00  0.00     0.245 C 
HETATM   23  C   UNL     1     -41.152 -45.284  10.914  1.00  0.00     0.030 C 
HETATM   24  C   UNL     1     -42.559 -45.898  10.913  1.00  0.00     0.004 C 
HETATM   25  C   UNL     1     -42.663 -47.059  11.904  1.00  0.00     0.038 C 
ENDBRANCH   4  17
TORSDOF 4
ENDMDL
MODEL 9
REMARK VINA RESULT:      -6.1      4.111      5.717
REMARK  4 active torsions:
REMARK  status: ('A' for Active; 'I' for Inactive)
REMARK    1  A    between atoms: C_2  and  O_3 
REMARK    2  A    between atoms: O_3  and  C_4 
REMARK    3  A    between atoms: C_10  and  N_11 
REMARK       I    between atoms: N_11  and  C_12 
REMARK       I    between atoms: C_12  and  N_14 
REMARK    4  A    between atoms: N_14  and  C_15 
ROOT
HETATM    1  N   UNL     1     -42.287 -48.046   9.595  1.00  0.00    -0.305 N 
HETATM    2  C   UNL     1     -41.908 -48.301  10.897  1.00  0.00     0.321 C 
HETATM    3  O   UNL     1     -42.643 -48.180  11.869  1.00  0.00    -0.247 OA
HETATM    4  N   UNL     1     -40.624 -48.768  10.982  1.00  0.00    -0.336 N 
HETATM    5  H   UNL     1     -41.999 -48.747   8.922  1.00  0.00     0.171 HD
HETATM    6  H   UNL     1     -39.970 -48.361  10.326  1.00  0.00     0.164 HD
ENDROOT
BRANCH   1   7
HETATM    7  C   UNL     1     -43.486 -47.354   9.292  1.00  0.00     0.087 A 
HETATM    8  C   UNL     1     -43.591 -45.961   9.355  1.00  0.00     0.169 A 
HETATM    9  N   UNL     1     -44.756 -45.291   9.159  1.00  0.00    -0.345 N 
HETATM   10  C   UNL     1     -45.841 -46.017   8.830  1.00  0.00     0.090 A 
ATOM     11  HN  UNL     1     -44.806 -44.276   9.256  1.00  0.00     0.167 HD
HETATM   12  C   UNL     1     -45.831 -47.389   8.692  1.00  0.00     0.019 A 
HETATM   13  C   UNL     1     -44.634 -48.065   8.938  1.00  0.00     0.035 A 
BRANCH   8  14
HETATM   14  O   UNL     1     -42.445 -45.201   9.547  1.00  0.00    -0.334 OA
BRANCH  14  15
HETATM   15  C   UNL     1     -42.423 -44.699  10.899  1.00  0.00     0.173 C 
HETATM   16  C   UNL     1     -41.017 -44.718  11.467  1.00  0.00     0.034 C 
ENDBRANCH  14  15
ENDBRANCH   8  14
ENDBRANCH   1   7
BRANCH   4  17
HETATM   17  C   UNL     1     -40.069 -49.360  12.204  1.00  0.00     0.121 C 
HETATM   18  C   UNL     1     -39.134 -50.565  12.021  1.00  0.00     0.057 C 
HETATM   19  C   UNL     1     -37.860 -50.222  12.809  1.00  0.00     0.275 C 
HETATM   20  N   UNL     1     -38.314 -49.223  13.774  1.00  0.00     0.095 N 
HETATM   21  C   UNL     1     -37.245 -48.415  14.364  1.00  0.00     0.273 C 
HETATM   22  C   UNL     1     -39.216 -48.361  12.995  1.00  0.00     0.245 C 
HETATM   23  C   UNL     1     -37.850 -47.366  15.310  1.00  0.00     0.030 C 
HETATM   24  C   UNL     1     -38.975 -46.548  14.661  1.00  0.00     0.004 C 
HETATM   25  C   UNL     1     -39.981 -47.451  13.945  1.00  0.00     0.038 C 
ENDBRANCH   4  17
TORSDOF 4
ENDMDL
