MODEL 1
REMARK VINA RESULT:      -6.1      0.000      0.000
REMARK  5 active torsions:
REMARK  status: ('A' for Active; 'I' for Inactive)
REMARK    1  A    between atoms: N_5  and  S_8 
REMARK    2  A    between atoms: S_8  and  N_11 
REMARK    3  A    between atoms: N_11  and  C_12 
REMARK    4  A    between atoms: C_12  and  C_13 
REMARK    5  A    between atoms: C_13  and  C_14 
ROOT
HETATM    1  N   UNL     1     -42.850 -52.595  11.821  1.00  0.00    -0.206 NA
HETATM    2  H   UNL     1     -43.370 -51.718  11.745  1.00  0.00     0.140 HD
ENDROOT
BRANCH   1   3
HETATM    3  S   UNL     1     -43.662 -53.524  12.963  1.00  0.00     0.280 S 
HETATM    4  O   UNL     1     -42.672 -54.366  13.590  1.00  0.00    -0.194 OA
HETATM    5  O   UNL     1     -44.853 -54.072  12.368  1.00  0.00    -0.194 OA
BRANCH   3   6
HETATM    6  N   UNL     1     -44.108 -52.324  14.059  1.00  0.00    -0.198 NA
HETATM    7  C   UNL     1     -44.438 -52.845  15.415  1.00  0.00     0.109 C 
HETATM    8  C   UNL     1     -45.834 -53.469  15.446  1.00  0.00     0.020 C 
HETATM    9  C   UNL     1     -46.929 -52.531  14.915  1.00  0.00    -0.016 C 
HETATM   10  C   UNL     1     -47.317 -51.490  15.966  1.00  0.00     0.010 C 
HETATM   11  C   UNL     1     -46.517 -51.858  13.596  1.00  0.00     0.020 C 
HETATM   12  C   UNL     1     -45.097 -51.305  13.625  1.00  0.00     0.109 C 
ENDBRANCH   3   6
ENDBRANCH   1   3
BRANCH   1  13
HETATM   13  C   UNL     1     -41.423 -52.302  12.137  1.00  0.00     0.110 C 
BRANCH  13  14
HETATM   14  C   UNL     1     -41.217 -50.954  12.829  1.00  0.00     0.055 C 
BRANCH  14  15
HETATM   15  C   UNL     1     -41.671 -49.804  11.977  1.00  0.00    -0.042 A 
HETATM   16  C   UNL     1     -42.778 -49.036  12.355  1.00  0.00     0.010 A 
HETATM   17  C   UNL     1     -43.170 -47.963  11.564  1.00  0.00     0.018 A 
HETATM   18  C   UNL     1     -42.443 -47.702  10.413  1.00  0.00     0.087 A 
HETATM   19  N   UNL     1     -41.380 -48.430  10.012  1.00  0.00    -0.375 N 
HETATM   20  C   UNL     1     -41.014 -49.462  10.804  1.00  0.00     0.094 A 
ATOM     21  HN  UNL     1     -40.878 -48.213   9.152  1.00  0.00     0.164 HD
ENDBRANCH  14  15
ENDBRANCH  13  14
ENDBRANCH   1  13
TORSDOF 5
ENDMDL
MODEL 2
REMARK VINA RESULT:      -6.1      1.627      2.415
REMARK  5 active torsions:
REMARK  status: ('A' for Active; 'I' for Inactive)
REMARK    1  A    between atoms: N_5  and  S_8 
REMARK    2  A    between atoms: S_8  and  N_11 
REMARK    3  A    between atoms: N_11  and  C_12 
REMARK    4  A    between atoms: C_12  and  C_13 
REMARK    5  A    between atoms: C_13  and  C_14 
ROOT
HETATM    1  N   UNL     1     -43.079 -52.734  11.949  1.00  0.00    -0.206 NA
HETATM    2  H   UNL     1     -43.538 -51.823  11.874  1.00  0.00     0.140 HD
ENDROOT
BRANCH   1   3
HETATM    3  S   UNL     1     -43.951 -53.606  13.092  1.00  0.00     0.280 S 
HETATM    4  O   UNL     1     -43.034 -54.556  13.674  1.00  0.00    -0.194 OA
HETATM    5  O   UNL     1     -45.205 -54.019  12.517  1.00  0.00    -0.194 OA
BRANCH   3   6
HETATM    6  N   UNL     1     -44.249 -52.394  14.225  1.00  0.00    -0.198 NA
HETATM    7  C   UNL     1     -44.610 -52.912  15.574  1.00  0.00     0.109 C 
HETATM    8  C   UNL     1     -46.063 -53.387  15.617  1.00  0.00     0.020 C 
HETATM    9  C   UNL     1     -47.062 -52.325  15.129  1.00  0.00    -0.016 C 
HETATM   10  C   UNL     1     -47.320 -51.277  16.213  1.00  0.00     0.010 C 
HETATM   11  C   UNL     1     -46.603 -51.665  13.820  1.00  0.00     0.020 C 
HETATM   12  C   UNL     1     -45.132 -51.266  13.835  1.00  0.00     0.109 C 
ENDBRANCH   3   6
ENDBRANCH   1   3
BRANCH   1  13
HETATM   13  C   UNL     1     -41.635 -52.539  12.263  1.00  0.00     0.110 C 
BRANCH  13  14
HETATM   14  C   UNL     1     -41.307 -51.137  12.777  1.00  0.00     0.055 C 
BRANCH  14  15
HETATM   15  C   UNL     1     -39.927 -50.696  12.382  1.00  0.00    -0.042 A 
HETATM   16  C   UNL     1     -38.802 -51.233  13.017  1.00  0.00     0.010 A 
HETATM   17  C   UNL     1     -37.534 -50.827  12.623  1.00  0.00     0.018 A 
HETATM   18  C   UNL     1     -37.436 -49.887  11.609  1.00  0.00     0.087 A 
HETATM   19  N   UNL     1     -38.500 -49.338  10.985  1.00  0.00    -0.375 N 
HETATM   20  C   UNL     1     -39.721 -49.757  11.382  1.00  0.00     0.094 A 
ATOM     21  HN  UNL     1     -38.387 -48.640  10.251  1.00  0.00     0.164 HD
ENDBRANCH  14  15
ENDBRANCH  13  14
ENDBRANCH   1  13
TORSDOF 5
ENDMDL
MODEL 3
REMARK VINA RESULT:      -6.0      2.607      3.484
REMARK  5 active torsions:
REMARK  status: ('A' for Active; 'I' for Inactive)
REMARK    1  A    between atoms: N_5  and  S_8 
REMARK    2  A    between atoms: S_8  and  N_11 
REMARK    3  A    between atoms: N_11  and  C_12 
REMARK    4  A    between atoms: C_12  and  C_13 
REMARK    5  A    between atoms: C_13  and  C_14 
ROOT
HETATM    1  N   UNL     1     -43.348 -54.898  14.925  1.00  0.00    -0.206 NA
HETATM    2  H   UNL     1     -43.733 -55.110  14.002  1.00  0.00     0.140 HD
ENDROOT
BRANCH   1   3
HETATM    3  S   UNL     1     -44.491 -53.943  15.703  1.00  0.00     0.280 S 
HETATM    4  O   UNL     1     -43.969 -52.598  15.712  1.00  0.00    -0.194 OA
HETATM    5  O   UNL     1     -44.912 -54.599  16.914  1.00  0.00    -0.194 OA
BRANCH   3   6
HETATM    6  N   UNL     1     -45.749 -54.015  14.584  1.00  0.00    -0.198 NA
HETATM    7  C   UNL     1     -45.289 -54.044  13.167  1.00  0.00     0.109 C 
HETATM    8  C   UNL     1     -44.872 -52.651  12.691  1.00  0.00     0.020 C 
HETATM    9  C   UNL     1     -45.954 -51.584  12.916  1.00  0.00    -0.016 C 
HETATM   10  C   UNL     1     -47.046 -51.676  11.849  1.00  0.00     0.010 C 
HETATM   11  C   UNL     1     -46.553 -51.665  14.329  1.00  0.00     0.020 C 
HETATM   12  C   UNL     1     -46.897 -53.088  14.752  1.00  0.00     0.109 C 
ENDBRANCH   3   6
ENDBRANCH   1   3
BRANCH   1  13
HETATM   13  C   UNL     1     -42.000 -54.280  14.772  1.00  0.00     0.110 C 
BRANCH  13  14
HETATM   14  C   UNL     1     -41.474 -54.314  13.336  1.00  0.00     0.055 C 
BRANCH  14  15
HETATM   15  C   UNL     1     -40.863 -53.006  12.924  1.00  0.00    -0.042 A 
HETATM   16  C   UNL     1     -39.808 -52.453  13.659  1.00  0.00     0.010 A 
HETATM   17  C   UNL     1     -39.243 -51.253  13.250  1.00  0.00     0.018 A 
HETATM   18  C   UNL     1     -39.761 -50.640  12.119  1.00  0.00     0.087 A 
HETATM   19  N   UNL     1     -40.785 -51.138  11.395  1.00  0.00    -0.375 N 
HETATM   20  C   UNL     1     -41.311 -52.311  11.810  1.00  0.00     0.094 A 
ATOM     21  HN  UNL     1     -41.146 -50.652  10.575  1.00  0.00     0.164 HD
ENDBRANCH  14  15
ENDBRANCH  13  14
ENDBRANCH   1  13
TORSDOF 5
ENDMDL
MODEL 4
REMARK VINA RESULT:      -6.0      2.874      4.504
REMARK  5 active torsions:
REMARK  status: ('A' for Active; 'I' for Inactive)
REMARK    1  A    between atoms: N_5  and  S_8 
REMARK    2  A    between atoms: S_8  and  N_11 
REMARK    3  A    between atoms: N_11  and  C_12 
REMARK    4  A    between atoms: C_12  and  C_13 
REMARK    5  A    between atoms: C_13  and  C_14 
ROOT
HETATM    1  N   UNL     1     -43.439 -53.643  12.114  1.00  0.00    -0.206 NA
HETATM    2  H   UNL     1     -43.539 -53.236  11.182  1.00  0.00     0.140 HD
ENDROOT
BRANCH   1   3
HETATM    3  S   UNL     1     -44.970 -53.613  12.807  1.00  0.00     0.280 S 
HETATM    4  O   UNL     1     -45.233 -54.947  13.289  1.00  0.00    -0.194 OA
HETATM    5  O   UNL     1     -45.879 -52.937  11.918  1.00  0.00    -0.194 OA
BRANCH   3   6
HETATM    6  N   UNL     1     -44.675 -52.618  14.135  1.00  0.00    -0.198 NA
HETATM    7  C   UNL     1     -44.883 -53.294  15.447  1.00  0.00     0.109 C 
HETATM    8  C   UNL     1     -46.371 -53.400  15.787  1.00  0.00     0.020 C 
HETATM    9  C   UNL     1     -47.105 -52.052  15.718  1.00  0.00    -0.016 C 
HETATM   10  C   UNL     1     -46.829 -51.212  16.966  1.00  0.00     0.010 C 
HETATM   11  C   UNL     1     -46.757 -51.274  14.440  1.00  0.00     0.020 C 
HETATM   12  C   UNL     1     -45.263 -51.255  14.140  1.00  0.00     0.109 C 
ENDBRANCH   3   6
ENDBRANCH   1   3
BRANCH   1  13
HETATM   13  C   UNL     1     -42.384 -52.906  12.868  1.00  0.00     0.110 C 
BRANCH  13  14
HETATM   14  C   UNL     1     -40.980 -53.472  12.660  1.00  0.00     0.055 C 
BRANCH  14  15
HETATM   15  C   UNL     1     -40.463 -54.173  13.884  1.00  0.00    -0.042 A 
HETATM   16  C   UNL     1     -41.322 -54.466  14.949  1.00  0.00     0.010 A 
HETATM   17  C   UNL     1     -40.829 -55.133  16.063  1.00  0.00     0.018 A 
HETATM   18  C   UNL     1     -39.486 -55.476  16.076  1.00  0.00     0.087 A 
HETATM   19  N   UNL     1     -38.627 -55.196  15.074  1.00  0.00    -0.375 N 
HETATM   20  C   UNL     1     -39.134 -54.556  13.998  1.00  0.00     0.094 A 
ATOM     21  HN  UNL     1     -37.643 -55.456  15.126  1.00  0.00     0.164 HD
ENDBRANCH  14  15
ENDBRANCH  13  14
ENDBRANCH   1  13
TORSDOF 5
ENDMDL
MODEL 5
REMARK VINA RESULT:      -5.6      1.982      2.437
REMARK  5 active torsions:
REMARK  status: ('A' for Active; 'I' for Inactive)
REMARK    1  A    between atoms: N_5  and  S_8 
REMARK    2  A    between atoms: S_8  and  N_11 
REMARK    3  A    between atoms: N_11  and  C_12 
REMARK    4  A    between atoms: C_12  and  C_13 
REMARK    5  A    between atoms: C_13  and  C_14 
ROOT
HETATM    1  N   UNL     1     -42.654 -54.665  14.006  1.00  0.00    -0.206 NA
HETATM    2  H   UNL     1     -42.617 -55.686  13.958  1.00  0.00     0.140 HD
ENDROOT
BRANCH   1   3
HETATM    3  S   UNL     1     -44.249 -54.237  13.693  1.00  0.00     0.280 S 
HETATM    4  O   UNL     1     -45.076 -55.251  14.300  1.00  0.00    -0.194 OA
HETATM    5  O   UNL     1     -44.381 -53.885  12.303  1.00  0.00    -0.194 OA
BRANCH   3   6
HETATM    6  N   UNL     1     -44.366 -52.833  14.618  1.00  0.00    -0.198 NA
HETATM    7  C   UNL     1     -44.789 -53.077  16.025  1.00  0.00     0.109 C 
HETATM    8  C   UNL     1     -46.295 -53.329  16.116  1.00  0.00     0.020 C 
HETATM    9  C   UNL     1     -47.135 -52.226  15.452  1.00  0.00    -0.016 C 
HETATM   10  C   UNL     1     -47.236 -50.996  16.355  1.00  0.00     0.010 C 
HETATM   11  C   UNL     1     -46.593 -51.851  14.064  1.00  0.00     0.020 C 
HETATM   12  C   UNL     1     -45.081 -51.666  14.042  1.00  0.00     0.109 C 
ENDBRANCH   3   6
ENDBRANCH   1   3
BRANCH   1  13
HETATM   13  C   UNL     1     -41.645 -54.087  13.072  1.00  0.00     0.110 C 
BRANCH  13  14
HETATM   14  C   UNL     1     -40.583 -53.239  13.773  1.00  0.00     0.055 C 
BRANCH  14  15
HETATM   15  C   UNL     1     -40.193 -52.036  12.963  1.00  0.00    -0.042 A 
HETATM   16  C   UNL     1     -39.004 -51.350  13.239  1.00  0.00     0.010 A 
HETATM   17  C   UNL     1     -38.652 -50.252  12.466  1.00  0.00     0.018 A 
HETATM   18  C   UNL     1     -39.508 -49.871  11.445  1.00  0.00     0.087 A 
HETATM   19  N   UNL     1     -40.668 -50.501  11.160  1.00  0.00    -0.375 N 
HETATM   20  C   UNL     1     -40.983 -51.571  11.922  1.00  0.00     0.094 A 
ATOM     21  HN  UNL     1     -41.277 -50.183  10.407  1.00  0.00     0.164 HD
ENDBRANCH  14  15
ENDBRANCH  13  14
ENDBRANCH   1  13
TORSDOF 5
ENDMDL
MODEL 6
REMARK VINA RESULT:      -5.6      3.256      6.023
REMARK  5 active torsions:
REMARK  status: ('A' for Active; 'I' for Inactive)
REMARK    1  A    between atoms: N_5  and  S_8 
REMARK    2  A    between atoms: S_8  and  N_11 
REMARK    3  A    between atoms: N_11  and  C_12 
REMARK    4  A    between atoms: C_12  and  C_13 
REMARK    5  A    between atoms: C_13  and  C_14 
ROOT
HETATM    1  N   UNL     1     -45.740 -53.983  15.158  1.00  0.00    -0.206 NA
HETATM    2  H   UNL     1     -45.308 -53.362  15.846  1.00  0.00     0.140 HD
ENDROOT
BRANCH   1   3
HETATM    3  S   UNL     1     -44.485 -54.580  14.212  1.00  0.00     0.280 S 
HETATM    4  O   UNL     1     -44.969 -54.608  12.853  1.00  0.00    -0.194 OA
HETATM    5  O   UNL     1     -43.933 -55.752  14.843  1.00  0.00    -0.194 OA
BRANCH   3   6
HETATM    6  N   UNL     1     -43.378 -53.318  14.356  1.00  0.00    -0.198 NA
HETATM    7  C   UNL     1     -42.569 -53.089  13.125  1.00  0.00     0.109 C 
HETATM    8  C   UNL     1     -41.453 -54.126  12.993  1.00  0.00     0.020 C 
HETATM    9  C   UNL     1     -40.568 -54.226  14.246  1.00  0.00    -0.016 C 
HETATM   10  C   UNL     1     -39.561 -53.076  14.299  1.00  0.00     0.010 C 
HETATM   11  C   UNL     1     -41.403 -54.290  15.534  1.00  0.00     0.020 C 
HETATM   12  C   UNL     1     -42.526 -53.261  15.570  1.00  0.00     0.109 C 
ENDBRANCH   3   6
ENDBRANCH   1   3
BRANCH   1  13
HETATM   13  C   UNL     1     -46.799 -53.242  14.415  1.00  0.00     0.110 C 
BRANCH  13  14
HETATM   14  C   UNL     1     -46.628 -51.724  14.463  1.00  0.00     0.055 C 
BRANCH  14  15
HETATM   15  C   UNL     1     -46.696 -51.189  15.865  1.00  0.00    -0.042 A 
HETATM   16  C   UNL     1     -47.898 -51.223  16.579  1.00  0.00     0.010 A 
HETATM   17  C   UNL     1     -47.935 -50.742  17.882  1.00  0.00     0.018 A 
HETATM   18  C   UNL     1     -46.764 -50.234  18.422  1.00  0.00     0.087 A 
HETATM   19  N   UNL     1     -45.591 -50.173  17.757  1.00  0.00    -0.375 N 
HETATM   20  C   UNL     1     -45.581 -50.656  16.495  1.00  0.00     0.094 A 
ATOM     21  HN  UNL     1     -44.753 -49.781  18.186  1.00  0.00     0.164 HD
ENDBRANCH  14  15
ENDBRANCH  13  14
ENDBRANCH   1  13
TORSDOF 5
ENDMDL
MODEL 7
REMARK VINA RESULT:      -5.4      2.427      3.219
REMARK  5 active torsions:
REMARK  status: ('A' for Active; 'I' for Inactive)
REMARK    1  A    between atoms: N_5  and  S_8 
REMARK    2  A    between atoms: S_8  and  N_11 
REMARK    3  A    between atoms: N_11  and  C_12 
REMARK    4  A    between atoms: C_12  and  C_13 
REMARK    5  A    between atoms: C_13  and  C_14 
ROOT
HETATM    1  N   UNL     1     -43.770 -54.376  14.254  1.00  0.00    -0.206 NA
HETATM    2  H   UNL     1     -43.512 -55.293  14.624  1.00  0.00     0.140 HD
ENDROOT
BRANCH   1   3
HETATM    3  S   UNL     1     -45.420 -54.444  13.937  1.00  0.00     0.280 S 
HETATM    4  O   UNL     1     -45.772 -55.843  13.880  1.00  0.00    -0.194 OA
HETATM    5  O   UNL     1     -45.732 -53.541  12.860  1.00  0.00    -0.194 OA
BRANCH   3   6
HETATM    6  N   UNL     1     -46.025 -53.803  15.373  1.00  0.00    -0.198 NA
HETATM    7  C   UNL     1     -47.029 -52.722  15.168  1.00  0.00     0.109 C 
HETATM    8  C   UNL     1     -46.355 -51.400  14.798  1.00  0.00     0.020 C 
HETATM    9  C   UNL     1     -45.260 -50.980  15.791  1.00  0.00    -0.016 C 
HETATM   10  C   UNL     1     -45.870 -50.372  17.055  1.00  0.00     0.010 C 
HETATM   11  C   UNL     1     -44.321 -52.146  16.136  1.00  0.00     0.020 C 
HETATM   12  C   UNL     1     -45.064 -53.441  16.444  1.00  0.00     0.109 C 
ENDBRANCH   3   6
ENDBRANCH   1   3
BRANCH   1  13
HETATM   13  C   UNL     1     -42.909 -54.052  13.081  1.00  0.00     0.110 C 
BRANCH  13  14
HETATM   14  C   UNL     1     -41.415 -54.051  13.405  1.00  0.00     0.055 C 
BRANCH  14  15
HETATM   15  C   UNL     1     -40.736 -52.793  12.944  1.00  0.00    -0.042 A 
HETATM   16  C   UNL     1     -39.631 -52.288  13.640  1.00  0.00     0.010 A 
HETATM   17  C   UNL     1     -39.005 -51.135  13.185  1.00  0.00     0.018 A 
HETATM   18  C   UNL     1     -39.512 -50.520  12.052  1.00  0.00     0.087 A 
HETATM   19  N   UNL     1     -40.583 -50.972  11.365  1.00  0.00    -0.375 N 
HETATM   20  C   UNL     1     -41.168 -52.100  11.823  1.00  0.00     0.094 A 
ATOM     21  HN  UNL     1     -40.934 -50.485  10.541  1.00  0.00     0.164 HD
ENDBRANCH  14  15
ENDBRANCH  13  14
ENDBRANCH   1  13
TORSDOF 5
ENDMDL
MODEL 8
REMARK VINA RESULT:      -5.3      5.559      8.091
REMARK  5 active torsions:
REMARK  status: ('A' for Active; 'I' for Inactive)
REMARK    1  A    between atoms: N_5  and  S_8 
REMARK    2  A    between atoms: S_8  and  N_11 
REMARK    3  A    between atoms: N_11  and  C_12 
REMARK    4  A    between atoms: C_12  and  C_13 
REMARK    5  A    between atoms: C_13  and  C_14 
ROOT
HETATM    1  N   UNL     1     -43.584 -46.506  10.800  1.00  0.00    -0.206 NA
HETATM    2  H   UNL     1     -44.399 -46.545  10.184  1.00  0.00     0.140 HD
ENDROOT
BRANCH   1   3
HETATM    3  S   UNL     1     -42.713 -45.143  10.342  1.00  0.00     0.280 S 
HETATM    4  O   UNL     1     -43.592 -44.348   9.520  1.00  0.00    -0.194 OA
HETATM    5  O   UNL     1     -41.409 -45.547   9.883  1.00  0.00    -0.194 OA
BRANCH   3   6
HETATM    6  N   UNL     1     -42.548 -44.380  11.835  1.00  0.00    -0.198 NA
HETATM    7  C   UNL     1     -42.800 -42.912  11.788  1.00  0.00     0.109 C 
HETATM    8  C   UNL     1     -41.599 -42.162  11.210  1.00  0.00     0.020 C 
HETATM    9  C   UNL     1     -40.278 -42.491  11.924  1.00  0.00    -0.016 C 
HETATM   10  C   UNL     1     -40.171 -41.740  13.252  1.00  0.00     0.010 C 
HETATM   11  C   UNL     1     -40.098 -44.003  12.127  1.00  0.00     0.020 C 
HETATM   12  C   UNL     1     -41.351 -44.689  12.657  1.00  0.00     0.109 C 
ENDBRANCH   3   6
ENDBRANCH   1   3
BRANCH   1  13
HETATM   13  C   UNL     1     -42.838 -47.794  10.721  1.00  0.00     0.110 C 
BRANCH  13  14
HETATM   14  C   UNL     1     -42.307 -48.274  12.072  1.00  0.00     0.055 C 
BRANCH  14  15
HETATM   15  C   UNL     1     -40.871 -48.707  11.997  1.00  0.00    -0.042 A 
HETATM   16  C   UNL     1     -39.925 -48.183  12.885  1.00  0.00     0.010 A 
HETATM   17  C   UNL     1     -38.606 -48.612  12.812  1.00  0.00     0.018 A 
HETATM   18  C   UNL     1     -38.277 -49.547  11.843  1.00  0.00     0.087 A 
HETATM   19  N   UNL     1     -39.161 -50.062  10.962  1.00  0.00    -0.375 N 
HETATM   20  C   UNL     1     -40.439 -49.635  11.061  1.00  0.00     0.094 A 
ATOM     21  HN  UNL     1     -38.877 -50.741  10.256  1.00  0.00     0.164 HD
ENDBRANCH  14  15
ENDBRANCH  13  14
ENDBRANCH   1  13
TORSDOF 5
ENDMDL
MODEL 9
REMARK VINA RESULT:      -5.3      3.349      5.829
REMARK  5 active torsions:
REMARK  status: ('A' for Active; 'I' for Inactive)
REMARK    1  A    between atoms: N_5  and  S_8 
REMARK    2  A    between atoms: S_8  and  N_11 
REMARK    3  A    between atoms: N_11  and  C_12 
REMARK    4  A    between atoms: C_12  and  C_13 
REMARK    5  A    between atoms: C_13  and  C_14 
ROOT
HETATM    1  N   UNL     1     -43.159 -53.091  11.747  1.00  0.00    -0.206 NA
HETATM    2  H   UNL     1     -42.766 -53.889  11.242  1.00  0.00     0.140 HD
ENDROOT
BRANCH   1   3
HETATM    3  S   UNL     1     -41.860 -52.314  12.479  1.00  0.00     0.280 S 
HETATM    4  O   UNL     1     -42.252 -50.938  12.663  1.00  0.00    -0.194 OA
HETATM    5  O   UNL     1     -40.646 -52.669  11.791  1.00  0.00    -0.194 OA
BRANCH   3   6
HETATM    6  N   UNL     1     -41.870 -53.073  13.984  1.00  0.00    -0.198 NA
HETATM    7  C   UNL     1     -41.672 -52.138  15.127  1.00  0.00     0.109 C 
HETATM    8  C   UNL     1     -40.201 -51.744  15.274  1.00  0.00     0.020 C 
HETATM    9  C   UNL     1     -39.256 -52.953  15.356  1.00  0.00    -0.016 C 
HETATM   10  C   UNL     1     -39.280 -53.574  16.754  1.00  0.00     0.010 C 
HETATM   11  C   UNL     1     -39.572 -54.002  14.279  1.00  0.00     0.020 C 
HETATM   12  C   UNL     1     -41.060 -54.305  14.158  1.00  0.00     0.109 C 
ENDBRANCH   3   6
ENDBRANCH   1   3
BRANCH   1  13
HETATM   13  C   UNL     1     -44.223 -53.566  12.678  1.00  0.00     0.110 C 
BRANCH  13  14
HETATM   14  C   UNL     1     -45.396 -52.595  12.807  1.00  0.00     0.055 C 
BRANCH  14  15
HETATM   15  C   UNL     1     -45.861 -52.452  14.228  1.00  0.00    -0.042 A 
HETATM   16  C   UNL     1     -46.759 -51.438  14.581  1.00  0.00     0.010 A 
HETATM   17  C   UNL     1     -47.193 -51.336  15.896  1.00  0.00     0.018 A 
HETATM   18  C   UNL     1     -46.704 -52.249  16.817  1.00  0.00     0.087 A 
HETATM   19  N   UNL     1     -45.828 -53.230  16.513  1.00  0.00    -0.375 N 
HETATM   20  C   UNL     1     -45.430 -53.313  15.225  1.00  0.00     0.094 A 
ATOM     21  HN  UNL     1     -45.483 -53.877  17.222  1.00  0.00     0.164 HD
ENDBRANCH  14  15
ENDBRANCH  13  14
ENDBRANCH   1  13
TORSDOF 5
ENDMDL
