MODEL 1
REMARK VINA RESULT:      -5.4      0.000      0.000
REMARK  6 active torsions:
REMARK  status: ('A' for Active; 'I' for Inactive)
REMARK    1  A    between atoms: C_2  and  C_3 
REMARK    2  A    between atoms: C_3  and  C_4 
REMARK    3  A    between atoms: C_6  and  N_7 
REMARK       I    between atoms: N_7  and  C_8 
REMARK    4  A    between atoms: C_8  and  C_10 
REMARK    5  A    between atoms: C_10  and  N_11 
REMARK    6  A    between atoms: C_19  and  O_20 
ROOT
HETATM    1  C   UNL     1     -45.486 -52.941  14.268  1.00  0.00     0.006 C 
HETATM    2  C   UNL     1     -44.073 -52.876  14.946  1.00  0.00     0.101 C 
HETATM    3  C   UNL     1     -44.396 -51.474  15.507  1.00  0.00     0.035 C 
HETATM    4  C   UNL     1     -43.820 -50.207  14.892  1.00  0.00     0.015 C 
HETATM    5  C   UNL     1     -45.901 -51.746  15.223  1.00  0.00     0.137 C 
ENDROOT
BRANCH   2   6
HETATM    6  N   UNL     1     -42.880 -52.952  14.075  1.00  0.00    -0.354 N 
HETATM    7  C   UNL     1     -42.021 -54.031  14.163  1.00  0.00     0.237 C 
HETATM    8  O   UNL     1     -42.129 -54.905  15.022  1.00  0.00    -0.272 OA
HETATM    9  H   UNL     1     -42.801 -52.345  13.266  1.00  0.00     0.163 HD
BRANCH   7  10
HETATM   10  C   UNL     1     -40.936 -54.084  13.119  1.00  0.00     0.248 C 
BRANCH  10  11
HETATM   11  N   UNL     1     -40.634 -52.760  12.631  1.00  0.00    -0.277 N 
HETATM   12  C   UNL     1     -39.718 -51.869  13.103  1.00  0.00     0.126 A 
HETATM   13  C   UNL     1     -39.891 -50.766  12.305  1.00  0.00     0.123 A 
HETATM   14  N   UNL     1     -40.882 -51.012  11.398  1.00  0.00    -0.294 N 
HETATM   15  N   UNL     1     -41.334 -52.242  11.605  1.00  0.00    -0.021 NA
ATOM     16  HN  UNL     1     -41.217 -50.363  10.685  1.00  0.00     0.183 HD
ENDBRANCH  10  11
ENDBRANCH   7  10
ENDBRANCH   2   6
BRANCH   1  17
HETATM   17  C   UNL     1     -46.189 -54.282  14.596  1.00  0.00     0.010 C 
HETATM   18  C   UNL     1     -45.612 -55.461  13.821  1.00  0.00     0.006 C 
ENDBRANCH   1  17
BRANCH   1  19
HETATM   19  C   UNL     1     -45.553 -52.578  12.765  1.00  0.00     0.010 C 
HETATM   20  C   UNL     1     -46.663 -51.586  12.432  1.00  0.00     0.006 C 
ENDBRANCH   1  19
BRANCH   5  21
HETATM   21  O   UNL     1     -46.697 -52.101  16.382  1.00  0.00    -0.389 OA
HETATM   22  C   UNL     1     -47.829 -51.281  16.644  1.00  0.00     0.202 C 
ENDBRANCH   5  21
TORSDOF 6
ENDMDL
MODEL 2
REMARK VINA RESULT:      -5.1      2.348      3.911
REMARK  6 active torsions:
REMARK  status: ('A' for Active; 'I' for Inactive)
REMARK    1  A    between atoms: C_2  and  C_3 
REMARK    2  A    between atoms: C_3  and  C_4 
REMARK    3  A    between atoms: C_6  and  N_7 
REMARK       I    between atoms: N_7  and  C_8 
REMARK    4  A    between atoms: C_8  and  C_10 
REMARK    5  A    between atoms: C_10  and  N_11 
REMARK    6  A    between atoms: C_19  and  O_20 
ROOT
HETATM    1  C   UNL     1     -44.090 -52.058  13.967  1.00  0.00     0.006 C 
HETATM    2  C   UNL     1     -43.060 -51.945  12.789  1.00  0.00     0.101 C 
HETATM    3  C   UNL     1     -42.673 -53.428  12.971  1.00  0.00     0.035 C 
HETATM    4  C   UNL     1     -41.378 -53.845  13.654  1.00  0.00     0.015 C 
HETATM    5  C   UNL     1     -43.975 -53.631  13.797  1.00  0.00     0.137 C 
ENDROOT
BRANCH   2   6
HETATM    6  N   UNL     1     -41.950 -50.977  12.927  1.00  0.00    -0.354 N 
HETATM    7  C   UNL     1     -42.166 -49.632  12.694  1.00  0.00     0.237 C 
HETATM    8  O   UNL     1     -43.229 -49.189  12.258  1.00  0.00    -0.272 OA
HETATM    9  H   UNL     1     -41.097 -51.246  13.404  1.00  0.00     0.163 HD
BRANCH   7  10
HETATM   10  C   UNL     1     -41.011 -48.722  13.024  1.00  0.00     0.248 C 
BRANCH  10  11
HETATM   11  N   UNL     1     -39.798 -49.192  12.399  1.00  0.00    -0.277 N 
HETATM   12  C   UNL     1     -38.518 -49.108  12.859  1.00  0.00     0.126 A 
HETATM   13  C   UNL     1     -37.770 -49.661  11.849  1.00  0.00     0.123 A 
HETATM   14  N   UNL     1     -38.595 -50.051  10.833  1.00  0.00    -0.294 N 
HETATM   15  N   UNL     1     -39.842 -49.760  11.180  1.00  0.00    -0.021 NA
ATOM     16  HN  UNL     1     -38.304 -50.491   9.960  1.00  0.00     0.183 HD
ENDBRANCH  10  11
ENDBRANCH   7  10
ENDBRANCH   2   6
BRANCH   1  17
HETATM   17  C   UNL     1     -45.465 -51.479  13.550  1.00  0.00     0.010 C 
HETATM   18  C   UNL     1     -46.465 -51.439  14.699  1.00  0.00     0.006 C 
ENDBRANCH   1  17
BRANCH   1  19
HETATM   19  C   UNL     1     -43.619 -51.556  15.353  1.00  0.00     0.010 C 
HETATM   20  C   UNL     1     -43.563 -52.655  16.408  1.00  0.00     0.006 C 
ENDBRANCH   1  19
BRANCH   5  21
HETATM   21  O   UNL     1     -45.064 -54.278  13.090  1.00  0.00    -0.389 OA
HETATM   22  C   UNL     1     -45.759 -55.295  13.800  1.00  0.00     0.202 C 
ENDBRANCH   5  21
TORSDOF 6
ENDMDL
MODEL 3
REMARK VINA RESULT:      -5.1      1.817      2.804
REMARK  6 active torsions:
REMARK  status: ('A' for Active; 'I' for Inactive)
REMARK    1  A    between atoms: C_2  and  C_3 
REMARK    2  A    between atoms: C_3  and  C_4 
REMARK    3  A    between atoms: C_6  and  N_7 
REMARK       I    between atoms: N_7  and  C_8 
REMARK    4  A    between atoms: C_8  and  C_10 
REMARK    5  A    between atoms: C_10  and  N_11 
REMARK    6  A    between atoms: C_19  and  O_20 
ROOT
HETATM    1  C   UNL     1     -45.783 -51.533  15.995  1.00  0.00     0.006 C 
HETATM    2  C   UNL     1     -45.321 -53.029  16.071  1.00  0.00     0.101 C 
HETATM    3  C   UNL     1     -45.547 -53.032  17.598  1.00  0.00     0.035 C 
HETATM    4  C   UNL     1     -44.391 -52.945  18.585  1.00  0.00     0.015 C 
HETATM    5  C   UNL     1     -46.405 -51.745  17.438  1.00  0.00     0.137 C 
ENDROOT
BRANCH   2   6
HETATM    6  N   UNL     1     -43.945 -53.354  15.632  1.00  0.00    -0.354 N 
HETATM    7  C   UNL     1     -43.691 -54.532  14.956  1.00  0.00     0.237 C 
HETATM    8  O   UNL     1     -44.541 -55.405  14.787  1.00  0.00    -0.272 OA
HETATM    9  H   UNL     1     -43.232 -52.634  15.620  1.00  0.00     0.163 HD
BRANCH   7  10
HETATM   10  C   UNL     1     -42.292 -54.680  14.415  1.00  0.00     0.248 C 
BRANCH  10  11
HETATM   11  N   UNL     1     -42.064 -53.753  13.333  1.00  0.00    -0.277 N 
HETATM   12  C   UNL     1     -40.884 -53.229  12.899  1.00  0.00     0.126 A 
HETATM   13  C   UNL     1     -41.255 -52.377  11.889  1.00  0.00     0.123 A 
HETATM   14  N   UNL     1     -42.614 -52.406  11.746  1.00  0.00    -0.294 N 
HETATM   15  N   UNL     1     -43.103 -53.257  12.638  1.00  0.00    -0.021 NA
ATOM     16  HN  UNL     1     -43.157 -51.868  11.070  1.00  0.00     0.183 HD
ENDBRANCH  10  11
ENDBRANCH   7  10
ENDBRANCH   2   6
BRANCH   1  17
HETATM   17  C   UNL     1     -46.839 -51.343  14.877  1.00  0.00     0.010 C 
HETATM   18  C   UNL     1     -46.337 -51.777  13.505  1.00  0.00     0.006 C 
ENDBRANCH   1  17
BRANCH   1  19
HETATM   19  C   UNL     1     -44.668 -50.460  15.958  1.00  0.00     0.010 C 
HETATM   20  C   UNL     1     -44.749 -49.464  17.110  1.00  0.00     0.006 C 
ENDBRANCH   1  19
BRANCH   5  21
HETATM   21  O   UNL     1     -47.840 -51.944  17.493  1.00  0.00    -0.389 OA
HETATM   22  C   UNL     1     -48.528 -51.285  18.549  1.00  0.00     0.202 C 
ENDBRANCH   5  21
TORSDOF 6
ENDMDL
MODEL 4
REMARK VINA RESULT:      -4.8      2.479      5.758
REMARK  6 active torsions:
REMARK  status: ('A' for Active; 'I' for Inactive)
REMARK    1  A    between atoms: C_2  and  C_3 
REMARK    2  A    between atoms: C_3  and  C_4 
REMARK    3  A    between atoms: C_6  and  N_7 
REMARK       I    between atoms: N_7  and  C_8 
REMARK    4  A    between atoms: C_8  and  C_10 
REMARK    5  A    between atoms: C_10  and  N_11 
REMARK    6  A    between atoms: C_19  and  O_20 
ROOT
HETATM    1  C   UNL     1     -41.577 -52.411  13.812  1.00  0.00     0.006 C 
HETATM    2  C   UNL     1     -42.293 -52.202  12.433  1.00  0.00     0.101 C 
HETATM    3  C   UNL     1     -41.431 -50.950  12.163  1.00  0.00     0.035 C 
HETATM    4  C   UNL     1     -41.987 -49.541  12.316  1.00  0.00     0.015 C 
HETATM    5  C   UNL     1     -40.457 -51.423  13.279  1.00  0.00     0.137 C 
ENDROOT
BRANCH   2   6
HETATM    6  N   UNL     1     -43.756 -51.978  12.436  1.00  0.00    -0.354 N 
HETATM    7  C   UNL     1     -44.624 -53.053  12.434  1.00  0.00     0.237 C 
HETATM    8  O   UNL     1     -44.248 -54.219  12.315  1.00  0.00    -0.272 OA
HETATM    9  H   UNL     1     -44.130 -51.064  12.664  1.00  0.00     0.163 HD
BRANCH   7  10
HETATM   10  C   UNL     1     -46.081 -52.710  12.604  1.00  0.00     0.248 C 
BRANCH  10  11
HETATM   11  N   UNL     1     -46.369 -52.376  13.978  1.00  0.00    -0.277 N 
HETATM   12  C   UNL     1     -46.985 -53.136  14.926  1.00  0.00     0.126 A 
HETATM   13  C   UNL     1     -47.039 -52.313  16.023  1.00  0.00     0.123 A 
HETATM   14  N   UNL     1     -46.472 -51.108  15.716  1.00  0.00    -0.294 N 
HETATM   15  N   UNL     1     -46.061 -51.156  14.455  1.00  0.00    -0.021 NA
ATOM     16  HN  UNL     1     -46.381 -50.311  16.346  1.00  0.00     0.183 HD
ENDBRANCH  10  11
ENDBRANCH   7  10
ENDBRANCH   2   6
BRANCH   1  17
HETATM   17  C   UNL     1     -41.102 -53.877  13.966  1.00  0.00     0.010 C 
HETATM   18  C   UNL     1     -41.762 -54.596  15.136  1.00  0.00     0.006 C 
ENDBRANCH   1  17
BRANCH   1  19
HETATM   19  C   UNL     1     -42.315 -51.882  15.066  1.00  0.00     0.010 C 
HETATM   20  C   UNL     1     -41.490 -50.890  15.879  1.00  0.00     0.006 C 
ENDBRANCH   1  19
BRANCH   5  21
HETATM   21  O   UNL     1     -39.231 -52.040  12.811  1.00  0.00    -0.389 OA
HETATM   22  C   UNL     1     -38.019 -51.405  13.198  1.00  0.00     0.202 C 
ENDBRANCH   5  21
TORSDOF 6
ENDMDL
MODEL 5
REMARK VINA RESULT:      -4.7      2.366      5.787
REMARK  6 active torsions:
REMARK  status: ('A' for Active; 'I' for Inactive)
REMARK    1  A    between atoms: C_2  and  C_3 
REMARK    2  A    between atoms: C_3  and  C_4 
REMARK    3  A    between atoms: C_6  and  N_7 
REMARK       I    between atoms: N_7  and  C_8 
REMARK    4  A    between atoms: C_8  and  C_10 
REMARK    5  A    between atoms: C_10  and  N_11 
REMARK    6  A    between atoms: C_19  and  O_20 
ROOT
HETATM    1  C   UNL     1     -40.320 -52.274  14.546  1.00  0.00     0.006 C 
HETATM    2  C   UNL     1     -41.255 -52.831  13.417  1.00  0.00     0.101 C 
HETATM    3  C   UNL     1     -40.828 -51.679  12.481  1.00  0.00     0.035 C 
HETATM    4  C   UNL     1     -41.730 -50.482  12.213  1.00  0.00     0.015 C 
HETATM    5  C   UNL     1     -39.611 -51.419  13.414  1.00  0.00     0.137 C 
ENDROOT
BRANCH   2   6
HETATM    6  N   UNL     1     -42.706 -52.918  13.696  1.00  0.00    -0.354 N 
HETATM    7  C   UNL     1     -43.224 -54.023  14.344  1.00  0.00     0.237 C 
HETATM    8  O   UNL     1     -42.552 -55.018  14.615  1.00  0.00    -0.272 OA
HETATM    9  H   UNL     1     -43.288 -52.092  13.623  1.00  0.00     0.163 HD
BRANCH   7  10
HETATM   10  C   UNL     1     -44.680 -53.930  14.721  1.00  0.00     0.248 C 
BRANCH  10  11
HETATM   11  N   UNL     1     -45.391 -53.077  13.799  1.00  0.00    -0.277 N 
HETATM   12  C   UNL     1     -46.081 -51.932  14.061  1.00  0.00     0.126 A 
HETATM   13  C   UNL     1     -46.593 -51.571  12.839  1.00  0.00     0.123 A 
HETATM   14  N   UNL     1     -46.212 -52.485  11.898  1.00  0.00    -0.294 N 
HETATM   15  N   UNL     1     -45.472 -53.409  12.498  1.00  0.00    -0.021 NA
ATOM     16  HN  UNL     1     -46.454 -52.462  10.908  1.00  0.00     0.183 HD
ENDBRANCH  10  11
ENDBRANCH   7  10
ENDBRANCH   2   6
BRANCH   1  17
HETATM   17  C   UNL     1     -39.434 -53.404  15.129  1.00  0.00     0.010 C 
HETATM   18  C   UNL     1     -39.317 -54.606  14.200  1.00  0.00     0.006 C 
ENDBRANCH   1  17
BRANCH   1  19
HETATM   19  C   UNL     1     -40.990 -51.408  15.640  1.00  0.00     0.010 C 
HETATM   20  C   UNL     1     -41.215 -52.156  16.949  1.00  0.00     0.006 C 
ENDBRANCH   1  19
BRANCH   5  21
HETATM   21  O   UNL     1     -38.341 -51.926  12.932  1.00  0.00    -0.389 OA
HETATM   22  C   UNL     1     -37.298 -50.970  12.781  1.00  0.00     0.202 C 
ENDBRANCH   5  21
TORSDOF 6
ENDMDL
MODEL 6
REMARK VINA RESULT:      -4.7      1.809      2.206
REMARK  6 active torsions:
REMARK  status: ('A' for Active; 'I' for Inactive)
REMARK    1  A    between atoms: C_2  and  C_3 
REMARK    2  A    between atoms: C_3  and  C_4 
REMARK    3  A    between atoms: C_6  and  N_7 
REMARK       I    between atoms: N_7  and  C_8 
REMARK    4  A    between atoms: C_8  and  C_10 
REMARK    5  A    between atoms: C_10  and  N_11 
REMARK    6  A    between atoms: C_19  and  O_20 
ROOT
HETATM    1  C   UNL     1     -45.000 -53.055  15.194  1.00  0.00     0.006 C 
HETATM    2  C   UNL     1     -43.517 -53.471  14.895  1.00  0.00     0.101 C 
HETATM    3  C   UNL     1     -43.153 -53.282  16.383  1.00  0.00     0.035 C 
HETATM    4  C   UNL     1     -42.387 -52.062  16.877  1.00  0.00     0.015 C 
HETATM    5  C   UNL     1     -44.670 -53.318  16.723  1.00  0.00     0.137 C 
ENDROOT
BRANCH   2   6
HETATM    6  N   UNL     1     -42.743 -52.645  13.941  1.00  0.00    -0.354 N 
HETATM    7  C   UNL     1     -41.950 -53.247  12.983  1.00  0.00     0.237 C 
HETATM    8  O   UNL     1     -41.756 -54.462  12.941  1.00  0.00    -0.272 OA
HETATM    9  H   UNL     1     -42.956 -51.659  13.833  1.00  0.00     0.163 HD
BRANCH   7  10
HETATM   10  C   UNL     1     -41.342 -52.316  11.967  1.00  0.00     0.248 C 
BRANCH  10  11
HETATM   11  N   UNL     1     -40.139 -51.711  12.486  1.00  0.00    -0.277 N 
HETATM   12  C   UNL     1     -39.587 -50.507  12.164  1.00  0.00     0.126 A 
HETATM   13  C   UNL     1     -38.437 -50.464  12.913  1.00  0.00     0.123 A 
HETATM   14  N   UNL     1     -38.326 -51.613  13.644  1.00  0.00    -0.294 N 
HETATM   15  N   UNL     1     -39.379 -52.374  13.376  1.00  0.00    -0.021 NA
ATOM     16  HN  UNL     1     -37.567 -51.844  14.284  1.00  0.00     0.183 HD
ENDBRANCH  10  11
ENDBRANCH   7  10
ENDBRANCH   2   6
BRANCH   1  17
HETATM   17  C   UNL     1     -45.989 -54.077  14.580  1.00  0.00     0.010 C 
HETATM   18  C   UNL     1     -45.294 -55.159  13.763  1.00  0.00     0.006 C 
ENDBRANCH   1  17
BRANCH   1  19
HETATM   19  C   UNL     1     -45.385 -51.587  14.894  1.00  0.00     0.010 C 
HETATM   20  C   UNL     1     -46.888 -51.375  14.744  1.00  0.00     0.006 C 
ENDBRANCH   1  19
BRANCH   5  21
HETATM   21  O   UNL     1     -45.152 -54.569  17.275  1.00  0.00    -0.389 OA
HETATM   22  C   UNL     1     -45.985 -54.470  18.424  1.00  0.00     0.202 C 
ENDBRANCH   5  21
TORSDOF 6
ENDMDL
MODEL 7
REMARK VINA RESULT:      -4.7      3.054      6.205
REMARK  6 active torsions:
REMARK  status: ('A' for Active; 'I' for Inactive)
REMARK    1  A    between atoms: C_2  and  C_3 
REMARK    2  A    between atoms: C_3  and  C_4 
REMARK    3  A    between atoms: C_6  and  N_7 
REMARK       I    between atoms: N_7  and  C_8 
REMARK    4  A    between atoms: C_8  and  C_10 
REMARK    5  A    between atoms: C_10  and  N_11 
REMARK    6  A    between atoms: C_19  and  O_20 
ROOT
HETATM    1  C   UNL     1     -39.989 -49.541  12.695  1.00  0.00     0.006 C 
HETATM    2  C   UNL     1     -41.228 -50.395  12.253  1.00  0.00     0.101 C 
HETATM    3  C   UNL     1     -42.126 -49.140  12.312  1.00  0.00     0.035 C 
HETATM    4  C   UNL     1     -43.093 -48.895  13.463  1.00  0.00     0.015 C 
HETATM    5  C   UNL     1     -40.843 -48.263  12.303  1.00  0.00     0.137 C 
ENDROOT
BRANCH   2   6
HETATM    6  N   UNL     1     -41.645 -51.516  13.124  1.00  0.00    -0.354 N 
HETATM    7  C   UNL     1     -41.156 -52.790  12.900  1.00  0.00     0.237 C 
HETATM    8  O   UNL     1     -40.461 -53.079  11.927  1.00  0.00    -0.272 OA
HETATM    9  H   UNL     1     -42.101 -51.330  14.010  1.00  0.00     0.163 HD
BRANCH   7  10
HETATM   10  C   UNL     1     -41.516 -53.815  13.944  1.00  0.00     0.248 C 
BRANCH  10  11
HETATM   11  N   UNL     1     -42.916 -54.155  13.862  1.00  0.00    -0.277 N 
HETATM   12  C   UNL     1     -43.668 -54.877  14.740  1.00  0.00     0.126 A 
HETATM   13  C   UNL     1     -44.904 -54.933  14.144  1.00  0.00     0.123 A 
HETATM   14  N   UNL     1     -44.866 -54.264  12.954  1.00  0.00    -0.294 N 
HETATM   15  N   UNL     1     -43.639 -53.787  12.789  1.00  0.00    -0.021 NA
ATOM     16  HN  UNL     1     -45.645 -54.150  12.306  1.00  0.00     0.183 HD
ENDBRANCH  10  11
ENDBRANCH   7  10
ENDBRANCH   2   6
BRANCH   1  17
HETATM   17  C   UNL     1     -38.783 -49.803  11.759  1.00  0.00     0.010 C 
HETATM   18  C   UNL     1     -37.718 -50.687  12.396  1.00  0.00     0.006 C 
ENDBRANCH   1  17
BRANCH   1  19
HETATM   19  C   UNL     1     -39.610 -49.589  14.194  1.00  0.00     0.010 C 
HETATM   20  C   UNL     1     -39.361 -48.211  14.799  1.00  0.00     0.006 C 
ENDBRANCH   1  19
BRANCH   5  21
HETATM   21  O   UNL     1     -40.522 -47.647  11.029  1.00  0.00    -0.389 OA
HETATM   22  C   UNL     1     -40.196 -46.263  11.064  1.00  0.00     0.202 C 
ENDBRANCH   5  21
TORSDOF 6
ENDMDL
MODEL 8
REMARK VINA RESULT:      -4.7      4.982      7.777
REMARK  6 active torsions:
REMARK  status: ('A' for Active; 'I' for Inactive)
REMARK    1  A    between atoms: C_2  and  C_3 
REMARK    2  A    between atoms: C_3  and  C_4 
REMARK    3  A    between atoms: C_6  and  N_7 
REMARK       I    between atoms: N_7  and  C_8 
REMARK    4  A    between atoms: C_8  and  C_10 
REMARK    5  A    between atoms: C_10  and  N_11 
REMARK    6  A    between atoms: C_19  and  O_20 
ROOT
HETATM    1  C   UNL     1     -38.956 -49.086  12.965  1.00  0.00     0.006 C 
HETATM    2  C   UNL     1     -40.296 -48.271  12.936  1.00  0.00     0.101 C 
HETATM    3  C   UNL     1     -41.084 -49.532  13.348  1.00  0.00     0.035 C 
HETATM    4  C   UNL     1     -41.907 -50.330  12.345  1.00  0.00     0.015 C 
HETATM    5  C   UNL     1     -39.745 -50.181  13.799  1.00  0.00     0.137 C 
ENDROOT
BRANCH   2   6
HETATM    6  N   UNL     1     -40.706 -47.654  11.655  1.00  0.00    -0.354 N 
HETATM    7  C   UNL     1     -41.561 -46.568  11.648  1.00  0.00     0.237 C 
HETATM    8  O   UNL     1     -42.106 -46.137  12.664  1.00  0.00    -0.272 OA
HETATM    9  H   UNL     1     -40.201 -47.868  10.803  1.00  0.00     0.163 HD
BRANCH   7  10
HETATM   10  C   UNL     1     -41.778 -45.922  10.305  1.00  0.00     0.248 C 
BRANCH  10  11
HETATM   11  N   UNL     1     -43.101 -46.212   9.807  1.00  0.00    -0.277 N 
HETATM   12  C   UNL     1     -43.769 -47.399   9.813  1.00  0.00     0.126 A 
HETATM   13  C   UNL     1     -44.951 -47.113   9.175  1.00  0.00     0.123 A 
HETATM   14  N   UNL     1     -44.964 -45.797   8.809  1.00  0.00    -0.294 N 
HETATM   15  N   UNL     1     -43.821 -45.250   9.203  1.00  0.00    -0.021 NA
ATOM     16  HN  UNL     1     -45.719 -45.319   8.318  1.00  0.00     0.183 HD
ENDBRANCH  10  11
ENDBRANCH   7  10
ENDBRANCH   2   6
BRANCH   1  17
HETATM   17  C   UNL     1     -37.875 -48.333  13.780  1.00  0.00     0.010 C 
HETATM   18  C   UNL     1     -38.346 -46.972  14.277  1.00  0.00     0.006 C 
ENDBRANCH   1  17
BRANCH   1  19
HETATM   19  C   UNL     1     -38.431 -49.610  11.607  1.00  0.00     0.010 C 
HETATM   20  C   UNL     1     -37.289 -50.611  11.746  1.00  0.00     0.006 C 
ENDBRANCH   1  19
BRANCH   5  21
HETATM   21  O   UNL     1     -39.509 -50.186  15.229  1.00  0.00    -0.389 OA
HETATM   22  C   UNL     1     -38.978 -51.387  15.775  1.00  0.00     0.202 C 
ENDBRANCH   5  21
TORSDOF 6
ENDMDL
MODEL 9
REMARK VINA RESULT:      -4.6      1.906      3.260
REMARK  6 active torsions:
REMARK  status: ('A' for Active; 'I' for Inactive)
REMARK    1  A    between atoms: C_2  and  C_3 
REMARK    2  A    between atoms: C_3  and  C_4 
REMARK    3  A    between atoms: C_6  and  N_7 
REMARK       I    between atoms: N_7  and  C_8 
REMARK    4  A    between atoms: C_8  and  C_10 
REMARK    5  A    between atoms: C_10  and  N_11 
REMARK    6  A    between atoms: C_19  and  O_20 
ROOT
HETATM    1  C   UNL     1     -44.015 -52.388  14.588  1.00  0.00     0.006 C 
HETATM    2  C   UNL     1     -42.704 -52.909  13.903  1.00  0.00     0.101 C 
HETATM    3  C   UNL     1     -42.924 -54.307  14.520  1.00  0.00     0.035 C 
HETATM    4  C   UNL     1     -42.125 -54.793  15.721  1.00  0.00     0.015 C 
HETATM    5  C   UNL     1     -44.402 -53.911  14.802  1.00  0.00     0.137 C 
ENDROOT
BRANCH   2   6
HETATM    6  N   UNL     1     -41.426 -52.252  14.258  1.00  0.00    -0.354 N 
HETATM    7  C   UNL     1     -40.293 -52.477  13.499  1.00  0.00     0.237 C 
HETATM    8  O   UNL     1     -40.252 -53.299  12.584  1.00  0.00    -0.272 OA
HETATM    9  H   UNL     1     -41.418 -51.472  14.906  1.00  0.00     0.163 HD
BRANCH   7  10
HETATM   10  C   UNL     1     -39.098 -51.631  13.852  1.00  0.00     0.248 C 
BRANCH  10  11
HETATM   11  N   UNL     1     -38.589 -50.955  12.683  1.00  0.00    -0.277 N 
HETATM   12  C   UNL     1     -37.299 -50.848  12.258  1.00  0.00     0.126 A 
HETATM   13  C   UNL     1     -37.388 -50.063  11.135  1.00  0.00     0.123 A 
HETATM   14  N   UNL     1     -38.693 -49.723  10.920  1.00  0.00    -0.294 N 
HETATM   15  N   UNL     1     -39.426 -50.277  11.877  1.00  0.00    -0.021 NA
ATOM     16  HN  UNL     1     -39.044 -49.144  10.157  1.00  0.00     0.183 HD
ENDBRANCH  10  11
ENDBRANCH   7  10
ENDBRANCH   2   6
BRANCH   1  17
HETATM   17  C   UNL     1     -44.911 -51.649  13.563  1.00  0.00     0.010 C 
HETATM   18  C   UNL     1     -46.311 -51.365  14.094  1.00  0.00     0.006 C 
ENDBRANCH   1  17
BRANCH   1  19
HETATM   19  C   UNL     1     -43.845 -51.606  15.912  1.00  0.00     0.010 C 
HETATM   20  C   UNL     1     -43.607 -50.114  15.708  1.00  0.00     0.006 C 
ENDBRANCH   1  19
BRANCH   5  21
HETATM   21  O   UNL     1     -45.377 -54.458  13.878  1.00  0.00    -0.389 OA
HETATM   22  C   UNL     1     -46.584 -54.945  14.452  1.00  0.00     0.202 C 
ENDBRANCH   5  21
TORSDOF 6
ENDMDL
