MODEL 1
REMARK VINA RESULT:      -6.4      0.000      0.000
REMARK  5 active torsions:
REMARK  status: ('A' for Active; 'I' for Inactive)
REMARK    1  A    between atoms: C_2  and  C_3 
REMARK       I    between atoms: C_2  and  N_16 
REMARK    2  A    between atoms: C_3  and  C_4 
REMARK    3  A    between atoms: C_7  and  N_10 
REMARK    4  A    between atoms: N_16  and  C_17 
REMARK    5  A    between atoms: C_17  and  C_18 
ROOT
HETATM    1  C   UNL     1     -41.626 -49.918  12.057  1.00  0.00     0.026 A 
HETATM    2  C   UNL     1     -40.846 -50.566  12.993  1.00  0.00     0.078 A 
HETATM    3  S   UNL     1     -41.831 -51.435  14.088  1.00  0.00    -0.064 SA
HETATM    4  C   UNL     1     -43.233 -50.908  13.247  1.00  0.00     0.153 A 
HETATM    5  N   UNL     1     -42.994 -50.115  12.227  1.00  0.00    -0.339 N 
ATOM      6  HN  UNL     1     -43.715 -49.699  11.637  1.00  0.00     0.168 HD
ENDROOT
BRANCH   1   7
HETATM    7  C   UNL     1     -41.170 -49.012  10.952  1.00  0.00     0.160 C 
BRANCH   7   8
HETATM    8  C   UNL     1     -42.244 -48.037  10.487  1.00  0.00     0.223 C 
HETATM    9  O   UNL     1     -42.734 -47.186  11.229  1.00  0.00    -0.273 OA
HETATM   10  N   UNL     1     -42.637 -48.192   9.171  1.00  0.00    -0.360 N 
HETATM   11  H   UNL     1     -42.202 -48.909   8.604  1.00  0.00     0.162 HD
BRANCH  10  12
HETATM   12  C   UNL     1     -43.613 -47.324   8.541  1.00  0.00     0.127 C 
BRANCH  12  13
HETATM   13  C   UNL     1     -44.971 -47.633   9.143  1.00  0.00     0.003 C 
HETATM   14  C   UNL     1     -46.011 -48.432   8.303  1.00  0.00     0.006 C 
HETATM   15  C   UNL     1     -47.094 -47.551   8.966  1.00  0.00     0.001 C 
HETATM   16  C   UNL     1     -46.003 -46.467   9.102  1.00  0.00     0.006 C 
ENDBRANCH  12  13
ENDBRANCH  10  12
ENDBRANCH   7   8
ENDBRANCH   1   7
BRANCH   4  17
HETATM   17  N   UNL     1     -44.463 -51.350  13.710  1.00  0.00    -0.298 N 
HETATM   18  C   UNL     1     -45.209 -50.841  14.832  1.00  0.00     0.134 C 
HETATM   19  C   UNL     1     -46.419 -51.740  14.977  1.00  0.00     0.029 C 
HETATM   20  C   UNL     1     -46.501 -52.520  13.680  1.00  0.00     0.105 C 
HETATM   21  C   UNL     1     -45.148 -52.356  13.033  1.00  0.00     0.225 C 
HETATM   22  O   UNL     1     -44.810 -53.019  12.063  1.00  0.00    -0.273 OA
ENDBRANCH   4  17
TORSDOF 5
ENDMDL
MODEL 2
REMARK VINA RESULT:      -5.9      2.541      6.028
REMARK  5 active torsions:
REMARK  status: ('A' for Active; 'I' for Inactive)
REMARK    1  A    between atoms: C_2  and  C_3 
REMARK       I    between atoms: C_2  and  N_16 
REMARK    2  A    between atoms: C_3  and  C_4 
REMARK    3  A    between atoms: C_7  and  N_10 
REMARK    4  A    between atoms: N_16  and  C_17 
REMARK    5  A    between atoms: C_17  and  C_18 
ROOT
HETATM    1  C   UNL     1     -40.871 -51.003  12.155  1.00  0.00     0.026 A 
HETATM    2  C   UNL     1     -40.222 -50.579  13.296  1.00  0.00     0.078 A 
HETATM    3  S   UNL     1     -40.073 -48.875  13.297  1.00  0.00    -0.064 SA
HETATM    4  C   UNL     1     -40.890 -48.803  11.787  1.00  0.00     0.153 A 
HETATM    5  N   UNL     1     -41.235 -49.970  11.294  1.00  0.00    -0.339 N 
ATOM      6  HN  UNL     1     -41.707 -50.103  10.400  1.00  0.00     0.168 HD
ENDROOT
BRANCH   1   7
HETATM    7  C   UNL     1     -41.164 -52.414  11.737  1.00  0.00     0.160 C 
BRANCH   7   8
HETATM    8  C   UNL     1     -42.214 -53.096  12.604  1.00  0.00     0.223 C 
HETATM    9  O   UNL     1     -41.954 -53.578  13.707  1.00  0.00    -0.273 OA
HETATM   10  N   UNL     1     -43.479 -53.149  12.049  1.00  0.00    -0.360 N 
HETATM   11  H   UNL     1     -43.639 -52.739  11.138  1.00  0.00     0.162 HD
BRANCH  10  12
HETATM   12  C   UNL     1     -44.614 -53.718  12.749  1.00  0.00     0.127 C 
BRANCH  12  13
HETATM   13  C   UNL     1     -45.639 -52.617  12.949  1.00  0.00     0.003 C 
HETATM   14  C   UNL     1     -45.226 -51.322  13.709  1.00  0.00     0.006 C 
HETATM   15  C   UNL     1     -46.658 -51.310  14.290  1.00  0.00     0.001 C 
HETATM   16  C   UNL     1     -46.647 -52.844  14.115  1.00  0.00     0.006 C 
ENDBRANCH  12  13
ENDBRANCH  10  12
ENDBRANCH   7   8
ENDBRANCH   1   7
BRANCH   4  17
HETATM   17  N   UNL     1     -41.102 -47.550  11.233  1.00  0.00    -0.298 N 
HETATM   18  C   UNL     1     -40.136 -46.497  11.053  1.00  0.00     0.134 C 
HETATM   19  C   UNL     1     -40.902 -45.308  10.514  1.00  0.00     0.029 C 
HETATM   20  C   UNL     1     -42.237 -45.860  10.058  1.00  0.00     0.105 C 
HETATM   21  C   UNL     1     -42.350 -47.215  10.711  1.00  0.00     0.225 C 
HETATM   22  O   UNL     1     -43.395 -47.850  10.708  1.00  0.00    -0.273 OA
ENDBRANCH   4  17
TORSDOF 5
ENDMDL
MODEL 3
REMARK VINA RESULT:      -5.9      4.301      6.260
REMARK  5 active torsions:
REMARK  status: ('A' for Active; 'I' for Inactive)
REMARK    1  A    between atoms: C_2  and  C_3 
REMARK       I    between atoms: C_2  and  N_16 
REMARK    2  A    between atoms: C_3  and  C_4 
REMARK    3  A    between atoms: C_7  and  N_10 
REMARK    4  A    between atoms: N_16  and  C_17 
REMARK    5  A    between atoms: C_17  and  C_18 
ROOT
HETATM    1  C   UNL     1     -41.726 -52.969  13.292  1.00  0.00     0.026 A 
HETATM    2  C   UNL     1     -40.878 -52.033  13.848  1.00  0.00     0.078 A 
HETATM    3  S   UNL     1     -40.089 -52.686  15.218  1.00  0.00    -0.064 SA
HETATM    4  C   UNL     1     -40.911 -54.175  14.982  1.00  0.00     0.153 A 
HETATM    5  N   UNL     1     -41.741 -54.189  13.965  1.00  0.00    -0.339 N 
ATOM      6  HN  UNL     1     -42.320 -54.987  13.701  1.00  0.00     0.168 HD
ENDROOT
BRANCH   1   7
HETATM    7  C   UNL     1     -42.639 -52.795  12.114  1.00  0.00     0.160 C 
BRANCH   7   8
HETATM    8  C   UNL     1     -44.086 -53.167  12.411  1.00  0.00     0.223 C 
HETATM    9  O   UNL     1     -44.465 -54.333  12.513  1.00  0.00    -0.273 OA
HETATM   10  N   UNL     1     -44.945 -52.092  12.539  1.00  0.00    -0.360 N 
HETATM   11  H   UNL     1     -44.582 -51.151  12.444  1.00  0.00     0.162 HD
BRANCH  10  12
HETATM   12  C   UNL     1     -46.349 -52.249  12.868  1.00  0.00     0.127 C 
BRANCH  12  13
HETATM   13  C   UNL     1     -46.632 -51.429  14.113  1.00  0.00     0.003 C 
HETATM   14  C   UNL     1     -45.446 -51.004  15.029  1.00  0.00     0.006 C 
HETATM   15  C   UNL     1     -46.411 -51.197  16.221  1.00  0.00     0.001 C 
HETATM   16  C   UNL     1     -47.146 -52.234  15.344  1.00  0.00     0.006 C 
ENDBRANCH  12  13
ENDBRANCH  10  12
ENDBRANCH   7   8
ENDBRANCH   1   7
BRANCH   4  17
HETATM   17  N   UNL     1     -40.637 -55.206  15.869  1.00  0.00    -0.298 N 
HETATM   18  C   UNL     1     -39.343 -55.659  16.311  1.00  0.00     0.134 C 
HETATM   19  C   UNL     1     -39.595 -56.873  17.179  1.00  0.00     0.029 C 
HETATM   20  C   UNL     1     -41.077 -56.843  17.497  1.00  0.00     0.105 C 
HETATM   21  C   UNL     1     -41.678 -55.889  16.495  1.00  0.00     0.225 C 
HETATM   22  O   UNL     1     -42.887 -55.782  16.348  1.00  0.00    -0.273 OA
ENDBRANCH   4  17
TORSDOF 5
ENDMDL
MODEL 4
REMARK VINA RESULT:      -5.7      4.135      6.973
REMARK  5 active torsions:
REMARK  status: ('A' for Active; 'I' for Inactive)
REMARK    1  A    between atoms: C_2  and  C_3 
REMARK       I    between atoms: C_2  and  N_16 
REMARK    2  A    between atoms: C_3  and  C_4 
REMARK    3  A    between atoms: C_7  and  N_10 
REMARK    4  A    between atoms: N_16  and  C_17 
REMARK    5  A    between atoms: C_17  and  C_18 
ROOT
HETATM    1  C   UNL     1     -42.471 -53.186  12.777  1.00  0.00     0.026 A 
HETATM    2  C   UNL     1     -41.740 -54.155  13.434  1.00  0.00     0.078 A 
HETATM    3  S   UNL     1     -40.118 -53.648  13.627  1.00  0.00    -0.064 SA
HETATM    4  C   UNL     1     -40.487 -52.167  12.837  1.00  0.00     0.153 A 
HETATM    5  N   UNL     1     -41.731 -52.058  12.431  1.00  0.00    -0.339 N 
ATOM      6  HN  UNL     1     -42.107 -51.253  11.929  1.00  0.00     0.168 HD
ENDROOT
BRANCH   1   7
HETATM    7  C   UNL     1     -43.912 -53.246  12.365  1.00  0.00     0.160 C 
BRANCH   7   8
HETATM    8  C   UNL     1     -44.807 -53.930  13.391  1.00  0.00     0.223 C 
HETATM    9  O   UNL     1     -45.387 -54.991  13.164  1.00  0.00    -0.273 OA
HETATM   10  N   UNL     1     -44.931 -53.256  14.592  1.00  0.00    -0.360 N 
HETATM   11  H   UNL     1     -44.433 -52.385  14.726  1.00  0.00     0.162 HD
BRANCH  10  12
HETATM   12  C   UNL     1     -45.702 -53.778  15.703  1.00  0.00     0.127 C 
BRANCH  12  13
HETATM   13  C   UNL     1     -46.890 -52.859  15.919  1.00  0.00     0.003 C 
HETATM   14  C   UNL     1     -46.867 -51.429  15.302  1.00  0.00     0.006 C 
HETATM   15  C   UNL     1     -47.622 -50.964  16.568  1.00  0.00     0.001 C 
HETATM   16  C   UNL     1     -46.937 -52.138  17.300  1.00  0.00     0.006 C 
ENDBRANCH  12  13
ENDBRANCH  10  12
ENDBRANCH   7   8
ENDBRANCH   1   7
BRANCH   4  17
HETATM   17  N   UNL     1     -39.463 -51.243  12.697  1.00  0.00    -0.298 N 
HETATM   18  C   UNL     1     -38.210 -51.212  13.406  1.00  0.00     0.134 C 
HETATM   19  C   UNL     1     -37.507 -49.945  12.965  1.00  0.00     0.029 C 
HETATM   20  C   UNL     1     -38.245 -49.484  11.725  1.00  0.00     0.105 C 
HETATM   21  C   UNL     1     -39.553 -50.235  11.739  1.00  0.00     0.225 C 
HETATM   22  O   UNL     1     -40.469 -49.954  10.980  1.00  0.00    -0.273 OA
ENDBRANCH   4  17
TORSDOF 5
ENDMDL
MODEL 5
REMARK VINA RESULT:      -5.7      4.061      5.436
REMARK  5 active torsions:
REMARK  status: ('A' for Active; 'I' for Inactive)
REMARK    1  A    between atoms: C_2  and  C_3 
REMARK       I    between atoms: C_2  and  N_16 
REMARK    2  A    between atoms: C_3  and  C_4 
REMARK    3  A    between atoms: C_7  and  N_10 
REMARK    4  A    between atoms: N_16  and  C_17 
REMARK    5  A    between atoms: C_17  and  C_18 
ROOT
HETATM    1  C   UNL     1     -41.156 -53.237  14.922  1.00  0.00     0.026 A 
HETATM    2  C   UNL     1     -41.584 -54.500  15.272  1.00  0.00     0.078 A 
HETATM    3  S   UNL     1     -43.286 -54.611  15.134  1.00  0.00    -0.064 SA
HETATM    4  C   UNL     1     -43.349 -52.978  14.605  1.00  0.00     0.153 A 
HETATM    5  N   UNL     1     -42.185 -52.373  14.554  1.00  0.00    -0.339 N 
ATOM      6  HN  UNL     1     -42.051 -51.399  14.281  1.00  0.00     0.168 HD
ENDROOT
BRANCH   1   7
HETATM    7  C   UNL     1     -39.754 -52.703  14.948  1.00  0.00     0.160 C 
BRANCH   7   8
HETATM    8  C   UNL     1     -39.278 -52.185  13.597  1.00  0.00     0.223 C 
HETATM    9  O   UNL     1     -39.869 -52.431  12.546  1.00  0.00    -0.273 OA
HETATM   10  N   UNL     1     -38.121 -51.431  13.641  1.00  0.00    -0.360 N 
HETATM   11  H   UNL     1     -37.673 -51.260  14.533  1.00  0.00     0.162 HD
BRANCH  10  12
HETATM   12  C   UNL     1     -37.545 -50.816  12.460  1.00  0.00     0.127 C 
BRANCH  12  13
HETATM   13  C   UNL     1     -37.828 -49.327  12.525  1.00  0.00     0.003 C 
HETATM   14  C   UNL     1     -38.275 -48.695  13.877  1.00  0.00     0.006 C 
HETATM   15  C   UNL     1     -39.176 -47.757  13.042  1.00  0.00     0.001 C 
HETATM   16  C   UNL     1     -39.222 -48.885  11.988  1.00  0.00     0.006 C 
ENDBRANCH  12  13
ENDBRANCH  10  12
ENDBRANCH   7   8
ENDBRANCH   1   7
BRANCH   4  17
HETATM   17  N   UNL     1     -44.594 -52.454  14.291  1.00  0.00    -0.298 N 
HETATM   18  C   UNL     1     -45.402 -51.576  15.098  1.00  0.00     0.134 C 
HETATM   19  C   UNL     1     -46.706 -51.396  14.351  1.00  0.00     0.029 C 
HETATM   20  C   UNL     1     -46.439 -51.899  12.946  1.00  0.00     0.105 C 
HETATM   21  C   UNL     1     -45.170 -52.708  13.049  1.00  0.00     0.225 C 
HETATM   22  O   UNL     1     -44.779 -53.417  12.133  1.00  0.00    -0.273 OA
ENDBRANCH   4  17
TORSDOF 5
ENDMDL
MODEL 6
REMARK VINA RESULT:      -5.5      2.886      3.931
REMARK  5 active torsions:
REMARK  status: ('A' for Active; 'I' for Inactive)
REMARK    1  A    between atoms: C_2  and  C_3 
REMARK       I    between atoms: C_2  and  N_16 
REMARK    2  A    between atoms: C_3  and  C_4 
REMARK    3  A    between atoms: C_7  and  N_10 
REMARK    4  A    between atoms: N_16  and  C_17 
REMARK    5  A    between atoms: C_17  and  C_18 
ROOT
HETATM    1  C   UNL     1     -40.916 -50.869  12.044  1.00  0.00     0.026 A 
HETATM    2  C   UNL     1     -40.198 -51.353  13.118  1.00  0.00     0.078 A 
HETATM    3  S   UNL     1     -41.164 -52.416  14.047  1.00  0.00    -0.064 SA
HETATM    4  C   UNL     1     -42.473 -52.178  12.961  1.00  0.00     0.153 A 
HETATM    5  N   UNL     1     -42.224 -51.344  11.978  1.00  0.00    -0.339 N 
ATOM      6  HN  UNL     1     -42.899 -51.078  11.260  1.00  0.00     0.168 HD
ENDROOT
BRANCH   1   7
HETATM    7  C   UNL     1     -40.466 -49.879  11.011  1.00  0.00     0.160 C 
BRANCH   7   8
HETATM    8  C   UNL     1     -41.213 -48.552  11.079  1.00  0.00     0.223 C 
HETATM    9  O   UNL     1     -42.375 -48.464  11.475  1.00  0.00    -0.273 OA
HETATM   10  N   UNL     1     -40.489 -47.457  10.645  1.00  0.00    -0.360 N 
HETATM   11  H   UNL     1     -39.536 -47.586  10.328  1.00  0.00     0.162 HD
BRANCH  10  12
HETATM   12  C   UNL     1     -41.019 -46.108  10.681  1.00  0.00     0.127 C 
BRANCH  12  13
HETATM   13  C   UNL     1     -39.944 -45.200  11.247  1.00  0.00     0.003 C 
HETATM   14  C   UNL     1     -39.540 -45.341  12.745  1.00  0.00     0.006 C 
HETATM   15  C   UNL     1     -39.353 -43.806  12.749  1.00  0.00     0.001 C 
HETATM   16  C   UNL     1     -40.412 -43.763  11.627  1.00  0.00     0.006 C 
ENDBRANCH  12  13
ENDBRANCH  10  12
ENDBRANCH   7   8
ENDBRANCH   1   7
BRANCH   4  17
HETATM   17  N   UNL     1     -43.649 -52.867  13.214  1.00  0.00    -0.298 N 
HETATM   18  C   UNL     1     -43.797 -54.270  13.503  1.00  0.00     0.134 C 
HETATM   19  C   UNL     1     -45.286 -54.530  13.586  1.00  0.00     0.029 C 
HETATM   20  C   UNL     1     -45.929 -53.163  13.702  1.00  0.00     0.105 C 
HETATM   21  C   UNL     1     -44.863 -52.185  13.274  1.00  0.00     0.225 C 
HETATM   22  O   UNL     1     -45.112 -51.007  13.065  1.00  0.00    -0.273 OA
ENDBRANCH   4  17
TORSDOF 5
ENDMDL
MODEL 7
REMARK VINA RESULT:      -5.5      3.415      6.882
REMARK  5 active torsions:
REMARK  status: ('A' for Active; 'I' for Inactive)
REMARK    1  A    between atoms: C_2  and  C_3 
REMARK       I    between atoms: C_2  and  N_16 
REMARK    2  A    between atoms: C_3  and  C_4 
REMARK    3  A    between atoms: C_7  and  N_10 
REMARK    4  A    between atoms: N_16  and  C_17 
REMARK    5  A    between atoms: C_17  and  C_18 
ROOT
HETATM    1  C   UNL     1     -41.657 -48.041  10.631  1.00  0.00     0.026 A 
HETATM    2  C   UNL     1     -42.669 -47.774   9.732  1.00  0.00     0.078 A 
HETATM    3  S   UNL     1     -43.067 -46.110   9.762  1.00  0.00    -0.064 SA
HETATM    4  C   UNL     1     -41.863 -45.844  10.958  1.00  0.00     0.153 A 
HETATM    5  N   UNL     1     -41.217 -46.923  11.335  1.00  0.00    -0.339 N 
ATOM      6  HN  UNL     1     -40.488 -46.940  12.049  1.00  0.00     0.168 HD
ENDROOT
BRANCH   1   7
HETATM    7  C   UNL     1     -41.046 -49.372  10.955  1.00  0.00     0.160 C 
BRANCH   7   8
HETATM    8  C   UNL     1     -41.542 -49.962  12.269  1.00  0.00     0.223 C 
HETATM    9  O   UNL     1     -41.096 -49.617  13.363  1.00  0.00    -0.273 OA
HETATM   10  N   UNL     1     -42.520 -50.930  12.136  1.00  0.00    -0.360 N 
HETATM   11  H   UNL     1     -42.851 -51.178  11.212  1.00  0.00     0.162 HD
BRANCH  10  12
HETATM   12  C   UNL     1     -43.146 -51.569  13.277  1.00  0.00     0.127 C 
BRANCH  12  13
HETATM   13  C   UNL     1     -44.572 -51.062  13.373  1.00  0.00     0.003 C 
HETATM   14  C   UNL     1     -45.313 -51.128  14.742  1.00  0.00     0.006 C 
HETATM   15  C   UNL     1     -46.595 -51.433  13.935  1.00  0.00     0.001 C 
HETATM   16  C   UNL     1     -45.669 -52.043  12.861  1.00  0.00     0.006 C 
ENDBRANCH  12  13
ENDBRANCH  10  12
ENDBRANCH   7   8
ENDBRANCH   1   7
BRANCH   4  17
HETATM   17  N   UNL     1     -41.688 -44.545  11.413  1.00  0.00    -0.298 N 
HETATM   18  C   UNL     1     -42.450 -43.864  12.427  1.00  0.00     0.134 C 
HETATM   19  C   UNL     1     -41.931 -42.442  12.462  1.00  0.00     0.029 C 
HETATM   20  C   UNL     1     -40.620 -42.472  11.701  1.00  0.00     0.105 C 
HETATM   21  C   UNL     1     -40.640 -43.766  10.927  1.00  0.00     0.225 C 
HETATM   22  O   UNL     1     -39.816 -44.014  10.058  1.00  0.00    -0.273 OA
ENDBRANCH   4  17
TORSDOF 5
ENDMDL
MODEL 8
REMARK VINA RESULT:      -5.5      4.613      6.700
REMARK  5 active torsions:
REMARK  status: ('A' for Active; 'I' for Inactive)
REMARK    1  A    between atoms: C_2  and  C_3 
REMARK       I    between atoms: C_2  and  N_16 
REMARK    2  A    between atoms: C_3  and  C_4 
REMARK    3  A    between atoms: C_7  and  N_10 
REMARK    4  A    between atoms: N_16  and  C_17 
REMARK    5  A    between atoms: C_17  and  C_18 
ROOT
HETATM    1  C   UNL     1     -42.519 -53.877  15.104  1.00  0.00     0.026 A 
HETATM    2  C   UNL     1     -42.755 -53.236  16.303  1.00  0.00     0.078 A 
HETATM    3  S   UNL     1     -41.548 -52.060  16.595  1.00  0.00    -0.064 SA
HETATM    4  C   UNL     1     -40.793 -52.465  15.106  1.00  0.00     0.153 A 
HETATM    5  N   UNL     1     -41.381 -53.430  14.438  1.00  0.00    -0.339 N 
ATOM      6  HN  UNL     1     -41.049 -53.803  13.548  1.00  0.00     0.168 HD
ENDROOT
BRANCH   1   7
HETATM    7  C   UNL     1     -43.303 -55.002  14.496  1.00  0.00     0.160 C 
BRANCH   7   8
HETATM    8  C   UNL     1     -44.691 -54.586  14.024  1.00  0.00     0.223 C 
HETATM    9  O   UNL     1     -45.678 -55.312  14.143  1.00  0.00    -0.273 OA
HETATM   10  N   UNL     1     -44.753 -53.337  13.435  1.00  0.00    -0.360 N 
HETATM   11  H   UNL     1     -43.910 -52.781  13.361  1.00  0.00     0.162 HD
BRANCH  10  12
HETATM   12  C   UNL     1     -45.996 -52.755  12.969  1.00  0.00     0.127 C 
BRANCH  12  13
HETATM   13  C   UNL     1     -46.432 -51.713  13.982  1.00  0.00     0.003 C 
HETATM   14  C   UNL     1     -45.379 -51.120  14.965  1.00  0.00     0.006 C 
HETATM   15  C   UNL     1     -46.510 -51.083  16.018  1.00  0.00     0.001 C 
HETATM   16  C   UNL     1     -47.139 -52.269  15.254  1.00  0.00     0.006 C 
ENDBRANCH  12  13
ENDBRANCH  10  12
ENDBRANCH   7   8
ENDBRANCH   1   7
BRANCH   4  17
HETATM   17  N   UNL     1     -39.653 -51.758  14.753  1.00  0.00    -0.298 N 
HETATM   18  C   UNL     1     -38.747 -51.063  15.631  1.00  0.00     0.134 C 
HETATM   19  C   UNL     1     -37.742 -50.368  14.737  1.00  0.00     0.029 C 
HETATM   20  C   UNL     1     -37.906 -51.006  13.372  1.00  0.00     0.105 C 
HETATM   21  C   UNL     1     -39.235 -51.719  13.424  1.00  0.00     0.225 C 
HETATM   22  O   UNL     1     -39.764 -52.177  12.422  1.00  0.00    -0.273 OA
ENDBRANCH   4  17
TORSDOF 5
ENDMDL
MODEL 9
REMARK VINA RESULT:      -5.4      4.275      7.039
REMARK  5 active torsions:
REMARK  status: ('A' for Active; 'I' for Inactive)
REMARK    1  A    between atoms: C_2  and  C_3 
REMARK       I    between atoms: C_2  and  N_16 
REMARK    2  A    between atoms: C_3  and  C_4 
REMARK    3  A    between atoms: C_7  and  N_10 
REMARK    4  A    between atoms: N_16  and  C_17 
REMARK    5  A    between atoms: C_17  and  C_18 
ROOT
HETATM    1  C   UNL     1     -41.372 -53.525  14.143  1.00  0.00     0.026 A 
HETATM    2  C   UNL     1     -41.878 -53.592  12.861  1.00  0.00     0.078 A 
HETATM    3  S   UNL     1     -41.324 -52.267  11.933  1.00  0.00    -0.064 SA
HETATM    4  C   UNL     1     -40.436 -51.691  13.286  1.00  0.00     0.153 A 
HETATM    5  N   UNL     1     -40.556 -52.420  14.371  1.00  0.00    -0.339 N 
ATOM      6  HN  UNL     1     -40.111 -52.205  15.264  1.00  0.00     0.168 HD
ENDROOT
BRANCH   1   7
HETATM    7  C   UNL     1     -41.644 -54.457  15.286  1.00  0.00     0.160 C 
BRANCH   7   8
HETATM    8  C   UNL     1     -43.111 -54.848  15.412  1.00  0.00     0.223 C 
HETATM    9  O   UNL     1     -43.511 -55.996  15.223  1.00  0.00    -0.273 OA
HETATM   10  N   UNL     1     -43.962 -53.808  15.739  1.00  0.00    -0.360 N 
HETATM   11  H   UNL     1     -43.580 -52.881  15.882  1.00  0.00     0.162 HD
BRANCH  10  12
HETATM   12  C   UNL     1     -45.384 -54.000  15.948  1.00  0.00     0.127 C 
BRANCH  12  13
HETATM   13  C   UNL     1     -46.121 -53.253  14.853  1.00  0.00     0.003 C 
HETATM   14  C   UNL     1     -45.317 -52.340  13.880  1.00  0.00     0.006 C 
HETATM   15  C   UNL     1     -46.543 -51.398  13.889  1.00  0.00     0.001 C 
HETATM   16  C   UNL     1     -46.843 -51.947  15.301  1.00  0.00     0.006 C 
ENDBRANCH  12  13
ENDBRANCH  10  12
ENDBRANCH   7   8
ENDBRANCH   1   7
BRANCH   4  17
HETATM   17  N   UNL     1     -39.692 -50.532  13.118  1.00  0.00    -0.298 N 
HETATM   18  C   UNL     1     -40.170 -49.174  13.150  1.00  0.00     0.134 C 
HETATM   19  C   UNL     1     -38.984 -48.300  12.800  1.00  0.00     0.029 C 
HETATM   20  C   UNL     1     -37.768 -49.194  12.941  1.00  0.00     0.105 C 
HETATM   21  C   UNL     1     -38.310 -50.602  12.955  1.00  0.00     0.225 C 
HETATM   22  O   UNL     1     -37.580 -51.578  12.863  1.00  0.00    -0.273 OA
ENDBRANCH   4  17
TORSDOF 5
ENDMDL
