MODEL 1
REMARK VINA RESULT:      -6.3      0.000      0.000
REMARK  4 active torsions:
REMARK  status: ('A' for Active; 'I' for Inactive)
REMARK    1  A    between atoms: C_8  and  N_9 
REMARK       I    between atoms: N_9  and  C_10 
REMARK       I    between atoms: C_10  and  N_12 
REMARK    2  A    between atoms: N_12  and  C_13 
REMARK    3  A    between atoms: C_13  and  C_14 
REMARK    4  A    between atoms: C_14  and  C_18 
ROOT
HETATM    1  N   UNL     1     -41.840 -49.490  11.147  1.00  0.00    -0.306 N 
HETATM    2  C   UNL     1     -42.329 -49.896  12.365  1.00  0.00     0.320 C 
HETATM    3  O   UNL     1     -42.634 -49.148  13.292  1.00  0.00    -0.247 OA
HETATM    4  N   UNL     1     -42.481 -51.253  12.471  1.00  0.00    -0.342 N 
HETATM    5  H   UNL     1     -41.925 -50.135  10.372  1.00  0.00     0.171 HD
HETATM    6  H   UNL     1     -42.075 -51.858  11.772  1.00  0.00     0.164 HD
ENDROOT
BRANCH   1   7
HETATM    7  C   UNL     1     -41.529 -48.144  10.827  1.00  0.00     0.077 A 
HETATM    8  C   UNL     1     -42.466 -47.375  10.140  1.00  0.00     0.158 A 
HETATM    9  F   UNL     1     -43.646 -47.896   9.774  1.00  0.00    -0.202 F 
HETATM   10  C   UNL     1     -42.170 -46.051   9.861  1.00  0.00     0.132 A 
HETATM   11  N   UNL     1     -41.006 -45.448  10.204  1.00  0.00    -0.372 N 
HETATM   12  C   UNL     1     -40.103 -46.218  10.851  1.00  0.00     0.090 A 
ATOM     13  HN  UNL     1     -40.822 -44.468   9.986  1.00  0.00     0.164 HD
HETATM   14  C   UNL     1     -40.315 -47.549  11.167  1.00  0.00     0.050 A 
ENDBRANCH   1   7
BRANCH   4  15
HETATM   15  C   UNL     1     -42.923 -51.825  13.729  1.00  0.00     0.134 C 
BRANCH  15  16
HETATM   16  C   UNL     1     -44.279 -52.553  13.567  1.00  0.00    -0.021 C 
HETATM   17  C   UNL     1     -44.445 -53.661  14.663  1.00  0.00     0.011 C 
HETATM   18  C   UNL     1     -45.126 -54.552  13.612  1.00  0.00     0.002 C 
HETATM   19  C   UNL     1     -44.409 -53.736  12.521  1.00  0.00     0.011 C 
BRANCH  16  20
HETATM   20  C   UNL     1     -45.391 -51.494  13.405  1.00  0.00    -0.004 A 
HETATM   21  C   UNL     1     -46.647 -51.471  14.232  1.00  0.00     0.006 A 
HETATM   22  C   UNL     1     -46.728 -51.715  12.752  1.00  0.00     0.006 A 
ENDBRANCH  16  20
ENDBRANCH  15  16
ENDBRANCH   4  15
TORSDOF 4
ENDMDL
MODEL 2
REMARK VINA RESULT:      -6.2      2.749      7.117
REMARK  4 active torsions:
REMARK  status: ('A' for Active; 'I' for Inactive)
REMARK    1  A    between atoms: C_8  and  N_9 
REMARK       I    between atoms: N_9  and  C_10 
REMARK       I    between atoms: C_10  and  N_12 
REMARK    2  A    between atoms: N_12  and  C_13 
REMARK    3  A    between atoms: C_13  and  C_14 
REMARK    4  A    between atoms: C_14  and  C_18 
ROOT
HETATM    1  N   UNL     1     -43.531 -52.713  12.139  1.00  0.00    -0.306 N 
HETATM    2  C   UNL     1     -42.282 -52.452  12.648  1.00  0.00     0.320 C 
HETATM    3  O   UNL     1     -41.911 -52.720  13.789  1.00  0.00    -0.247 OA
HETATM    4  N   UNL     1     -41.433 -51.865  11.748  1.00  0.00    -0.342 N 
HETATM    5  H   UNL     1     -43.626 -52.747  11.132  1.00  0.00     0.171 HD
HETATM    6  H   UNL     1     -41.798 -51.503  10.879  1.00  0.00     0.164 HD
ENDROOT
BRANCH   1   7
HETATM    7  C   UNL     1     -44.601 -53.247  12.900  1.00  0.00     0.077 A 
HETATM    8  C   UNL     1     -45.620 -52.400  13.328  1.00  0.00     0.158 A 
HETATM    9  F   UNL     1     -45.592 -51.091  13.037  1.00  0.00    -0.202 F 
HETATM   10  C   UNL     1     -46.681 -52.934  14.040  1.00  0.00     0.132 A 
HETATM   11  N   UNL     1     -46.789 -54.245  14.367  1.00  0.00    -0.372 N 
HETATM   12  C   UNL     1     -45.779 -55.046  13.960  1.00  0.00     0.090 A 
ATOM     13  HN  UNL     1     -47.586 -54.606  14.890  1.00  0.00     0.164 HD
HETATM   14  C   UNL     1     -44.680 -54.596  13.247  1.00  0.00     0.050 A 
ENDBRANCH   1   7
BRANCH   4  15
HETATM   15  C   UNL     1     -40.104 -51.470  12.174  1.00  0.00     0.134 C 
BRANCH  15  16
HETATM   16  C   UNL     1     -39.934 -49.932  12.127  1.00  0.00    -0.021 C 
HETATM   17  C   UNL     1     -40.895 -49.240  13.155  1.00  0.00     0.011 C 
HETATM   18  C   UNL     1     -41.120 -48.113  12.134  1.00  0.00     0.002 C 
HETATM   19  C   UNL     1     -40.705 -49.096  11.024  1.00  0.00     0.011 C 
BRANCH  16  20
HETATM   20  C   UNL     1     -38.427 -49.600  12.177  1.00  0.00    -0.004 A 
HETATM   21  C   UNL     1     -37.459 -49.947  11.079  1.00  0.00     0.006 A 
HETATM   22  C   UNL     1     -37.317 -50.581  12.433  1.00  0.00     0.006 A 
ENDBRANCH  16  20
ENDBRANCH  15  16
ENDBRANCH   4  15
TORSDOF 4
ENDMDL
MODEL 3
REMARK VINA RESULT:      -6.1      0.688      1.981
REMARK  4 active torsions:
REMARK  status: ('A' for Active; 'I' for Inactive)
REMARK    1  A    between atoms: C_8  and  N_9 
REMARK       I    between atoms: N_9  and  C_10 
REMARK       I    between atoms: C_10  and  N_12 
REMARK    2  A    between atoms: N_12  and  C_13 
REMARK    3  A    between atoms: C_13  and  C_14 
REMARK    4  A    between atoms: C_14  and  C_18 
ROOT
HETATM    1  N   UNL     1     -42.339 -49.482  11.427  1.00  0.00    -0.306 N 
HETATM    2  C   UNL     1     -42.726 -49.783  12.710  1.00  0.00     0.320 C 
HETATM    3  O   UNL     1     -42.822 -48.973  13.630  1.00  0.00    -0.247 OA
HETATM    4  N   UNL     1     -43.031 -51.105  12.897  1.00  0.00    -0.342 N 
HETATM    5  H   UNL     1     -42.596 -50.136  10.698  1.00  0.00     0.171 HD
HETATM    6  H   UNL     1     -42.790 -51.780  12.185  1.00  0.00     0.164 HD
ENDROOT
BRANCH   1   7
HETATM    7  C   UNL     1     -41.904 -48.199  11.011  1.00  0.00     0.077 A 
HETATM    8  C   UNL     1     -42.788 -47.372  10.321  1.00  0.00     0.158 A 
HETATM    9  F   UNL     1     -44.034 -47.780  10.043  1.00  0.00    -0.202 F 
HETATM   10  C   UNL     1     -42.368 -46.106   9.948  1.00  0.00     0.132 A 
HETATM   11  N   UNL     1     -41.130 -45.615  10.200  1.00  0.00    -0.372 N 
HETATM   12  C   UNL     1     -40.282 -46.442  10.851  1.00  0.00     0.090 A 
ATOM     13  HN  UNL     1     -40.855 -44.675   9.914  1.00  0.00     0.164 HD
HETATM   14  C   UNL     1     -40.617 -47.722  11.258  1.00  0.00     0.050 A 
ENDBRANCH   1   7
BRANCH   4  15
HETATM   15  C   UNL     1     -43.387 -51.575  14.222  1.00  0.00     0.134 C 
BRANCH  15  16
HETATM   16  C   UNL     1     -44.840 -52.110  14.255  1.00  0.00    -0.021 C 
HETATM   17  C   UNL     1     -45.601 -51.719  12.941  1.00  0.00     0.011 C 
HETATM   18  C   UNL     1     -46.866 -51.490  13.783  1.00  0.00     0.002 C 
HETATM   19  C   UNL     1     -45.960 -51.281  15.009  1.00  0.00     0.011 C 
BRANCH  16  20
HETATM   20  C   UNL     1     -44.810 -53.593  14.684  1.00  0.00    -0.004 A 
HETATM   21  C   UNL     1     -43.971 -54.641  14.006  1.00  0.00     0.006 A 
HETATM   22  C   UNL     1     -45.470 -54.732  13.958  1.00  0.00     0.006 A 
ENDBRANCH  16  20
ENDBRANCH  15  16
ENDBRANCH   4  15
TORSDOF 4
ENDMDL
MODEL 4
REMARK VINA RESULT:      -6.0      3.165      7.038
REMARK  4 active torsions:
REMARK  status: ('A' for Active; 'I' for Inactive)
REMARK    1  A    between atoms: C_8  and  N_9 
REMARK       I    between atoms: N_9  and  C_10 
REMARK       I    between atoms: C_10  and  N_12 
REMARK    2  A    between atoms: N_12  and  C_13 
REMARK    3  A    between atoms: C_13  and  C_14 
REMARK    4  A    between atoms: C_14  and  C_18 
ROOT
HETATM    1  N   UNL     1     -42.350 -52.544  11.851  1.00  0.00    -0.306 N 
HETATM    2  C   UNL     1     -41.796 -51.322  12.146  1.00  0.00     0.320 C 
HETATM    3  O   UNL     1     -42.072 -50.637  13.128  1.00  0.00    -0.247 OA
HETATM    4  N   UNL     1     -40.857 -50.911  11.237  1.00  0.00    -0.342 N 
HETATM    5  H   UNL     1     -41.838 -53.148  11.219  1.00  0.00     0.171 HD
HETATM    6  H   UNL     1     -40.762 -51.399  10.358  1.00  0.00     0.164 HD
ENDROOT
BRANCH   1   7
HETATM    7  C   UNL     1     -43.394 -53.142  12.600  1.00  0.00     0.077 A 
HETATM    8  C   UNL     1     -43.081 -54.117  13.545  1.00  0.00     0.158 A 
HETATM    9  F   UNL     1     -41.811 -54.497  13.744  1.00  0.00    -0.202 F 
HETATM   10  C   UNL     1     -44.103 -54.672  14.298  1.00  0.00     0.132 A 
HETATM   11  N   UNL     1     -45.409 -54.336  14.165  1.00  0.00    -0.372 N 
HETATM   12  C   UNL     1     -45.692 -53.405  13.228  1.00  0.00     0.090 A 
ATOM     13  HN  UNL     1     -46.136 -54.762  14.739  1.00  0.00     0.164 HD
HETATM   14  C   UNL     1     -44.735 -52.801  12.430  1.00  0.00     0.050 A 
ENDBRANCH   1   7
BRANCH   4  15
HETATM   15  C   UNL     1     -40.242 -49.606  11.388  1.00  0.00     0.134 C 
BRANCH  15  16
HETATM   16  C   UNL     1     -38.936 -49.695  12.215  1.00  0.00    -0.021 C 
HETATM   17  C   UNL     1     -37.706 -49.950  11.277  1.00  0.00     0.011 C 
HETATM   18  C   UNL     1     -37.117 -50.873  12.356  1.00  0.00     0.002 C 
HETATM   19  C   UNL     1     -38.542 -51.065  12.906  1.00  0.00     0.011 C 
BRANCH  16  20
HETATM   20  C   UNL     1     -38.889 -48.502  13.194  1.00  0.00    -0.004 A 
HETATM   21  C   UNL     1     -39.562 -48.500  14.539  1.00  0.00     0.006 A 
HETATM   22  C   UNL     1     -40.016 -47.546  13.472  1.00  0.00     0.006 A 
ENDBRANCH  16  20
ENDBRANCH  15  16
ENDBRANCH   4  15
TORSDOF 4
ENDMDL
MODEL 5
REMARK VINA RESULT:      -5.9      2.407      7.143
REMARK  4 active torsions:
REMARK  status: ('A' for Active; 'I' for Inactive)
REMARK    1  A    between atoms: C_8  and  N_9 
REMARK       I    between atoms: N_9  and  C_10 
REMARK       I    between atoms: C_10  and  N_12 
REMARK    2  A    between atoms: N_12  and  C_13 
REMARK    3  A    between atoms: C_13  and  C_14 
REMARK    4  A    between atoms: C_14  and  C_18 
ROOT
HETATM    1  N   UNL     1     -44.716 -51.461  12.558  1.00  0.00    -0.306 N 
HETATM    2  C   UNL     1     -43.932 -50.515  13.172  1.00  0.00     0.320 C 
HETATM    3  O   UNL     1     -43.591 -50.534  14.353  1.00  0.00    -0.247 OA
HETATM    4  N   UNL     1     -43.520 -49.513  12.332  1.00  0.00    -0.342 N 
HETATM    5  H   UNL     1     -44.670 -51.520  11.548  1.00  0.00     0.171 HD
HETATM    6  H   UNL     1     -43.940 -49.422  11.419  1.00  0.00     0.164 HD
ENDROOT
BRANCH   1   7
HETATM    7  C   UNL     1     -45.321 -52.549  13.234  1.00  0.00     0.077 A 
HETATM    8  C   UNL     1     -46.471 -52.326  13.989  1.00  0.00     0.158 A 
HETATM    9  F   UNL     1     -47.000 -51.098  14.086  1.00  0.00    -0.202 F 
HETATM   10  C   UNL     1     -47.078 -53.400  14.618  1.00  0.00     0.132 A 
HETATM   11  N   UNL     1     -46.613 -54.671  14.562  1.00  0.00    -0.372 N 
HETATM   12  C   UNL     1     -45.485 -54.862  13.842  1.00  0.00     0.090 A 
ATOM     13  HN  UNL     1     -47.087 -55.440  15.035  1.00  0.00     0.164 HD
HETATM   14  C   UNL     1     -44.812 -53.846  13.184  1.00  0.00     0.050 A 
ENDBRANCH   1   7
BRANCH   4  15
HETATM   15  C   UNL     1     -42.744 -48.410  12.866  1.00  0.00     0.134 C 
BRANCH  15  16
HETATM   16  C   UNL     1     -42.274 -47.459  11.739  1.00  0.00    -0.021 C 
HETATM   17  C   UNL     1     -40.814 -47.814  11.290  1.00  0.00     0.011 C 
HETATM   18  C   UNL     1     -40.535 -46.312  11.128  1.00  0.00     0.002 C 
HETATM   19  C   UNL     1     -41.686 -46.036  12.112  1.00  0.00     0.011 C 
BRANCH  16  20
HETATM   20  C   UNL     1     -43.382 -47.380  10.666  1.00  0.00    -0.004 A 
HETATM   21  C   UNL     1     -43.162 -47.704   9.214  1.00  0.00     0.006 A 
HETATM   22  C   UNL     1     -43.523 -46.304   9.625  1.00  0.00     0.006 A 
ENDBRANCH  16  20
ENDBRANCH  15  16
ENDBRANCH   4  15
TORSDOF 4
ENDMDL
MODEL 6
REMARK VINA RESULT:      -5.8      2.391      7.192
REMARK  4 active torsions:
REMARK  status: ('A' for Active; 'I' for Inactive)
REMARK    1  A    between atoms: C_8  and  N_9 
REMARK       I    between atoms: N_9  and  C_10 
REMARK       I    between atoms: C_10  and  N_12 
REMARK    2  A    between atoms: N_12  and  C_13 
REMARK    3  A    between atoms: C_13  and  C_14 
REMARK    4  A    between atoms: C_14  and  C_18 
ROOT
HETATM    1  N   UNL     1     -44.522 -51.603  12.582  1.00  0.00    -0.306 N 
HETATM    2  C   UNL     1     -43.592 -50.795  13.190  1.00  0.00     0.320 C 
HETATM    3  O   UNL     1     -43.170 -50.936  14.336  1.00  0.00    -0.247 OA
HETATM    4  N   UNL     1     -43.132 -49.786  12.386  1.00  0.00    -0.342 N 
HETATM    5  H   UNL     1     -44.558 -51.593  11.571  1.00  0.00     0.171 HD
HETATM    6  H   UNL     1     -43.604 -49.583  11.517  1.00  0.00     0.164 HD
ENDROOT
BRANCH   1   7
HETATM    7  C   UNL     1     -45.197 -52.665  13.235  1.00  0.00     0.077 A 
HETATM    8  C   UNL     1     -46.346 -52.389  13.972  1.00  0.00     0.158 A 
HETATM    9  F   UNL     1     -46.810 -51.135  14.076  1.00  0.00    -0.202 F 
HETATM   10  C   UNL     1     -47.021 -53.436  14.578  1.00  0.00     0.132 A 
HETATM   11  N   UNL     1     -46.623 -54.730  14.514  1.00  0.00    -0.372 N 
HETATM   12  C   UNL     1     -45.494 -54.972  13.812  1.00  0.00     0.090 A 
ATOM     13  HN  UNL     1     -47.146 -55.478  14.969  1.00  0.00     0.164 HD
HETATM   14  C   UNL     1     -44.756 -53.986  13.177  1.00  0.00     0.050 A 
ENDBRANCH   1   7
BRANCH   4  15
HETATM   15  C   UNL     1     -42.197 -48.815  12.924  1.00  0.00     0.134 C 
BRANCH  15  16
HETATM   16  C   UNL     1     -41.732 -47.821  11.833  1.00  0.00    -0.021 C 
HETATM   17  C   UNL     1     -42.716 -46.604  11.740  1.00  0.00     0.011 C 
HETATM   18  C   UNL     1     -42.529 -46.614  10.214  1.00  0.00     0.002 C 
HETATM   19  C   UNL     1     -42.112 -48.092  10.318  1.00  0.00     0.011 C 
BRANCH  16  20
HETATM   20  C   UNL     1     -40.225 -47.546  12.026  1.00  0.00    -0.004 A 
HETATM   21  C   UNL     1     -39.156 -48.588  11.842  1.00  0.00     0.006 A 
HETATM   22  C   UNL     1     -39.393 -47.987  13.198  1.00  0.00     0.006 A 
ENDBRANCH  16  20
ENDBRANCH  15  16
ENDBRANCH   4  15
TORSDOF 4
ENDMDL
MODEL 7
REMARK VINA RESULT:      -5.7      2.432      6.980
REMARK  4 active torsions:
REMARK  status: ('A' for Active; 'I' for Inactive)
REMARK    1  A    between atoms: C_8  and  N_9 
REMARK       I    between atoms: N_9  and  C_10 
REMARK       I    between atoms: C_10  and  N_12 
REMARK    2  A    between atoms: N_12  and  C_13 
REMARK    3  A    between atoms: C_13  and  C_14 
REMARK    4  A    between atoms: C_14  and  C_18 
ROOT
HETATM    1  N   UNL     1     -44.385 -51.743  12.546  1.00  0.00    -0.306 N 
HETATM    2  C   UNL     1     -43.536 -50.863  13.172  1.00  0.00     0.320 C 
HETATM    3  O   UNL     1     -43.237 -50.892  14.364  1.00  0.00    -0.247 OA
HETATM    4  N   UNL     1     -43.005 -49.920  12.332  1.00  0.00    -0.342 N 
HETATM    5  H   UNL     1     -44.312 -51.825  11.540  1.00  0.00     0.171 HD
HETATM    6  H   UNL     1     -43.384 -49.806  11.404  1.00  0.00     0.164 HD
ENDROOT
BRANCH   1   7
HETATM    7  C   UNL     1     -45.111 -52.758  13.218  1.00  0.00     0.077 A 
HETATM    8  C   UNL     1     -46.252 -52.413  13.939  1.00  0.00     0.158 A 
HETATM    9  F   UNL     1     -46.660 -51.137  14.009  1.00  0.00    -0.202 F 
HETATM   10  C   UNL     1     -46.978 -53.413  14.564  1.00  0.00     0.132 A 
HETATM   11  N   UNL     1     -46.639 -54.725  14.534  1.00  0.00    -0.372 N 
HETATM   12  C   UNL     1     -45.517 -55.035  13.847  1.00  0.00     0.090 A 
ATOM     13  HN  UNL     1     -47.198 -55.437  15.002  1.00  0.00     0.164 HD
HETATM   14  C   UNL     1     -44.731 -54.099  13.195  1.00  0.00     0.050 A 
ENDBRANCH   1   7
BRANCH   4  15
HETATM   15  C   UNL     1     -42.146 -48.884  12.876  1.00  0.00     0.134 C 
BRANCH  15  16
HETATM   16  C   UNL     1     -40.864 -48.717  12.025  1.00  0.00    -0.021 C 
HETATM   17  C   UNL     1     -40.395 -50.101  11.456  1.00  0.00     0.011 C 
HETATM   18  C   UNL     1     -38.940 -49.665  11.687  1.00  0.00     0.002 C 
HETATM   19  C   UNL     1     -39.452 -48.668  12.742  1.00  0.00     0.011 C 
BRANCH  16  20
HETATM   20  C   UNL     1     -41.072 -47.543  11.044  1.00  0.00    -0.004 A 
HETATM   21  C   UNL     1     -40.918 -46.097  11.430  1.00  0.00     0.006 A 
HETATM   22  C   UNL     1     -42.262 -46.624  11.011  1.00  0.00     0.006 A 
ENDBRANCH  16  20
ENDBRANCH  15  16
ENDBRANCH   4  15
TORSDOF 4
ENDMDL
MODEL 8
REMARK VINA RESULT:      -5.7      2.890      7.246
REMARK  4 active torsions:
REMARK  status: ('A' for Active; 'I' for Inactive)
REMARK    1  A    between atoms: C_8  and  N_9 
REMARK       I    between atoms: N_9  and  C_10 
REMARK       I    between atoms: C_10  and  N_12 
REMARK    2  A    between atoms: N_12  and  C_13 
REMARK    3  A    between atoms: C_13  and  C_14 
REMARK    4  A    between atoms: C_14  and  C_18 
ROOT
HETATM    1  N   UNL     1     -43.354 -51.498  12.696  1.00  0.00    -0.306 N 
HETATM    2  C   UNL     1     -42.206 -51.323  13.430  1.00  0.00     0.320 C 
HETATM    3  O   UNL     1     -41.998 -51.795  14.546  1.00  0.00    -0.247 OA
HETATM    4  N   UNL     1     -41.256 -50.569  12.792  1.00  0.00    -0.342 N 
HETATM    5  H   UNL     1     -43.296 -51.345  11.697  1.00  0.00     0.171 HD
HETATM    6  H   UNL     1     -41.501 -50.056  11.959  1.00  0.00     0.164 HD
ENDROOT
BRANCH   1   7
HETATM    7  C   UNL     1     -44.504 -52.175  13.173  1.00  0.00     0.077 A 
HETATM    8  C   UNL     1     -44.539 -53.568  13.131  1.00  0.00     0.158 A 
HETATM    9  F   UNL     1     -43.505 -54.265  12.638  1.00  0.00    -0.202 F 
HETATM   10  C   UNL     1     -45.651 -54.225  13.632  1.00  0.00     0.132 A 
HETATM   11  N   UNL     1     -46.730 -53.595  14.154  1.00  0.00    -0.372 N 
HETATM   12  C   UNL     1     -46.684 -52.244  14.165  1.00  0.00     0.090 A 
ATOM     13  HN  UNL     1     -47.532 -54.110  14.518  1.00  0.00     0.164 HD
HETATM   14  C   UNL     1     -45.615 -51.507  13.684  1.00  0.00     0.050 A 
ENDBRANCH   1   7
BRANCH   4  15
HETATM   15  C   UNL     1     -40.021 -50.247  13.482  1.00  0.00     0.134 C 
BRANCH  15  16
HETATM   16  C   UNL     1     -39.322 -49.025  12.837  1.00  0.00    -0.021 C 
HETATM   17  C   UNL     1     -39.586 -47.731  13.681  1.00  0.00     0.011 C 
HETATM   18  C   UNL     1     -39.690 -46.937  12.369  1.00  0.00     0.002 C 
HETATM   19  C   UNL     1     -40.036 -48.254  11.652  1.00  0.00     0.011 C 
BRANCH  16  20
HETATM   20  C   UNL     1     -37.865 -49.410  12.501  1.00  0.00    -0.004 A 
HETATM   21  C   UNL     1     -37.429 -49.940  11.163  1.00  0.00     0.006 A 
HETATM   22  C   UNL     1     -37.329 -50.810  12.383  1.00  0.00     0.006 A 
ENDBRANCH  16  20
ENDBRANCH  15  16
ENDBRANCH   4  15
TORSDOF 4
ENDMDL
MODEL 9
REMARK VINA RESULT:      -5.6      1.456      1.807
REMARK  4 active torsions:
REMARK  status: ('A' for Active; 'I' for Inactive)
REMARK    1  A    between atoms: C_8  and  N_9 
REMARK       I    between atoms: N_9  and  C_10 
REMARK       I    between atoms: C_10  and  N_12 
REMARK    2  A    between atoms: N_12  and  C_13 
REMARK    3  A    between atoms: C_13  and  C_14 
REMARK    4  A    between atoms: C_14  and  C_18 
ROOT
HETATM    1  N   UNL     1     -42.734 -48.533  12.939  1.00  0.00    -0.306 N 
HETATM    2  C   UNL     1     -42.520 -49.890  12.946  1.00  0.00     0.320 C 
HETATM    3  O   UNL     1     -41.910 -50.516  12.082  1.00  0.00    -0.247 OA
HETATM    4  N   UNL     1     -43.042 -50.523  14.044  1.00  0.00    -0.342 N 
HETATM    5  H   UNL     1     -42.957 -48.092  13.823  1.00  0.00     0.171 HD
HETATM    6  H   UNL     1     -43.677 -50.028  14.652  1.00  0.00     0.164 HD
ENDROOT
BRANCH   1   7
HETATM    7  C   UNL     1     -42.355 -47.677  11.876  1.00  0.00     0.077 A 
HETATM    8  C   UNL     1     -41.065 -47.150  11.853  1.00  0.00     0.158 A 
HETATM    9  F   UNL     1     -40.189 -47.439  12.827  1.00  0.00    -0.202 F 
HETATM   10  C   UNL     1     -40.689 -46.343  10.792  1.00  0.00     0.132 A 
HETATM   11  N   UNL     1     -41.510 -46.012   9.766  1.00  0.00    -0.372 N 
HETATM   12  C   UNL     1     -42.763 -46.516   9.819  1.00  0.00     0.090 A 
ATOM     13  HN  UNL     1     -41.200 -45.417   8.998  1.00  0.00     0.164 HD
HETATM   14  C   UNL     1     -43.223 -47.328  10.842  1.00  0.00     0.050 A 
ENDBRANCH   1   7
BRANCH   4  15
HETATM   15  C   UNL     1     -42.950 -51.967  14.144  1.00  0.00     0.134 C 
BRANCH  15  16
HETATM   16  C   UNL     1     -44.287 -52.642  13.750  1.00  0.00    -0.021 C 
HETATM   17  C   UNL     1     -44.625 -53.814  14.735  1.00  0.00     0.011 C 
HETATM   18  C   UNL     1     -45.174 -54.613  13.542  1.00  0.00     0.002 C 
HETATM   19  C   UNL     1     -44.297 -53.749  12.617  1.00  0.00     0.011 C 
BRANCH  16  20
HETATM   20  C   UNL     1     -45.344 -51.541  13.513  1.00  0.00    -0.004 A 
HETATM   21  C   UNL     1     -46.669 -51.490  14.223  1.00  0.00     0.006 A 
HETATM   22  C   UNL     1     -46.622 -51.701  12.736  1.00  0.00     0.006 A 
ENDBRANCH  16  20
ENDBRANCH  15  16
ENDBRANCH   4  15
TORSDOF 4
ENDMDL
