MODEL 1
REMARK VINA RESULT:      -6.9      0.000      0.000
REMARK  4 active torsions:
REMARK  status: ('A' for Active; 'I' for Inactive)
REMARK       I    between atoms: N_2  and  C_4 
REMARK    1  A    between atoms: C_4  and  C_6 
REMARK    2  A    between atoms: C_8  and  N_9 
REMARK       I    between atoms: N_9  and  C_10 
REMARK       I    between atoms: C_10  and  N_12 
REMARK    3  A    between atoms: N_12  and  C_13 
REMARK    4  A    between atoms: C_13  and  C_14 
ROOT
HETATM    1  N   UNL     1     -40.424 -49.838  10.743  1.00  0.00    -0.309 N 
HETATM    2  C   UNL     1     -41.360 -48.840  10.917  1.00  0.00     0.320 C 
HETATM    3  O   UNL     1     -41.845 -48.479  11.982  1.00  0.00    -0.247 OA
HETATM    4  N   UNL     1     -41.736 -48.244   9.727  1.00  0.00    -0.342 N 
HETATM    5  H   UNL     1     -40.211 -50.094   9.792  1.00  0.00     0.170 HD
HETATM    6  H   UNL     1     -41.007 -48.170   9.035  1.00  0.00     0.164 HD
ENDROOT
BRANCH   1   7
HETATM    7  C   UNL     1     -39.860 -50.625  11.778  1.00  0.00     0.040 A 
HETATM    8  C   UNL     1     -40.540 -51.673  12.392  1.00  0.00     0.064 A 
HETATM    9  C   UNL     1     -39.906 -52.427  13.372  1.00  0.00     0.102 A 
HETATM   10  N   UNL     1     -38.641 -52.176  13.795  1.00  0.00    -0.361 N 
HETATM   11  C   UNL     1     -38.001 -51.150  13.192  1.00  0.00     0.090 A 
ATOM     12  HN  UNL     1     -38.197 -52.730  14.528  1.00  0.00     0.165 HD
HETATM   13  C   UNL     1     -38.556 -50.358  12.191  1.00  0.00     0.046 A 
BRANCH   9  14
HETATM   14  C   UNL     1     -40.648 -53.622  13.896  1.00  0.00     0.269 C 
HETATM   15  N   UNL     1     -41.164 -53.651  15.198  1.00  0.00    -0.355 N 
HETATM   16  C   UNL     1     -41.888 -54.853  15.577  1.00  0.00     0.152 C 
HETATM   17  C   UNL     1     -41.105 -52.547  16.134  1.00  0.00     0.152 C 
HETATM   18  O   UNL     1     -40.814 -54.576  13.130  1.00  0.00    -0.266 OA
ENDBRANCH   9  14
ENDBRANCH   1   7
BRANCH   4  19
HETATM   19  C   UNL     1     -42.656 -47.124   9.850  1.00  0.00     0.133 C 
BRANCH  19  20
HETATM   20  C   UNL     1     -43.953 -47.225   9.035  1.00  0.00    -0.028 C 
HETATM   21  C   UNL     1     -43.686 -47.902   7.680  1.00  0.00     0.016 C 
HETATM   22  C   UNL     1     -44.531 -45.808   8.812  1.00  0.00     0.011 C 
HETATM   23  C   UNL     1     -46.054 -45.956   8.792  1.00  0.00     0.001 C 
HETATM   24  C   UNL     1     -46.354 -47.408   9.144  1.00  0.00     0.001 C 
HETATM   25  C   UNL     1     -45.082 -47.922   9.806  1.00  0.00     0.011 C 
ENDBRANCH  19  20
ENDBRANCH   4  19
TORSDOF 4
ENDMDL
MODEL 2
REMARK VINA RESULT:      -6.5      3.395      6.596
REMARK  4 active torsions:
REMARK  status: ('A' for Active; 'I' for Inactive)
REMARK       I    between atoms: N_2  and  C_4 
REMARK    1  A    between atoms: C_4  and  C_6 
REMARK    2  A    between atoms: C_8  and  N_9 
REMARK       I    between atoms: N_9  and  C_10 
REMARK       I    between atoms: C_10  and  N_12 
REMARK    3  A    between atoms: N_12  and  C_13 
REMARK    4  A    between atoms: C_13  and  C_14 
ROOT
HETATM    1  N   UNL     1     -41.740 -50.952  11.444  1.00  0.00    -0.309 N 
HETATM    2  C   UNL     1     -42.173 -51.640  12.559  1.00  0.00     0.320 C 
HETATM    3  O   UNL     1     -41.955 -51.340  13.726  1.00  0.00    -0.247 OA
HETATM    4  N   UNL     1     -42.912 -52.765  12.240  1.00  0.00    -0.342 N 
HETATM    5  H   UNL     1     -41.904 -51.391  10.552  1.00  0.00     0.170 HD
HETATM    6  H   UNL     1     -43.484 -52.683  11.414  1.00  0.00     0.164 HD
ENDROOT
BRANCH   1   7
HETATM    7  C   UNL     1     -40.959 -49.769  11.461  1.00  0.00     0.040 A 
HETATM    8  C   UNL     1     -41.482 -48.511  11.178  1.00  0.00     0.064 A 
HETATM    9  C   UNL     1     -40.663 -47.389  11.256  1.00  0.00     0.102 A 
HETATM   10  N   UNL     1     -39.345 -47.458  11.571  1.00  0.00    -0.361 N 
HETATM   11  C   UNL     1     -38.856 -48.689  11.835  1.00  0.00     0.090 A 
ATOM     12  HN  UNL     1     -38.756 -46.626  11.606  1.00  0.00     0.165 HD
HETATM   13  C   UNL     1     -39.610 -49.859  11.797  1.00  0.00     0.046 A 
BRANCH   9  14
HETATM   14  C   UNL     1     -41.322 -46.054  11.069  1.00  0.00     0.269 C 
HETATM   15  N   UNL     1     -41.827 -45.328  12.154  1.00  0.00    -0.355 N 
HETATM   16  C   UNL     1     -42.416 -44.035  11.847  1.00  0.00     0.152 C 
HETATM   17  C   UNL     1     -41.717 -45.733  13.541  1.00  0.00     0.152 C 
HETATM   18  O   UNL     1     -41.381 -45.599   9.922  1.00  0.00    -0.266 OA
ENDBRANCH   9  14
ENDBRANCH   1   7
BRANCH   4  19
HETATM   19  C   UNL     1     -43.472 -53.488  13.372  1.00  0.00     0.133 C 
BRANCH  19  20
HETATM   20  C   UNL     1     -44.962 -53.247  13.653  1.00  0.00    -0.028 C 
HETATM   21  C   UNL     1     -45.663 -54.569  14.009  1.00  0.00     0.016 C 
HETATM   22  C   UNL     1     -45.625 -52.618  12.406  1.00  0.00     0.011 C 
HETATM   23  C   UNL     1     -46.723 -51.685  12.920  1.00  0.00     0.001 C 
HETATM   24  C   UNL     1     -46.600 -51.664  14.439  1.00  0.00     0.001 C 
HETATM   25  C   UNL     1     -45.194 -52.174  14.725  1.00  0.00     0.011 C 
ENDBRANCH  19  20
ENDBRANCH   4  19
TORSDOF 4
ENDMDL
MODEL 3
REMARK VINA RESULT:      -6.4      2.784      3.906
REMARK  4 active torsions:
REMARK  status: ('A' for Active; 'I' for Inactive)
REMARK       I    between atoms: N_2  and  C_4 
REMARK    1  A    between atoms: C_4  and  C_6 
REMARK    2  A    between atoms: C_8  and  N_9 
REMARK       I    between atoms: N_9  and  C_10 
REMARK       I    between atoms: C_10  and  N_12 
REMARK    3  A    between atoms: N_12  and  C_13 
REMARK    4  A    between atoms: C_13  and  C_14 
ROOT
HETATM    1  N   UNL     1     -41.145 -50.938  11.370  1.00  0.00    -0.309 N 
HETATM    2  C   UNL     1     -40.627 -49.759  11.865  1.00  0.00     0.320 C 
HETATM    3  O   UNL     1     -40.343 -49.527  13.034  1.00  0.00    -0.247 OA
HETATM    4  N   UNL     1     -40.448 -48.799  10.886  1.00  0.00    -0.342 N 
HETATM    5  H   UNL     1     -41.434 -50.933  10.405  1.00  0.00     0.170 HD
HETATM    6  H   UNL     1     -40.182 -49.155   9.980  1.00  0.00     0.164 HD
ENDROOT
BRANCH   1   7
HETATM    7  C   UNL     1     -41.440 -52.092  12.139  1.00  0.00     0.040 A 
HETATM    8  C   UNL     1     -42.733 -52.450  12.506  1.00  0.00     0.064 A 
HETATM    9  C   UNL     1     -42.948 -53.620  13.226  1.00  0.00     0.102 A 
HETATM   10  N   UNL     1     -41.941 -54.438  13.624  1.00  0.00    -0.361 N 
HETATM   11  C   UNL     1     -40.693 -54.068  13.264  1.00  0.00     0.090 A 
ATOM     12  HN  UNL     1     -42.116 -55.284  14.166  1.00  0.00     0.165 HD
HETATM   13  C   UNL     1     -40.393 -52.924  12.529  1.00  0.00     0.046 A 
BRANCH   9  14
HETATM   14  C   UNL     1     -44.375 -54.013  13.473  1.00  0.00     0.269 C 
HETATM   15  N   UNL     1     -44.989 -53.801  14.713  1.00  0.00    -0.355 N 
HETATM   16  C   UNL     1     -46.384 -54.198  14.819  1.00  0.00     0.152 C 
HETATM   17  C   UNL     1     -44.365 -53.139  15.841  1.00  0.00     0.152 C 
HETATM   18  O   UNL     1     -45.005 -54.509  12.533  1.00  0.00    -0.266 OA
ENDBRANCH   9  14
ENDBRANCH   1   7
BRANCH   4  19
HETATM   19  C   UNL     1     -39.824 -47.562  11.327  1.00  0.00     0.133 C 
BRANCH  19  20
HETATM   20  C   UNL     1     -40.654 -46.284  11.140  1.00  0.00    -0.028 C 
HETATM   21  C   UNL     1     -41.929 -46.583  10.332  1.00  0.00     0.016 C 
HETATM   22  C   UNL     1     -39.803 -45.221  10.409  1.00  0.00     0.011 C 
HETATM   23  C   UNL     1     -40.246 -43.860  10.949  1.00  0.00     0.001 C 
HETATM   24  C   UNL     1     -41.231 -44.140  12.078  1.00  0.00     0.001 C 
HETATM   25  C   UNL     1     -40.975 -45.589  12.470  1.00  0.00     0.011 C 
ENDBRANCH  19  20
ENDBRANCH   4  19
TORSDOF 4
ENDMDL
MODEL 4
REMARK VINA RESULT:      -6.1      2.030      2.777
REMARK  4 active torsions:
REMARK  status: ('A' for Active; 'I' for Inactive)
REMARK       I    between atoms: N_2  and  C_4 
REMARK    1  A    between atoms: C_4  and  C_6 
REMARK    2  A    between atoms: C_8  and  N_9 
REMARK       I    between atoms: N_9  and  C_10 
REMARK       I    between atoms: C_10  and  N_12 
REMARK    3  A    between atoms: N_12  and  C_13 
REMARK    4  A    between atoms: C_13  and  C_14 
ROOT
HETATM    1  N   UNL     1     -40.547 -50.083  11.036  1.00  0.00    -0.309 N 
HETATM    2  C   UNL     1     -41.347 -48.961  11.091  1.00  0.00     0.320 C 
HETATM    3  O   UNL     1     -41.765 -48.419  12.106  1.00  0.00    -0.247 OA
HETATM    4  N   UNL     1     -41.667 -48.469   9.839  1.00  0.00    -0.342 N 
HETATM    5  H   UNL     1     -40.383 -50.475  10.123  1.00  0.00     0.170 HD
HETATM    6  H   UNL     1     -40.946 -48.570   9.141  1.00  0.00     0.164 HD
ENDROOT
BRANCH   1   7
HETATM    7  C   UNL     1     -40.068 -50.807  12.158  1.00  0.00     0.040 A 
HETATM    8  C   UNL     1     -39.177 -50.271  13.083  1.00  0.00     0.064 A 
HETATM    9  C   UNL     1     -38.784 -51.027  14.181  1.00  0.00     0.102 A 
HETATM   10  N   UNL     1     -39.208 -52.300  14.391  1.00  0.00    -0.361 N 
HETATM   11  C   UNL     1     -40.066 -52.803  13.478  1.00  0.00     0.090 A 
ATOM     12  HN  UNL     1     -38.896 -52.846  15.194  1.00  0.00     0.165 HD
HETATM   13  C   UNL     1     -40.523 -52.108  12.361  1.00  0.00     0.046 A 
BRANCH   9  14
HETATM   14  C   UNL     1     -37.929 -50.343  15.206  1.00  0.00     0.269 C 
HETATM   15  N   UNL     1     -38.487 -49.737  16.339  1.00  0.00    -0.355 N 
HETATM   16  C   UNL     1     -37.551 -49.131  17.273  1.00  0.00     0.152 C 
HETATM   17  C   UNL     1     -39.895 -49.760  16.678  1.00  0.00     0.152 C 
HETATM   18  O   UNL     1     -36.706 -50.352  15.033  1.00  0.00    -0.266 OA
ENDBRANCH   9  14
ENDBRANCH   1   7
BRANCH   4  19
HETATM   19  C   UNL     1     -42.437 -47.235   9.828  1.00  0.00     0.133 C 
BRANCH  19  20
HETATM   20  C   UNL     1     -43.749 -47.267   9.032  1.00  0.00    -0.028 C 
HETATM   21  C   UNL     1     -43.536 -47.951   7.670  1.00  0.00     0.016 C 
HETATM   22  C   UNL     1     -44.259 -45.822   8.823  1.00  0.00     0.011 C 
HETATM   23  C   UNL     1     -45.787 -45.894   8.825  1.00  0.00     0.001 C 
HETATM   24  C   UNL     1     -46.155 -47.331   9.175  1.00  0.00     0.001 C 
HETATM   25  C   UNL     1     -44.900 -47.911   9.816  1.00  0.00     0.011 C 
ENDBRANCH  19  20
ENDBRANCH   4  19
TORSDOF 4
ENDMDL
MODEL 5
REMARK VINA RESULT:      -6.0      3.313      7.985
REMARK  4 active torsions:
REMARK  status: ('A' for Active; 'I' for Inactive)
REMARK       I    between atoms: N_2  and  C_4 
REMARK    1  A    between atoms: C_4  and  C_6 
REMARK    2  A    between atoms: C_8  and  N_9 
REMARK       I    between atoms: N_9  and  C_10 
REMARK       I    between atoms: C_10  and  N_12 
REMARK    3  A    between atoms: N_12  and  C_13 
REMARK    4  A    between atoms: C_13  and  C_14 
ROOT
HETATM    1  N   UNL     1     -42.628 -48.962  11.037  1.00  0.00    -0.309 N 
HETATM    2  C   UNL     1     -42.767 -49.455  12.318  1.00  0.00     0.320 C 
HETATM    3  O   UNL     1     -43.118 -48.820  13.305  1.00  0.00    -0.247 OA
HETATM    4  N   UNL     1     -42.455 -50.799  12.412  1.00  0.00    -0.342 N 
HETATM    5  H   UNL     1     -42.220 -49.583  10.357  1.00  0.00     0.170 HD
HETATM    6  H   UNL     1     -42.694 -51.353  11.603  1.00  0.00     0.164 HD
ENDROOT
BRANCH   1   7
HETATM    7  C   UNL     1     -42.871 -47.622  10.642  1.00  0.00     0.040 A 
HETATM    8  C   UNL     1     -42.084 -46.553  11.060  1.00  0.00     0.064 A 
HETATM    9  C   UNL     1     -42.359 -45.271  10.596  1.00  0.00     0.102 A 
HETATM   10  N   UNL     1     -43.394 -44.993   9.763  1.00  0.00    -0.361 N 
HETATM   11  C   UNL     1     -44.149 -46.044   9.376  1.00  0.00     0.090 A 
ATOM     12  HN  UNL     1     -43.590 -44.044   9.447  1.00  0.00     0.165 HD
HETATM   13  C   UNL     1     -43.932 -47.359   9.778  1.00  0.00     0.046 A 
BRANCH   9  14
HETATM   14  C   UNL     1     -41.393 -44.189  10.980  1.00  0.00     0.269 C 
HETATM   15  N   UNL     1     -41.617 -43.368  12.091  1.00  0.00    -0.355 N 
HETATM   16  C   UNL     1     -40.593 -42.375  12.376  1.00  0.00     0.152 C 
HETATM   17  C   UNL     1     -42.730 -43.505  13.009  1.00  0.00     0.152 C 
HETATM   18  O   UNL     1     -40.373 -44.061  10.295  1.00  0.00    -0.266 OA
ENDBRANCH   9  14
ENDBRANCH   1   7
BRANCH   4  19
HETATM   19  C   UNL     1     -42.664 -51.402  13.719  1.00  0.00     0.133 C 
BRANCH  19  20
HETATM   20  C   UNL     1     -43.853 -52.366  13.834  1.00  0.00    -0.028 C 
HETATM   21  C   UNL     1     -45.131 -51.601  14.220  1.00  0.00     0.016 C 
HETATM   22  C   UNL     1     -43.540 -53.443  14.899  1.00  0.00     0.011 C 
HETATM   23  C   UNL     1     -44.230 -54.727  14.436  1.00  0.00     0.001 C 
HETATM   24  C   UNL     1     -44.808 -54.437  13.055  1.00  0.00     0.001 C 
HETATM   25  C   UNL     1     -44.055 -53.207  12.567  1.00  0.00     0.011 C 
ENDBRANCH  19  20
ENDBRANCH   4  19
TORSDOF 4
ENDMDL
MODEL 6
REMARK VINA RESULT:      -5.7      2.270      3.227
REMARK  4 active torsions:
REMARK  status: ('A' for Active; 'I' for Inactive)
REMARK       I    between atoms: N_2  and  C_4 
REMARK    1  A    between atoms: C_4  and  C_6 
REMARK    2  A    between atoms: C_8  and  N_9 
REMARK       I    between atoms: N_9  and  C_10 
REMARK       I    between atoms: C_10  and  N_12 
REMARK    3  A    between atoms: N_12  and  C_13 
REMARK    4  A    between atoms: C_13  and  C_14 
ROOT
HETATM    1  N   UNL     1     -41.544 -51.170  11.482  1.00  0.00    -0.309 N 
HETATM    2  C   UNL     1     -41.476 -49.813  11.721  1.00  0.00     0.320 C 
HETATM    3  O   UNL     1     -41.479 -49.270  12.819  1.00  0.00    -0.247 OA
HETATM    4  N   UNL     1     -41.407 -49.067  10.559  1.00  0.00    -0.342 N 
HETATM    5  H   UNL     1     -41.648 -51.453  10.521  1.00  0.00     0.170 HD
HETATM    6  H   UNL     1     -40.896 -49.497   9.803  1.00  0.00     0.164 HD
ENDROOT
BRANCH   1   7
HETATM    7  C   UNL     1     -41.630 -52.176  12.478  1.00  0.00     0.040 A 
HETATM    8  C   UNL     1     -42.650 -52.225  13.422  1.00  0.00     0.064 A 
HETATM    9  C   UNL     1     -42.691 -53.267  14.342  1.00  0.00     0.102 A 
HETATM   10  N   UNL     1     -41.753 -54.247  14.390  1.00  0.00    -0.361 N 
HETATM   11  C   UNL     1     -40.767 -54.177  13.469  1.00  0.00     0.090 A 
ATOM     12  HN  UNL     1     -41.790 -54.995  15.082  1.00  0.00     0.165 HD
HETATM   13  C   UNL     1     -40.663 -53.179  12.504  1.00  0.00     0.046 A 
BRANCH   9  14
HETATM   14  C   UNL     1     -43.889 -53.331  15.243  1.00  0.00     0.269 C 
HETATM   15  N   UNL     1     -45.035 -54.053  14.888  1.00  0.00    -0.355 N 
HETATM   16  C   UNL     1     -46.118 -54.061  15.858  1.00  0.00     0.152 C 
HETATM   17  C   UNL     1     -45.169 -54.850  13.686  1.00  0.00     0.152 C 
HETATM   18  O   UNL     1     -43.823 -52.744  16.327  1.00  0.00    -0.266 OA
ENDBRANCH   9  14
ENDBRANCH   1   7
BRANCH   4  19
HETATM   19  C   UNL     1     -41.245 -47.633  10.744  1.00  0.00     0.133 C 
BRANCH  19  20
HETATM   20  C   UNL     1     -42.521 -46.789  10.608  1.00  0.00    -0.028 C 
HETATM   21  C   UNL     1     -42.733 -45.927  11.865  1.00  0.00     0.016 C 
HETATM   22  C   UNL     1     -43.735 -47.723  10.398  1.00  0.00     0.011 C 
HETATM   23  C   UNL     1     -44.713 -46.971   9.495  1.00  0.00     0.001 C 
HETATM   24  C   UNL     1     -44.013 -45.685   9.071  1.00  0.00     0.001 C 
HETATM   25  C   UNL     1     -42.534 -45.942   9.329  1.00  0.00     0.011 C 
ENDBRANCH  19  20
ENDBRANCH   4  19
TORSDOF 4
ENDMDL
MODEL 7
REMARK VINA RESULT:      -5.7      4.470      6.948
REMARK  4 active torsions:
REMARK  status: ('A' for Active; 'I' for Inactive)
REMARK       I    between atoms: N_2  and  C_4 
REMARK    1  A    between atoms: C_4  and  C_6 
REMARK    2  A    between atoms: C_8  and  N_9 
REMARK       I    between atoms: N_9  and  C_10 
REMARK       I    between atoms: C_10  and  N_12 
REMARK    3  A    between atoms: N_12  and  C_13 
REMARK    4  A    between atoms: C_13  and  C_14 
ROOT
HETATM    1  N   UNL     1     -42.087 -52.944  13.864  1.00  0.00    -0.309 N 
HETATM    2  C   UNL     1     -41.635 -52.007  12.958  1.00  0.00     0.320 C 
HETATM    3  O   UNL     1     -42.323 -51.370  12.171  1.00  0.00    -0.247 OA
HETATM    4  N   UNL     1     -40.263 -51.837  13.003  1.00  0.00    -0.342 N 
HETATM    5  H   UNL     1     -41.383 -53.465  14.362  1.00  0.00     0.170 HD
HETATM    6  H   UNL     1     -39.849 -51.930  13.917  1.00  0.00     0.164 HD
ENDROOT
BRANCH   1   7
HETATM    7  C   UNL     1     -43.440 -53.331  14.040  1.00  0.00     0.040 A 
HETATM    8  C   UNL     1     -44.380 -52.534  14.684  1.00  0.00     0.064 A 
HETATM    9  C   UNL     1     -45.699 -52.963  14.782  1.00  0.00     0.102 A 
HETATM   10  N   UNL     1     -46.125 -54.158  14.297  1.00  0.00    -0.361 N 
HETATM   11  C   UNL     1     -45.194 -54.919  13.682  1.00  0.00     0.090 A 
ATOM     12  HN  UNL     1     -47.093 -54.464  14.393  1.00  0.00     0.165 HD
HETATM   13  C   UNL     1     -43.859 -54.557  13.526  1.00  0.00     0.046 A 
BRANCH   9  14
HETATM   14  C   UNL     1     -46.686 -51.998  15.370  1.00  0.00     0.269 C 
HETATM   15  N   UNL     1     -47.020 -52.029  16.729  1.00  0.00    -0.355 N 
HETATM   16  C   UNL     1     -47.967 -51.024  17.183  1.00  0.00     0.152 C 
HETATM   17  C   UNL     1     -46.425 -52.919  17.705  1.00  0.00     0.152 C 
HETATM   18  O   UNL     1     -47.178 -51.151  14.618  1.00  0.00    -0.266 OA
ENDBRANCH   9  14
ENDBRANCH   1   7
BRANCH   4  19
HETATM   19  C   UNL     1     -39.732 -50.800  12.132  1.00  0.00     0.133 C 
BRANCH  19  20
HETATM   20  C   UNL     1     -38.461 -50.093  12.624  1.00  0.00    -0.028 C 
HETATM   21  C   UNL     1     -37.409 -50.033  11.502  1.00  0.00     0.016 C 
HETATM   22  C   UNL     1     -37.889 -50.855  13.842  1.00  0.00     0.011 C 
HETATM   23  C   UNL     1     -37.246 -49.805  14.751  1.00  0.00     0.001 C 
HETATM   24  C   UNL     1     -37.569 -48.446  14.141  1.00  0.00     0.001 C 
HETATM   25  C   UNL     1     -38.747 -48.704  13.210  1.00  0.00     0.011 C 
ENDBRANCH  19  20
ENDBRANCH   4  19
TORSDOF 4
ENDMDL
MODEL 8
REMARK VINA RESULT:      -5.6      3.165      7.624
REMARK  4 active torsions:
REMARK  status: ('A' for Active; 'I' for Inactive)
REMARK       I    between atoms: N_2  and  C_4 
REMARK    1  A    between atoms: C_4  and  C_6 
REMARK    2  A    between atoms: C_8  and  N_9 
REMARK       I    between atoms: N_9  and  C_10 
REMARK       I    between atoms: C_10  and  N_12 
REMARK    3  A    between atoms: N_12  and  C_13 
REMARK    4  A    between atoms: C_13  and  C_14 
ROOT
HETATM    1  N   UNL     1     -42.234 -50.524  11.875  1.00  0.00    -0.309 N 
HETATM    2  C   UNL     1     -43.074 -50.718  12.951  1.00  0.00     0.320 C 
HETATM    3  O   UNL     1     -43.284 -49.923  13.859  1.00  0.00    -0.247 OA
HETATM    4  N   UNL     1     -43.694 -51.954  12.931  1.00  0.00    -0.342 N 
HETATM    5  H   UNL     1     -42.081 -51.318  11.274  1.00  0.00     0.170 HD
HETATM    6  H   UNL     1     -43.921 -52.305  12.014  1.00  0.00     0.164 HD
ENDROOT
BRANCH   1   7
HETATM    7  C   UNL     1     -41.462 -49.359  11.634  1.00  0.00     0.040 A 
HETATM    8  C   UNL     1     -42.012 -48.166  11.176  1.00  0.00     0.064 A 
HETATM    9  C   UNL     1     -41.198 -47.052  11.003  1.00  0.00     0.102 A 
HETATM   10  N   UNL     1     -39.860 -47.072  11.232  1.00  0.00    -0.361 N 
HETATM   11  C   UNL     1     -39.346 -48.242  11.669  1.00  0.00     0.090 A 
ATOM     12  HN  UNL     1     -39.276 -46.250  11.084  1.00  0.00     0.165 HD
HETATM   13  C   UNL     1     -40.092 -49.397  11.885  1.00  0.00     0.046 A 
BRANCH   9  14
HETATM   14  C   UNL     1     -41.876 -45.765  10.636  1.00  0.00     0.269 C 
HETATM   15  N   UNL     1     -42.064 -44.742  11.573  1.00  0.00    -0.355 N 
HETATM   16  C   UNL     1     -42.709 -43.533  11.088  1.00  0.00     0.152 C 
HETATM   17  C   UNL     1     -41.582 -44.776  12.939  1.00  0.00     0.152 C 
HETATM   18  O   UNL     1     -42.244 -45.624   9.465  1.00  0.00    -0.266 OA
ENDBRANCH   9  14
ENDBRANCH   1   7
BRANCH   4  19
HETATM   19  C   UNL     1     -44.660 -52.187  13.994  1.00  0.00     0.133 C 
BRANCH  19  20
HETATM   20  C   UNL     1     -44.355 -53.362  14.935  1.00  0.00    -0.028 C 
HETATM   21  C   UNL     1     -45.560 -53.646  15.849  1.00  0.00     0.016 C 
HETATM   22  C   UNL     1     -43.111 -53.026  15.789  1.00  0.00     0.011 C 
HETATM   23  C   UNL     1     -42.381 -54.348  16.035  1.00  0.00     0.001 C 
HETATM   24  C   UNL     1     -43.109 -55.406  15.214  1.00  0.00     0.001 C 
HETATM   25  C   UNL     1     -43.906 -54.620  14.180  1.00  0.00     0.011 C 
ENDBRANCH  19  20
ENDBRANCH   4  19
TORSDOF 4
ENDMDL
MODEL 9
REMARK VINA RESULT:      -5.4      4.389      6.320
REMARK  4 active torsions:
REMARK  status: ('A' for Active; 'I' for Inactive)
REMARK       I    between atoms: N_2  and  C_4 
REMARK    1  A    between atoms: C_4  and  C_6 
REMARK    2  A    between atoms: C_8  and  N_9 
REMARK       I    between atoms: N_9  and  C_10 
REMARK       I    between atoms: C_10  and  N_12 
REMARK    3  A    between atoms: N_12  and  C_13 
REMARK    4  A    between atoms: C_13  and  C_14 
ROOT
HETATM    1  N   UNL     1     -40.399 -52.137  12.552  1.00  0.00    -0.309 N 
HETATM    2  C   UNL     1     -41.763 -52.156  12.756  1.00  0.00     0.320 C 
HETATM    3  O   UNL     1     -42.451 -51.219  13.141  1.00  0.00    -0.247 OA
HETATM    4  N   UNL     1     -42.328 -53.388  12.483  1.00  0.00    -0.342 N 
HETATM    5  H   UNL     1     -39.962 -53.021  12.345  1.00  0.00     0.170 HD
HETATM    6  H   UNL     1     -41.900 -53.899  11.726  1.00  0.00     0.164 HD
ENDROOT
BRANCH   1   7
HETATM    7  C   UNL     1     -39.553 -51.017  12.756  1.00  0.00     0.040 A 
HETATM    8  C   UNL     1     -38.946 -50.737  13.976  1.00  0.00     0.064 A 
HETATM    9  C   UNL     1     -38.095 -49.643  14.089  1.00  0.00     0.102 A 
HETATM   10  N   UNL     1     -37.841 -48.796  13.059  1.00  0.00    -0.361 N 
HETATM   11  C   UNL     1     -38.446 -49.082  11.886  1.00  0.00     0.090 A 
ATOM     12  HN  UNL     1     -37.227 -47.989  13.165  1.00  0.00     0.165 HD
HETATM   13  C   UNL     1     -39.296 -50.165  11.684  1.00  0.00     0.046 A 
BRANCH   9  14
HETATM   14  C   UNL     1     -37.371 -49.477  15.393  1.00  0.00     0.269 C 
HETATM   15  N   UNL     1     -37.847 -48.618  16.391  1.00  0.00    -0.355 N 
HETATM   16  C   UNL     1     -37.073 -48.566  17.620  1.00  0.00     0.152 C 
HETATM   17  C   UNL     1     -39.085 -47.868  16.313  1.00  0.00     0.152 C 
HETATM   18  O   UNL     1     -36.349 -50.147  15.571  1.00  0.00    -0.266 OA
ENDBRANCH   9  14
ENDBRANCH   1   7
BRANCH   4  19
HETATM   19  C   UNL     1     -43.778 -53.451  12.595  1.00  0.00     0.133 C 
BRANCH  19  20
HETATM   20  C   UNL     1     -44.328 -53.997  13.920  1.00  0.00    -0.028 C 
HETATM   21  C   UNL     1     -43.248 -54.806  14.659  1.00  0.00     0.016 C 
HETATM   22  C   UNL     1     -45.556 -54.892  13.636  1.00  0.00     0.011 C 
HETATM   23  C   UNL     1     -46.503 -54.723  14.826  1.00  0.00     0.001 C 
HETATM   24  C   UNL     1     -45.900 -53.638  15.711  1.00  0.00     0.001 C 
HETATM   25  C   UNL     1     -44.921 -52.897  14.810  1.00  0.00     0.011 C 
ENDBRANCH  19  20
ENDBRANCH   4  19
TORSDOF 4
ENDMDL
