MODEL 1
REMARK VINA RESULT:      -6.4      0.000      0.000
REMARK  2 active torsions:
REMARK  status: ('A' for Active; 'I' for Inactive)
REMARK       I    between atoms: N_1  and  C_2 
REMARK    1  A    between atoms: C_2  and  C_4 
REMARK    2  A    between atoms: N_9  and  C_10 
ROOT
HETATM    1  C   UNL     1     -40.419 -48.547  11.525  1.00  0.00     0.126 A 
HETATM    2  N   UNL     1     -41.302 -48.922  10.561  1.00  0.00    -0.350 N 
ATOM      3  HN  UNL     1     -41.357 -49.900  10.274  1.00  0.00     0.166 HD
HETATM    4  C   UNL     1     -42.113 -48.001   9.979  1.00  0.00     0.112 A 
HETATM    5  C   UNL     1     -42.092 -46.657  10.290  1.00  0.00     0.061 A 
HETATM    6  C   UNL     1     -42.968 -45.739   9.635  1.00  0.00     0.101 C 
HETATM    7  N   UNL     1     -43.681 -44.993   9.103  1.00  0.00    -0.191 NA
HETATM    8  C   UNL     1     -41.206 -46.251  11.275  1.00  0.00     0.052 A 
HETATM    9  C   UNL     1     -40.378 -47.191  11.912  1.00  0.00     0.079 A 
HETATM   10 CL   UNL     1     -39.463 -46.564  13.242  1.00  0.00    -0.080 Cl
ENDROOT
BRANCH   1  11
HETATM   11  N   UNL     1     -39.641 -49.571  12.013  1.00  0.00    -0.348 N 
HETATM   12  C   UNL     1     -38.192 -49.518  12.336  1.00  0.00     0.201 C 
HETATM   13  C   UNL     1     -37.994 -49.815  13.834  1.00  0.00     0.202 C 
HETATM   14  O   UNL     1     -38.609 -51.057  14.230  1.00  0.00    -0.387 OA
HETATM   15  C   UNL     1     -40.013 -51.067  13.938  1.00  0.00     0.187 C 
HETATM   16  C   UNL     1     -40.300 -50.819  12.448  1.00  0.00     0.151 C 
BRANCH  12  17
HETATM   17  C   UNL     1     -37.382 -50.515  11.477  1.00  0.00     0.240 C 
HETATM   18  N   UNL     1     -37.191 -50.134  10.174  1.00  0.00    -0.368 N 
HETATM   19  H   UNL     1     -36.750 -50.804   9.559  1.00  0.00     0.159 HD
HETATM   20  H   UNL     1     -37.814 -49.438   9.780  1.00  0.00     0.159 HD
HETATM   21  O   UNL     1     -36.838 -51.528  11.907  1.00  0.00    -0.271 OA
ENDBRANCH  12  17
ENDBRANCH   1  11
TORSDOF 2
ENDMDL
MODEL 2
REMARK VINA RESULT:      -6.2      3.468      6.119
REMARK  2 active torsions:
REMARK  status: ('A' for Active; 'I' for Inactive)
REMARK       I    between atoms: N_1  and  C_2 
REMARK    1  A    between atoms: C_2  and  C_4 
REMARK    2  A    between atoms: N_9  and  C_10 
ROOT
HETATM    1  C   UNL     1     -40.451 -47.372  11.413  1.00  0.00     0.126 A 
HETATM    2  N   UNL     1     -40.669 -48.530  10.732  1.00  0.00    -0.350 N 
ATOM      3  HN  UNL     1     -41.164 -48.509   9.840  1.00  0.00     0.166 HD
HETATM    4  C   UNL     1     -40.230 -49.713  11.234  1.00  0.00     0.112 A 
HETATM    5  C   UNL     1     -39.571 -49.836  12.440  1.00  0.00     0.061 A 
HETATM    6  C   UNL     1     -39.141 -51.112  12.914  1.00  0.00     0.101 C 
HETATM    7  N   UNL     1     -38.790 -52.150  13.298  1.00  0.00    -0.191 NA
HETATM    8  C   UNL     1     -39.330 -48.670  13.150  1.00  0.00     0.052 A 
HETATM    9  C   UNL     1     -39.750 -47.430  12.636  1.00  0.00     0.079 A 
HETATM   10 CL   UNL     1     -39.216 -46.055  13.542  1.00  0.00    -0.080 Cl
ENDROOT
BRANCH   1  11
HETATM   11  N   UNL     1     -40.969 -46.251  10.809  1.00  0.00    -0.348 N 
HETATM   12  C   UNL     1     -42.370 -45.762  10.880  1.00  0.00     0.201 C 
HETATM   13  C   UNL     1     -42.389 -44.363  11.524  1.00  0.00     0.202 C 
HETATM   14  O   UNL     1     -41.509 -43.441  10.851  1.00  0.00    -0.387 OA
HETATM   15  C   UNL     1     -40.159 -43.921  10.828  1.00  0.00     0.187 C 
HETATM   16  C   UNL     1     -40.042 -45.301  10.160  1.00  0.00     0.151 C 
BRANCH  12  17
HETATM   17  C   UNL     1     -43.028 -45.721   9.482  1.00  0.00     0.240 C 
HETATM   18  N   UNL     1     -42.905 -46.874   8.750  1.00  0.00    -0.368 N 
HETATM   19  H   UNL     1     -43.238 -46.850   7.796  1.00  0.00     0.159 HD
HETATM   20  H   UNL     1     -42.171 -47.527   9.001  1.00  0.00     0.159 HD
HETATM   21  O   UNL     1     -43.711 -44.794   9.057  1.00  0.00    -0.271 OA
ENDBRANCH  12  17
ENDBRANCH   1  11
TORSDOF 2
ENDMDL
MODEL 3
REMARK VINA RESULT:      -6.1      1.621      1.822
REMARK  2 active torsions:
REMARK  status: ('A' for Active; 'I' for Inactive)
REMARK       I    between atoms: N_1  and  C_2 
REMARK    1  A    between atoms: C_2  and  C_4 
REMARK    2  A    between atoms: N_9  and  C_10 
ROOT
HETATM    1  C   UNL     1     -39.508 -47.790  12.406  1.00  0.00     0.126 A 
HETATM    2  N   UNL     1     -40.005 -47.566  11.159  1.00  0.00    -0.350 N 
ATOM      3  HN  UNL     1     -40.093 -48.340  10.500  1.00  0.00     0.166 HD
HETATM    4  C   UNL     1     -40.385 -46.316  10.787  1.00  0.00     0.112 A 
HETATM    5  C   UNL     1     -40.281 -45.210  11.605  1.00  0.00     0.061 A 
HETATM    6  C   UNL     1     -40.693 -43.920  11.150  1.00  0.00     0.101 C 
HETATM    7  N   UNL     1     -41.029 -42.873  10.780  1.00  0.00    -0.191 NA
HETATM    8  C   UNL     1     -39.784 -45.413  12.883  1.00  0.00     0.052 A 
HETATM    9  C   UNL     1     -39.412 -46.703  13.299  1.00  0.00     0.079 A 
HETATM   10 CL   UNL     1     -38.987 -46.827  14.973  1.00  0.00    -0.080 Cl
ENDROOT
BRANCH   1  11
HETATM   11  N   UNL     1     -39.137 -49.092  12.644  1.00  0.00    -0.348 N 
HETATM   12  C   UNL     1     -37.762 -49.603  12.880  1.00  0.00     0.201 C 
HETATM   13  C   UNL     1     -37.688 -50.238  14.281  1.00  0.00     0.202 C 
HETATM   14  O   UNL     1     -38.700 -51.247  14.477  1.00  0.00    -0.387 OA
HETATM   15  C   UNL     1     -40.018 -50.718  14.277  1.00  0.00     0.187 C 
HETATM   16  C   UNL     1     -40.193 -50.100  12.880  1.00  0.00     0.151 C 
BRANCH  12  17
HETATM   17  C   UNL     1     -37.345 -50.628  11.801  1.00  0.00     0.240 C 
HETATM   18  N   UNL     1     -37.454 -50.184  10.509  1.00  0.00    -0.368 N 
HETATM   19  H   UNL     1     -37.283 -50.858   9.775  1.00  0.00     0.159 HD
HETATM   20  H   UNL     1     -38.062 -49.394  10.321  1.00  0.00     0.159 HD
HETATM   21  O   UNL     1     -36.846 -51.725  12.034  1.00  0.00    -0.271 OA
ENDBRANCH  12  17
ENDBRANCH   1  11
TORSDOF 2
ENDMDL
MODEL 4
REMARK VINA RESULT:      -6.0      4.503      5.968
REMARK  2 active torsions:
REMARK  status: ('A' for Active; 'I' for Inactive)
REMARK       I    between atoms: N_1  and  C_2 
REMARK    1  A    between atoms: C_2  and  C_4 
REMARK    2  A    between atoms: N_9  and  C_10 
ROOT
HETATM    1  C   UNL     1     -42.816 -45.806  10.572  1.00  0.00     0.126 A 
HETATM    2  N   UNL     1     -43.481 -45.308   9.494  1.00  0.00    -0.350 N 
ATOM      3  HN  UNL     1     -43.234 -44.389   9.124  1.00  0.00     0.166 HD
HETATM    4  C   UNL     1     -44.472 -46.028   8.908  1.00  0.00     0.112 A 
HETATM    5  C   UNL     1     -44.885 -47.266   9.353  1.00  0.00     0.061 A 
HETATM    6  C   UNL     1     -45.940 -47.969   8.694  1.00  0.00     0.101 C 
HETATM    7  N   UNL     1     -46.796 -48.540   8.157  1.00  0.00    -0.191 NA
HETATM    8  C   UNL     1     -44.219 -47.799  10.446  1.00  0.00     0.052 A 
HETATM    9  C   UNL     1     -43.170 -47.085  11.051  1.00  0.00     0.079 A 
HETATM   10 CL   UNL     1     -42.318 -47.957  12.280  1.00  0.00    -0.080 Cl
ENDROOT
BRANCH   1  11
HETATM   11  N   UNL     1     -41.856 -44.967  11.085  1.00  0.00    -0.348 N 
HETATM   12  C   UNL     1     -42.059 -43.861  12.057  1.00  0.00     0.201 C 
HETATM   13  C   UNL     1     -41.251 -44.152  13.335  1.00  0.00     0.202 C 
HETATM   14  O   UNL     1     -39.858 -44.401  13.055  1.00  0.00    -0.387 OA
HETATM   15  C   UNL     1     -39.690 -45.494  12.143  1.00  0.00     0.187 C 
HETATM   16  C   UNL     1     -40.433 -45.266  10.816  1.00  0.00     0.151 C 
BRANCH  12  17
HETATM   17  C   UNL     1     -41.648 -42.497  11.458  1.00  0.00     0.240 C 
HETATM   18  N   UNL     1     -40.647 -41.847  12.131  1.00  0.00    -0.368 N 
HETATM   19  H   UNL     1     -40.419 -40.911  11.825  1.00  0.00     0.159 HD
HETATM   20  H   UNL     1     -40.466 -42.109  13.094  1.00  0.00     0.159 HD
HETATM   21  O   UNL     1     -42.077 -42.039  10.402  1.00  0.00    -0.271 OA
ENDBRANCH  12  17
ENDBRANCH   1  11
TORSDOF 2
ENDMDL
MODEL 5
REMARK VINA RESULT:      -6.0      4.013      5.788
REMARK  2 active torsions:
REMARK  status: ('A' for Active; 'I' for Inactive)
REMARK       I    between atoms: N_1  and  C_2 
REMARK    1  A    between atoms: C_2  and  C_4 
REMARK    2  A    between atoms: N_9  and  C_10 
ROOT
HETATM    1  C   UNL     1     -41.947 -51.925  13.068  1.00  0.00     0.126 A 
HETATM    2  N   UNL     1     -43.254 -51.663  12.792  1.00  0.00    -0.350 N 
ATOM      3  HN  UNL     1     -43.523 -50.749  12.428  1.00  0.00     0.166 HD
HETATM    4  C   UNL     1     -44.201 -52.614  12.998  1.00  0.00     0.112 A 
HETATM    5  C   UNL     1     -43.929 -53.867  13.507  1.00  0.00     0.061 A 
HETATM    6  C   UNL     1     -44.974 -54.820  13.707  1.00  0.00     0.101 C 
HETATM    7  N   UNL     1     -45.824 -55.594  13.867  1.00  0.00    -0.191 NA
HETATM    8  C   UNL     1     -42.605 -54.161  13.789  1.00  0.00     0.052 A 
HETATM    9  C   UNL     1     -41.603 -53.202  13.555  1.00  0.00     0.079 A 
HETATM   10 CL   UNL     1     -39.986 -53.778  13.781  1.00  0.00    -0.080 Cl
ENDROOT
BRANCH   1  11
HETATM   11  N   UNL     1     -41.096 -50.869  12.839  1.00  0.00    -0.348 N 
HETATM   12  C   UNL     1     -40.443 -50.508  11.554  1.00  0.00     0.201 C 
HETATM   13  C   UNL     1     -40.904 -49.102  11.126  1.00  0.00     0.202 C 
HETATM   14  O   UNL     1     -40.687 -48.120  12.159  1.00  0.00    -0.387 OA
HETATM   15  C   UNL     1     -41.356 -48.475  13.375  1.00  0.00     0.187 C 
HETATM   16  C   UNL     1     -40.920 -49.854  13.899  1.00  0.00     0.151 C 
BRANCH  12  17
HETATM   17  C   UNL     1     -38.902 -50.559  11.666  1.00  0.00     0.240 C 
HETATM   18  N   UNL     1     -38.236 -49.620  10.922  1.00  0.00    -0.368 N 
HETATM   19  H   UNL     1     -37.228 -49.685  10.896  1.00  0.00     0.159 HD
HETATM   20  H   UNL     1     -38.724 -49.188  10.145  1.00  0.00     0.159 HD
HETATM   21  O   UNL     1     -38.281 -51.290  12.432  1.00  0.00    -0.271 OA
ENDBRANCH  12  17
ENDBRANCH   1  11
TORSDOF 2
ENDMDL
MODEL 6
REMARK VINA RESULT:      -5.8      1.781      2.244
REMARK  2 active torsions:
REMARK  status: ('A' for Active; 'I' for Inactive)
REMARK       I    between atoms: N_1  and  C_2 
REMARK    1  A    between atoms: C_2  and  C_4 
REMARK    2  A    between atoms: N_9  and  C_10 
ROOT
HETATM    1  C   UNL     1     -41.531 -48.833  11.946  1.00  0.00     0.126 A 
HETATM    2  N   UNL     1     -42.743 -48.975  11.344  1.00  0.00    -0.350 N 
ATOM      3  HN  UNL     1     -43.258 -49.851  11.440  1.00  0.00     0.166 HD
HETATM    4  C   UNL     1     -43.271 -47.957  10.617  1.00  0.00     0.112 A 
HETATM    5  C   UNL     1     -42.635 -46.749  10.418  1.00  0.00     0.061 A 
HETATM    6  C   UNL     1     -43.243 -45.720   9.636  1.00  0.00     0.101 C 
HETATM    7  N   UNL     1     -43.738 -44.884   9.001  1.00  0.00    -0.191 NA
HETATM    8  C   UNL     1     -41.402 -46.576  11.027  1.00  0.00     0.052 A 
HETATM    9  C   UNL     1     -40.850 -47.605  11.809  1.00  0.00     0.079 A 
HETATM   10 CL   UNL     1     -39.399 -47.174  12.650  1.00  0.00    -0.080 Cl
ENDROOT
BRANCH   1  11
HETATM   11  N   UNL     1     -41.101 -49.946  12.628  1.00  0.00    -0.348 N 
HETATM   12  C   UNL     1     -40.201 -51.015  12.122  1.00  0.00     0.201 C 
HETATM   13  C   UNL     1     -38.928 -51.060  12.987  1.00  0.00     0.202 C 
HETATM   14  O   UNL     1     -39.227 -51.200  14.390  1.00  0.00    -0.387 OA
HETATM   15  C   UNL     1     -40.067 -50.138  14.860  1.00  0.00     0.187 C 
HETATM   16  C   UNL     1     -41.386 -50.048  14.075  1.00  0.00     0.151 C 
BRANCH  12  17
HETATM   17  C   UNL     1     -40.902 -52.392  12.120  1.00  0.00     0.240 C 
HETATM   18  N   UNL     1     -42.117 -52.423  11.488  1.00  0.00    -0.368 N 
HETATM   19  H   UNL     1     -42.647 -53.281  11.551  1.00  0.00     0.159 HD
HETATM   20  H   UNL     1     -42.611 -51.547  11.352  1.00  0.00     0.159 HD
HETATM   21  O   UNL     1     -40.402 -53.432  12.541  1.00  0.00    -0.271 OA
ENDBRANCH  12  17
ENDBRANCH   1  11
TORSDOF 2
ENDMDL
MODEL 7
REMARK VINA RESULT:      -5.8      4.641      6.661
REMARK  2 active torsions:
REMARK  status: ('A' for Active; 'I' for Inactive)
REMARK       I    between atoms: N_1  and  C_2 
REMARK    1  A    between atoms: C_2  and  C_4 
REMARK    2  A    between atoms: N_9  and  C_10 
ROOT
HETATM    1  C   UNL     1     -41.651 -52.380  13.727  1.00  0.00     0.126 A 
HETATM    2  N   UNL     1     -41.840 -51.526  12.685  1.00  0.00    -0.350 N 
ATOM      3  HN  UNL     1     -42.779 -51.370  12.318  1.00  0.00     0.166 HD
HETATM    4  C   UNL     1     -40.783 -50.877  12.131  1.00  0.00     0.112 A 
HETATM    5  C   UNL     1     -39.479 -51.043  12.549  1.00  0.00     0.061 A 
HETATM    6  C   UNL     1     -38.410 -50.336  11.918  1.00  0.00     0.101 C 
HETATM    7  N   UNL     1     -37.543 -49.759  11.406  1.00  0.00    -0.191 NA
HETATM    8  C   UNL     1     -39.261 -51.904  13.614  1.00  0.00     0.052 A 
HETATM    9  C   UNL     1     -40.344 -52.563  14.222  1.00  0.00     0.079 A 
HETATM   10 CL   UNL     1     -39.936 -53.455  15.649  1.00  0.00    -0.080 Cl
ENDROOT
BRANCH   1  11
HETATM   11  N   UNL     1     -42.799 -52.990  14.176  1.00  0.00    -0.348 N 
HETATM   12  C   UNL     1     -43.315 -54.327  13.784  1.00  0.00     0.201 C 
HETATM   13  C   UNL     1     -43.383 -55.231  15.029  1.00  0.00     0.202 C 
HETATM   14  O   UNL     1     -44.141 -54.632  16.099  1.00  0.00    -0.387 OA
HETATM   15  C   UNL     1     -43.601 -53.360  16.480  1.00  0.00     0.187 C 
HETATM   16  C   UNL     1     -43.537 -52.376  15.300  1.00  0.00     0.151 C 
BRANCH  12  17
HETATM   17  C   UNL     1     -44.705 -54.224  13.116  1.00  0.00     0.240 C 
HETATM   18  N   UNL     1     -45.674 -55.021  13.670  1.00  0.00    -0.368 N 
HETATM   19  H   UNL     1     -46.568 -55.052  13.199  1.00  0.00     0.159 HD
HETATM   20  H   UNL     1     -45.382 -55.816  14.228  1.00  0.00     0.159 HD
HETATM   21  O   UNL     1     -44.998 -53.427  12.229  1.00  0.00    -0.271 OA
ENDBRANCH  12  17
ENDBRANCH   1  11
TORSDOF 2
ENDMDL
MODEL 8
REMARK VINA RESULT:      -5.7      6.778      8.889
REMARK  2 active torsions:
REMARK  status: ('A' for Active; 'I' for Inactive)
REMARK       I    between atoms: N_1  and  C_2 
REMARK    1  A    between atoms: C_2  and  C_4 
REMARK    2  A    between atoms: N_9  and  C_10 
ROOT
HETATM    1  C   UNL     1     -41.879 -54.071  15.107  1.00  0.00     0.126 A 
HETATM    2  N   UNL     1     -41.669 -54.583  16.351  1.00  0.00    -0.350 N 
ATOM      3  HN  UNL     1     -42.430 -54.593  17.031  1.00  0.00     0.166 HD
HETATM    4  C   UNL     1     -40.452 -55.080  16.690  1.00  0.00     0.112 A 
HETATM    5  C   UNL     1     -39.364 -55.087  15.842  1.00  0.00     0.061 A 
HETATM    6  C   UNL     1     -38.108 -55.620  16.264  1.00  0.00     0.101 C 
HETATM    7  N   UNL     1     -37.088 -56.054  16.608  1.00  0.00    -0.191 NA
HETATM    8  C   UNL     1     -39.555 -54.578  14.567  1.00  0.00     0.052 A 
HETATM    9  C   UNL     1     -40.814 -54.085  14.183  1.00  0.00     0.079 A 
HETATM   10 CL   UNL     1     -40.942 -53.657  12.511  1.00  0.00    -0.080 Cl
ENDROOT
BRANCH   1  11
HETATM   11  N   UNL     1     -43.146 -53.578  14.902  1.00  0.00    -0.348 N 
HETATM   12  C   UNL     1     -44.409 -54.357  14.822  1.00  0.00     0.201 C 
HETATM   13  C   UNL     1     -45.355 -53.910  15.951  1.00  0.00     0.202 C 
HETATM   14  O   UNL     1     -45.577 -52.486  15.946  1.00  0.00    -0.387 OA
HETATM   15  C   UNL     1     -44.347 -51.759  16.060  1.00  0.00     0.187 C 
HETATM   16  C   UNL     1     -43.354 -52.115  14.940  1.00  0.00     0.151 C 
BRANCH  12  17
HETATM   17  C   UNL     1     -45.093 -54.188  13.446  1.00  0.00     0.240 C 
HETATM   18  N   UNL     1     -46.396 -53.765  13.496  1.00  0.00    -0.368 N 
HETATM   19  H   UNL     1     -46.903 -53.736  12.622  1.00  0.00     0.159 HD
HETATM   20  H   UNL     1     -46.909 -53.891  14.361  1.00  0.00     0.159 HD
HETATM   21  O   UNL     1     -44.525 -54.303  12.363  1.00  0.00    -0.271 OA
ENDBRANCH  12  17
ENDBRANCH   1  11
TORSDOF 2
ENDMDL
MODEL 9
REMARK VINA RESULT:      -5.7      4.118      5.458
REMARK  2 active torsions:
REMARK  status: ('A' for Active; 'I' for Inactive)
REMARK       I    between atoms: N_1  and  C_2 
REMARK    1  A    between atoms: C_2  and  C_4 
REMARK    2  A    between atoms: N_9  and  C_10 
ROOT
HETATM    1  C   UNL     1     -42.830 -46.024  10.724  1.00  0.00     0.126 A 
HETATM    2  N   UNL     1     -43.256 -45.578   9.511  1.00  0.00    -0.350 N 
ATOM      3  HN  UNL     1     -42.871 -44.717   9.122  1.00  0.00     0.166 HD
HETATM    4  C   UNL     1     -44.192 -46.274   8.816  1.00  0.00     0.112 A 
HETATM    5  C   UNL     1     -44.781 -47.434   9.274  1.00  0.00     0.061 A 
HETATM    6  C   UNL     1     -45.765 -48.116   8.495  1.00  0.00     0.101 C 
HETATM    7  N   UNL     1     -46.564 -48.669   7.861  1.00  0.00    -0.191 NA
HETATM    8  C   UNL     1     -44.358 -47.913  10.505  1.00  0.00     0.052 A 
HETATM    9  C   UNL     1     -43.369 -47.225  11.229  1.00  0.00     0.079 A 
HETATM   10 CL   UNL     1     -42.818 -48.042  12.652  1.00  0.00    -0.080 Cl
ENDROOT
BRANCH   1  11
HETATM   11  N   UNL     1     -41.901 -45.213  11.333  1.00  0.00    -0.348 N 
HETATM   12  C   UNL     1     -40.423 -45.286  11.198  1.00  0.00     0.201 C 
HETATM   13  C   UNL     1     -39.901 -43.967  10.598  1.00  0.00     0.202 C 
HETATM   14  O   UNL     1     -40.337 -42.817  11.349  1.00  0.00    -0.387 OA
HETATM   15  C   UNL     1     -41.767 -42.752  11.434  1.00  0.00     0.187 C 
HETATM   16  C   UNL     1     -42.371 -44.018  12.064  1.00  0.00     0.151 C 
BRANCH  12  17
HETATM   17  C   UNL     1     -39.743 -45.567  12.557  1.00  0.00     0.240 C 
HETATM   18  N   UNL     1     -38.904 -44.578  12.999  1.00  0.00    -0.368 N 
HETATM   19  H   UNL     1     -38.368 -44.769  13.835  1.00  0.00     0.159 HD
HETATM   20  H   UNL     1     -38.541 -43.916  12.322  1.00  0.00     0.159 HD
HETATM   21  O   UNL     1     -39.986 -46.533  13.275  1.00  0.00    -0.271 OA
ENDBRANCH  12  17
ENDBRANCH   1  11
TORSDOF 2
ENDMDL
