MODEL 1
REMARK VINA RESULT:      -5.5      0.000      0.000
REMARK  6 active torsions:
REMARK  status: ('A' for Active; 'I' for Inactive)
REMARK    1  A    between atoms: C_2  and  O_4 
REMARK    2  A    between atoms: O_4  and  C_5 
REMARK    3  A    between atoms: C_5  and  C_6 
REMARK    4  A    between atoms: C_6  and  O_7 
REMARK    5  A    between atoms: C_6  and  C_8 
REMARK    6  A    between atoms: C_8  and  N_9 
ROOT
HETATM    1  N   UNL     1     -41.690 -53.740  13.099  1.00  0.00    -0.295 N 
HETATM    2  C   UNL     1     -41.113 -54.372  14.220  1.00  0.00     0.329 A 
HETATM    3  O   UNL     1     -39.919 -54.493  14.449  1.00  0.00    -0.246 OA
HETATM    4  N   UNL     1     -42.185 -54.826  15.014  1.00  0.00    -0.302 N 
HETATM    5  C   UNL     1     -42.067 -55.499  16.273  1.00  0.00     0.161 C 
HETATM    6  C   UNL     1     -43.392 -54.449  14.408  1.00  0.00     0.065 A 
HETATM    7  C   UNL     1     -44.693 -54.640  14.822  1.00  0.00     0.032 A 
HETATM    8  C   UNL     1     -45.707 -54.129  14.004  1.00  0.00     0.002 A 
HETATM    9  C   UNL     1     -45.399 -53.444  12.810  1.00  0.00     0.002 A 
HETATM   10  C   UNL     1     -44.074 -53.257  12.411  1.00  0.00     0.032 A 
HETATM   11  C   UNL     1     -43.086 -53.772  13.227  1.00  0.00     0.066 A 
ENDROOT
BRANCH   1  12
HETATM   12  C   UNL     1     -40.948 -53.023  12.093  1.00  0.00     0.168 C 
BRANCH  12  13
HETATM   13  C   UNL     1     -40.972 -51.496  12.299  1.00  0.00     0.160 C 
BRANCH  13  14
HETATM   14  C   UNL     1     -39.809 -51.093  13.224  1.00  0.00     0.201 C 
BRANCH  14  15
HETATM   15  O   UNL     1     -38.603 -51.738  12.813  1.00  0.00    -0.384 OA
BRANCH  15  16
HETATM   16  C   UNL     1     -37.452 -50.886  12.821  1.00  0.00     0.113 C 
HETATM   17  C   UNL     1     -37.399 -50.188  11.465  1.00  0.00     0.039 C 
HETATM   18  C   UNL     1     -37.522 -49.847  13.937  1.00  0.00     0.039 C 
ENDBRANCH  15  16
ENDBRANCH  14  15
ENDBRANCH  13  14
BRANCH  13  19
HETATM   19  O   UNL     1     -40.865 -50.826  11.033  1.00  0.00    -0.392 OA
HETATM   20  H   UNL     1     -40.129 -50.195  11.077  1.00  0.00     0.210 HD
ENDBRANCH  13  19
ENDBRANCH  12  13
ENDBRANCH   1  12
TORSDOF 6
ENDMDL
MODEL 2
REMARK VINA RESULT:      -5.5      1.223      2.812
REMARK  6 active torsions:
REMARK  status: ('A' for Active; 'I' for Inactive)
REMARK    1  A    between atoms: C_2  and  O_4 
REMARK    2  A    between atoms: O_4  and  C_5 
REMARK    3  A    between atoms: C_5  and  C_6 
REMARK    4  A    between atoms: C_6  and  O_7 
REMARK    5  A    between atoms: C_6  and  C_8 
REMARK    6  A    between atoms: C_8  and  N_9 
ROOT
HETATM    1  N   UNL     1     -41.937 -53.501  13.059  1.00  0.00    -0.295 N 
HETATM    2  C   UNL     1     -43.335 -53.648  12.940  1.00  0.00     0.329 A 
HETATM    3  O   UNL     1     -44.039 -53.194  12.051  1.00  0.00    -0.246 OA
HETATM    4  N   UNL     1     -43.746 -54.422  14.044  1.00  0.00    -0.302 N 
HETATM    5  C   UNL     1     -45.087 -54.849  14.312  1.00  0.00     0.161 C 
HETATM    6  C   UNL     1     -42.619 -54.770  14.802  1.00  0.00     0.065 A 
HETATM    7  C   UNL     1     -42.516 -55.536  15.943  1.00  0.00     0.032 A 
HETATM    8  C   UNL     1     -41.235 -55.726  16.473  1.00  0.00     0.002 A 
HETATM    9  C   UNL     1     -40.102 -55.158  15.855  1.00  0.00     0.002 A 
HETATM   10  C   UNL     1     -40.227 -54.388  14.696  1.00  0.00     0.032 A 
HETATM   11  C   UNL     1     -41.499 -54.206  14.189  1.00  0.00     0.066 A 
ENDROOT
BRANCH   1  12
HETATM   12  C   UNL     1     -41.094 -52.882  12.067  1.00  0.00     0.168 C 
BRANCH  12  13
HETATM   13  C   UNL     1     -41.020 -51.349  12.211  1.00  0.00     0.160 C 
BRANCH  13  14
HETATM   14  C   UNL     1     -39.855 -50.986  13.150  1.00  0.00     0.201 C 
BRANCH  14  15
HETATM   15  O   UNL     1     -38.663 -51.661  12.745  1.00  0.00    -0.384 OA
BRANCH  15  16
HETATM   16  C   UNL     1     -37.488 -50.842  12.777  1.00  0.00     0.113 C 
HETATM   17  C   UNL     1     -37.395 -50.136  11.428  1.00  0.00     0.039 C 
HETATM   18  C   UNL     1     -37.545 -49.810  13.900  1.00  0.00     0.039 C 
ENDBRANCH  15  16
ENDBRANCH  14  15
ENDBRANCH  13  14
BRANCH  13  19
HETATM   19  O   UNL     1     -40.835 -50.742  10.921  1.00  0.00    -0.392 OA
HETATM   20  H   UNL     1     -40.824 -51.440  10.248  1.00  0.00     0.210 HD
ENDBRANCH  13  19
ENDBRANCH  12  13
ENDBRANCH   1  12
TORSDOF 6
ENDMDL
MODEL 3
REMARK VINA RESULT:      -5.4      2.114      2.377
REMARK  6 active torsions:
REMARK  status: ('A' for Active; 'I' for Inactive)
REMARK    1  A    between atoms: C_2  and  O_4 
REMARK    2  A    between atoms: O_4  and  C_5 
REMARK    3  A    between atoms: C_5  and  C_6 
REMARK    4  A    between atoms: C_6  and  O_7 
REMARK    5  A    between atoms: C_6  and  C_8 
REMARK    6  A    between atoms: C_8  and  N_9 
ROOT
HETATM    1  N   UNL     1     -42.910 -53.177  14.224  1.00  0.00    -0.295 N 
HETATM    2  C   UNL     1     -42.666 -52.828  15.569  1.00  0.00     0.329 A 
HETATM    3  O   UNL     1     -41.648 -53.059  16.204  1.00  0.00    -0.246 OA
HETATM    4  N   UNL     1     -43.824 -52.164  16.022  1.00  0.00    -0.302 N 
HETATM    5  C   UNL     1     -44.008 -51.601  17.326  1.00  0.00     0.161 C 
HETATM    6  C   UNL     1     -44.742 -52.077  14.966  1.00  0.00     0.065 A 
HETATM    7  C   UNL     1     -45.990 -51.495  14.919  1.00  0.00     0.032 A 
HETATM    8  C   UNL     1     -46.678 -51.553  13.701  1.00  0.00     0.002 A 
HETATM    9  C   UNL     1     -46.105 -52.179  12.574  1.00  0.00     0.002 A 
HETATM   10  C   UNL     1     -44.837 -52.760  12.642  1.00  0.00     0.032 A 
HETATM   11  C   UNL     1     -44.175 -52.698  13.852  1.00  0.00     0.066 A 
ENDROOT
BRANCH   1  12
HETATM   12  C   UNL     1     -41.933 -53.762  13.342  1.00  0.00     0.168 C 
BRANCH  12  13
HETATM   13  C   UNL     1     -41.279 -52.735  12.398  1.00  0.00     0.160 C 
BRANCH  13  14
HETATM   14  C   UNL     1     -40.275 -51.884  13.198  1.00  0.00     0.201 C 
BRANCH  14  15
HETATM   15  O   UNL     1     -39.088 -51.668  12.433  1.00  0.00    -0.384 OA
BRANCH  15  16
HETATM   16  C   UNL     1     -38.727 -50.289  12.293  1.00  0.00     0.113 C 
HETATM   17  C   UNL     1     -37.445 -50.242  11.466  1.00  0.00     0.039 C 
HETATM   18  C   UNL     1     -39.821 -49.482  11.600  1.00  0.00     0.039 C 
ENDBRANCH  15  16
ENDBRANCH  14  15
ENDBRANCH  13  14
BRANCH  13  19
HETATM   19  O   UNL     1     -40.616 -53.410  11.316  1.00  0.00    -0.392 OA
HETATM   20  H   UNL     1     -39.659 -53.375  11.468  1.00  0.00     0.210 HD
ENDBRANCH  13  19
ENDBRANCH  12  13
ENDBRANCH   1  12
TORSDOF 6
ENDMDL
MODEL 4
REMARK VINA RESULT:      -5.2      2.874      4.812
REMARK  6 active torsions:
REMARK  status: ('A' for Active; 'I' for Inactive)
REMARK    1  A    between atoms: C_2  and  O_4 
REMARK    2  A    between atoms: O_4  and  C_5 
REMARK    3  A    between atoms: C_5  and  C_6 
REMARK    4  A    between atoms: C_6  and  O_7 
REMARK    5  A    between atoms: C_6  and  C_8 
REMARK    6  A    between atoms: C_8  and  N_9 
ROOT
HETATM    1  N   UNL     1     -43.344 -53.871  13.447  1.00  0.00    -0.295 N 
HETATM    2  C   UNL     1     -43.630 -54.847  14.425  1.00  0.00     0.329 A 
HETATM    3  O   UNL     1     -44.678 -55.462  14.549  1.00  0.00    -0.246 OA
HETATM    4  N   UNL     1     -42.470 -54.965  15.217  1.00  0.00    -0.302 N 
HETATM    5  C   UNL     1     -42.296 -55.869  16.314  1.00  0.00     0.161 C 
HETATM    6  C   UNL     1     -41.484 -54.106  14.711  1.00  0.00     0.065 A 
HETATM    7  C   UNL     1     -40.187 -53.898  15.130  1.00  0.00     0.032 A 
HETATM    8  C   UNL     1     -39.422 -52.974  14.407  1.00  0.00     0.002 A 
HETATM    9  C   UNL     1     -39.964 -52.295  13.297  1.00  0.00     0.002 A 
HETATM   10  C   UNL     1     -41.280 -52.524  12.887  1.00  0.00     0.032 A 
HETATM   11  C   UNL     1     -42.022 -53.434  13.613  1.00  0.00     0.066 A 
ENDROOT
BRANCH   1  12
HETATM   12  C   UNL     1     -44.217 -53.531  12.352  1.00  0.00     0.168 C 
BRANCH  12  13
HETATM   13  C   UNL     1     -45.471 -52.755  12.799  1.00  0.00     0.160 C 
BRANCH  13  14
HETATM   14  C   UNL     1     -45.053 -51.352  13.274  1.00  0.00     0.201 C 
BRANCH  14  15
HETATM   15  O   UNL     1     -45.396 -51.172  14.649  1.00  0.00    -0.384 OA
BRANCH  15  16
HETATM   16  C   UNL     1     -44.376 -50.535  15.427  1.00  0.00     0.113 C 
HETATM   17  C   UNL     1     -43.759 -51.604  16.323  1.00  0.00     0.039 C 
HETATM   18  C   UNL     1     -43.297 -49.910  14.548  1.00  0.00     0.039 C 
ENDBRANCH  15  16
ENDBRANCH  14  15
ENDBRANCH  13  14
BRANCH  13  19
HETATM   19  O   UNL     1     -46.406 -52.661  11.711  1.00  0.00    -0.392 OA
HETATM   20  H   UNL     1     -45.940 -52.860  10.883  1.00  0.00     0.210 HD
ENDBRANCH  13  19
ENDBRANCH  12  13
ENDBRANCH   1  12
TORSDOF 6
ENDMDL
MODEL 5
REMARK VINA RESULT:      -4.9      3.625      5.709
REMARK  6 active torsions:
REMARK  status: ('A' for Active; 'I' for Inactive)
REMARK    1  A    between atoms: C_2  and  O_4 
REMARK    2  A    between atoms: O_4  and  C_5 
REMARK    3  A    between atoms: C_5  and  C_6 
REMARK    4  A    between atoms: C_6  and  O_7 
REMARK    5  A    between atoms: C_6  and  C_8 
REMARK    6  A    between atoms: C_8  and  N_9 
ROOT
HETATM    1  N   UNL     1     -40.016 -50.186  11.988  1.00  0.00    -0.295 N 
HETATM    2  C   UNL     1     -39.045 -49.546  12.787  1.00  0.00     0.329 A 
HETATM    3  O   UNL     1     -38.664 -48.390  12.679  1.00  0.00    -0.246 OA
HETATM    4  N   UNL     1     -38.613 -50.503  13.728  1.00  0.00    -0.302 N 
HETATM    5  C   UNL     1     -37.653 -50.280  14.766  1.00  0.00     0.161 C 
HETATM    6  C   UNL     1     -39.331 -51.691  13.530  1.00  0.00     0.065 A 
HETATM    7  C   UNL     1     -39.280 -52.885  14.217  1.00  0.00     0.032 A 
HETATM    8  C   UNL     1     -40.141 -53.904  13.793  1.00  0.00     0.002 A 
HETATM    9  C   UNL     1     -41.023 -53.705  12.711  1.00  0.00     0.002 A 
HETATM   10  C   UNL     1     -41.062 -52.486  12.031  1.00  0.00     0.032 A 
HETATM   11  C   UNL     1     -40.202 -51.493  12.458  1.00  0.00     0.066 A 
ENDROOT
BRANCH   1  12
HETATM   12  C   UNL     1     -40.807 -49.527  10.980  1.00  0.00     0.168 C 
BRANCH  12  13
HETATM   13  C   UNL     1     -41.900 -48.615  11.571  1.00  0.00     0.160 C 
BRANCH  13  14
HETATM   14  C   UNL     1     -42.173 -47.457  10.594  1.00  0.00     0.201 C 
BRANCH  14  15
HETATM   15  O   UNL     1     -42.759 -47.952   9.389  1.00  0.00    -0.384 OA
BRANCH  15  16
HETATM   16  C   UNL     1     -43.750 -47.086   8.824  1.00  0.00     0.113 C 
HETATM   17  C   UNL     1     -45.111 -47.595   9.290  1.00  0.00     0.039 C 
HETATM   18  C   UNL     1     -43.559 -45.637   9.264  1.00  0.00     0.039 C 
ENDBRANCH  15  16
ENDBRANCH  14  15
ENDBRANCH  13  14
BRANCH  13  19
HETATM   19  O   UNL     1     -43.100 -49.372  11.803  1.00  0.00    -0.392 OA
HETATM   20  H   UNL     1     -43.842 -48.755  11.902  1.00  0.00     0.210 HD
ENDBRANCH  13  19
ENDBRANCH  12  13
ENDBRANCH   1  12
TORSDOF 6
ENDMDL
MODEL 6
REMARK VINA RESULT:      -4.9      4.762      7.758
REMARK  6 active torsions:
REMARK  status: ('A' for Active; 'I' for Inactive)
REMARK    1  A    between atoms: C_2  and  O_4 
REMARK    2  A    between atoms: O_4  and  C_5 
REMARK    3  A    between atoms: C_5  and  C_6 
REMARK    4  A    between atoms: C_6  and  O_7 
REMARK    5  A    between atoms: C_6  and  C_8 
REMARK    6  A    between atoms: C_8  and  N_9 
ROOT
HETATM    1  N   UNL     1     -40.358 -47.341  11.834  1.00  0.00    -0.295 N 
HETATM    2  C   UNL     1     -41.405 -47.492  10.900  1.00  0.00     0.329 A 
HETATM    3  O   UNL     1     -41.877 -48.548  10.505  1.00  0.00    -0.246 OA
HETATM    4  N   UNL     1     -41.791 -46.190  10.524  1.00  0.00    -0.302 N 
HETATM    5  C   UNL     1     -42.849 -45.861   9.616  1.00  0.00     0.161 C 
HETATM    6  C   UNL     1     -41.021 -45.262  11.240  1.00  0.00     0.065 A 
HETATM    7  C   UNL     1     -41.056 -43.884  11.233  1.00  0.00     0.032 A 
HETATM    8  C   UNL     1     -40.163 -43.217  12.080  1.00  0.00     0.002 A 
HETATM    9  C   UNL     1     -39.272 -43.935  12.904  1.00  0.00     0.002 A 
HETATM   10  C   UNL     1     -39.255 -45.331  12.898  1.00  0.00     0.032 A 
HETATM   11  C   UNL     1     -40.139 -45.974  12.054  1.00  0.00     0.066 A 
ENDROOT
BRANCH   1  12
HETATM   12  C   UNL     1     -39.755 -48.424  12.568  1.00  0.00     0.168 C 
BRANCH  12  13
HETATM   13  C   UNL     1     -38.648 -49.147  11.776  1.00  0.00     0.160 C 
BRANCH  13  14
HETATM   14  C   UNL     1     -37.779 -49.961  12.752  1.00  0.00     0.201 C 
BRANCH  14  15
HETATM   15  O   UNL     1     -38.069 -51.354  12.630  1.00  0.00    -0.384 OA
BRANCH  15  16
HETATM   16  C   UNL     1     -38.662 -51.932  13.799  1.00  0.00     0.113 C 
HETATM   17  C   UNL     1     -38.321 -51.021  14.974  1.00  0.00     0.039 C 
HETATM   18  C   UNL     1     -40.177 -52.061  13.664  1.00  0.00     0.039 C 
ENDBRANCH  15  16
ENDBRANCH  14  15
ENDBRANCH  13  14
BRANCH  13  19
HETATM   19  O   UNL     1     -39.233 -50.008  10.784  1.00  0.00    -0.392 OA
HETATM   20  H   UNL     1     -39.334 -49.508   9.960  1.00  0.00     0.210 HD
ENDBRANCH  13  19
ENDBRANCH  12  13
ENDBRANCH   1  12
TORSDOF 6
ENDMDL
MODEL 7
REMARK VINA RESULT:      -4.9      2.489      3.080
REMARK  6 active torsions:
REMARK  status: ('A' for Active; 'I' for Inactive)
REMARK    1  A    between atoms: C_2  and  O_4 
REMARK    2  A    between atoms: O_4  and  C_5 
REMARK    3  A    between atoms: C_5  and  C_6 
REMARK    4  A    between atoms: C_6  and  O_7 
REMARK    5  A    between atoms: C_6  and  C_8 
REMARK    6  A    between atoms: C_8  and  N_9 
ROOT
HETATM    1  N   UNL     1     -42.477 -52.710  14.431  1.00  0.00    -0.295 N 
HETATM    2  C   UNL     1     -42.703 -51.520  15.155  1.00  0.00     0.329 A 
HETATM    3  O   UNL     1     -41.887 -50.637  15.370  1.00  0.00    -0.246 OA
HETATM    4  N   UNL     1     -44.050 -51.560  15.571  1.00  0.00    -0.302 N 
HETATM    5  C   UNL     1     -44.726 -50.536  16.309  1.00  0.00     0.161 C 
HETATM    6  C   UNL     1     -44.643 -52.732  15.081  1.00  0.00     0.065 A 
HETATM    7  C   UNL     1     -45.937 -53.190  15.202  1.00  0.00     0.032 A 
HETATM    8  C   UNL     1     -46.246 -54.407  14.582  1.00  0.00     0.002 A 
HETATM    9  C   UNL     1     -45.267 -55.124  13.864  1.00  0.00     0.002 A 
HETATM   10  C   UNL     1     -43.961 -54.640  13.751  1.00  0.00     0.032 A 
HETATM   11  C   UNL     1     -43.673 -53.440  14.371  1.00  0.00     0.066 A 
ENDROOT
BRANCH   1  12
HETATM   12  C   UNL     1     -41.262 -53.015  13.720  1.00  0.00     0.168 C 
BRANCH  12  13
HETATM   13  C   UNL     1     -41.269 -52.506  12.266  1.00  0.00     0.160 C 
BRANCH  13  14
HETATM   14  C   UNL     1     -40.556 -51.143  12.205  1.00  0.00     0.201 C 
BRANCH  14  15
HETATM   15  O   UNL     1     -41.467 -50.125  11.790  1.00  0.00    -0.384 OA
BRANCH  15  16
HETATM   16  C   UNL     1     -40.864 -49.082  11.015  1.00  0.00     0.113 C 
HETATM   17  C   UNL     1     -41.979 -48.124  10.605  1.00  0.00     0.039 C 
HETATM   18  C   UNL     1     -39.798 -48.329  11.805  1.00  0.00     0.039 C 
ENDBRANCH  15  16
ENDBRANCH  14  15
ENDBRANCH  13  14
BRANCH  13  19
HETATM   19  O   UNL     1     -40.616 -53.456  11.408  1.00  0.00    -0.392 OA
HETATM   20  H   UNL     1     -41.202 -54.218  11.284  1.00  0.00     0.210 HD
ENDBRANCH  13  19
ENDBRANCH  12  13
ENDBRANCH   1  12
TORSDOF 6
ENDMDL
MODEL 8
REMARK VINA RESULT:      -4.9      2.770      4.404
REMARK  6 active torsions:
REMARK  status: ('A' for Active; 'I' for Inactive)
REMARK    1  A    between atoms: C_2  and  O_4 
REMARK    2  A    between atoms: O_4  and  C_5 
REMARK    3  A    between atoms: C_5  and  C_6 
REMARK    4  A    between atoms: C_6  and  O_7 
REMARK    5  A    between atoms: C_6  and  C_8 
REMARK    6  A    between atoms: C_8  and  N_9 
ROOT
HETATM    1  N   UNL     1     -43.810 -52.553  13.097  1.00  0.00    -0.295 N 
HETATM    2  C   UNL     1     -44.771 -53.571  13.273  1.00  0.00     0.329 A 
HETATM    3  O   UNL     1     -44.929 -54.550  12.559  1.00  0.00    -0.246 OA
HETATM    4  N   UNL     1     -45.499 -53.231  14.431  1.00  0.00    -0.302 N 
HETATM    5  C   UNL     1     -46.558 -54.004  15.008  1.00  0.00     0.161 C 
HETATM    6  C   UNL     1     -44.972 -52.050  14.971  1.00  0.00     0.065 A 
HETATM    7  C   UNL     1     -45.330 -51.353  16.104  1.00  0.00     0.032 A 
HETATM    8  C   UNL     1     -44.599 -50.197  16.403  1.00  0.00     0.002 A 
HETATM    9  C   UNL     1     -43.539 -49.775  15.575  1.00  0.00     0.002 A 
HETATM   10  C   UNL     1     -43.189 -50.499  14.432  1.00  0.00     0.032 A 
HETATM   11  C   UNL     1     -43.923 -51.634  14.149  1.00  0.00     0.066 A 
ENDROOT
BRANCH   1  12
HETATM   12  C   UNL     1     -42.771 -52.574  12.098  1.00  0.00     0.168 C 
BRANCH  12  13
HETATM   13  C   UNL     1     -41.399 -52.991  12.663  1.00  0.00     0.160 C 
BRANCH  13  14
HETATM   14  C   UNL     1     -41.571 -54.257  13.522  1.00  0.00     0.201 C 
BRANCH  14  15
HETATM   15  O   UNL     1     -40.769 -54.168  14.701  1.00  0.00    -0.384 OA
BRANCH  15  16
HETATM   16  C   UNL     1     -41.453 -54.542  15.902  1.00  0.00     0.113 C 
HETATM   17  C   UNL     1     -41.800 -53.254  16.642  1.00  0.00     0.039 C 
HETATM   18  C   UNL     1     -42.726 -55.332  15.610  1.00  0.00     0.039 C 
ENDBRANCH  15  16
ENDBRANCH  14  15
ENDBRANCH  13  14
BRANCH  13  19
HETATM   19  O   UNL     1     -40.477 -53.233  11.588  1.00  0.00    -0.392 OA
HETATM   20  H   UNL     1     -40.980 -53.345  10.766  1.00  0.00     0.210 HD
ENDBRANCH  13  19
ENDBRANCH  12  13
ENDBRANCH   1  12
TORSDOF 6
ENDMDL
MODEL 9
REMARK VINA RESULT:      -4.8      2.167      2.372
REMARK  6 active torsions:
REMARK  status: ('A' for Active; 'I' for Inactive)
REMARK    1  A    between atoms: C_2  and  O_4 
REMARK    2  A    between atoms: O_4  and  C_5 
REMARK    3  A    between atoms: C_5  and  C_6 
REMARK    4  A    between atoms: C_6  and  O_7 
REMARK    5  A    between atoms: C_6  and  C_8 
REMARK    6  A    between atoms: C_8  and  N_9 
ROOT
HETATM    1  N   UNL     1     -42.479 -52.054  13.652  1.00  0.00    -0.295 N 
HETATM    2  C   UNL     1     -41.973 -53.245  14.215  1.00  0.00     0.329 A 
HETATM    3  O   UNL     1     -40.795 -53.540  14.350  1.00  0.00    -0.246 OA
HETATM    4  N   UNL     1     -43.094 -54.013  14.589  1.00  0.00    -0.302 N 
HETATM    5  C   UNL     1     -43.054 -55.291  15.235  1.00  0.00     0.161 C 
HETATM    6  C   UNL     1     -44.259 -53.292  14.293  1.00  0.00     0.065 A 
HETATM    7  C   UNL     1     -45.582 -53.615  14.503  1.00  0.00     0.032 A 
HETATM    8  C   UNL     1     -46.542 -52.673  14.113  1.00  0.00     0.002 A 
HETATM    9  C   UNL     1     -46.159 -51.446  13.534  1.00  0.00     0.002 A 
HETATM   10  C   UNL     1     -44.811 -51.136  13.333  1.00  0.00     0.032 A 
HETATM   11  C   UNL     1     -43.879 -52.078  13.719  1.00  0.00     0.066 A 
ENDROOT
BRANCH   1  12
HETATM   12  C   UNL     1     -41.669 -50.932  13.252  1.00  0.00     0.168 C 
BRANCH  12  13
HETATM   13  C   UNL     1     -41.024 -51.117  11.864  1.00  0.00     0.160 C 
BRANCH  13  14
HETATM   14  C   UNL     1     -40.628 -49.739  11.304  1.00  0.00     0.201 C 
BRANCH  14  15
HETATM   15  O   UNL     1     -39.701 -49.096  12.180  1.00  0.00    -0.384 OA
BRANCH  15  16
HETATM   16  C   UNL     1     -39.635 -47.674  12.018  1.00  0.00     0.113 C 
HETATM   17  C   UNL     1     -40.786 -47.271  11.102  1.00  0.00     0.039 C 
HETATM   18  C   UNL     1     -39.754 -46.944  13.353  1.00  0.00     0.039 C 
ENDBRANCH  15  16
ENDBRANCH  14  15
ENDBRANCH  13  14
BRANCH  13  19
HETATM   19  O   UNL     1     -39.872 -51.970  11.965  1.00  0.00    -0.392 OA
HETATM   20  H   UNL     1     -40.128 -52.785  12.424  1.00  0.00     0.210 HD
ENDBRANCH  13  19
ENDBRANCH  12  13
ENDBRANCH   1  12
TORSDOF 6
ENDMDL
