MODEL 1
REMARK VINA RESULT:      -5.3      0.000      0.000
REMARK  6 active torsions:
REMARK  status: ('A' for Active; 'I' for Inactive)
REMARK    1  A    between atoms: C_2  and  O_3 
REMARK    2  A    between atoms: O_3  and  C_4 
REMARK    3  A    between atoms: C_6  and  N_7 
REMARK    4  A    between atoms: N_7  and  C_8 
REMARK    5  A    between atoms: C_8  and  C_9 
REMARK    6  A    between atoms: C_9  and  C_10 
ROOT
HETATM    1  N   UNL     1     -41.946 -53.199  14.493  1.00  0.00     0.089 N 
HETATM    2  H   UNL     1     -41.530 -53.583  15.343  1.00  0.00     0.316 HD
ENDROOT
BRANCH   1   3
HETATM    3  C   UNL     1     -42.851 -54.101  13.765  1.00  0.00     0.233 C 
HETATM    4  C   UNL     1     -43.293 -53.390  12.463  1.00  0.00     0.069 C 
HETATM    5  C   UNL     1     -44.573 -52.910  13.181  1.00  0.00     0.133 C 
HETATM    6  C   UNL     1     -44.335 -54.026  14.257  1.00  0.00     0.009 C 
HETATM    7  C   UNL     1     -44.698 -53.556  15.666  1.00  0.00     0.020 C 
HETATM    8  C   UNL     1     -45.022 -55.374  13.971  1.00  0.00     0.020 C 
BRANCH   5   9
HETATM    9  O   UNL     1     -45.800 -52.980  12.422  1.00  0.00    -0.385 OA
BRANCH   9  10
HETATM   10  C   UNL     1     -46.596 -51.796  12.436  1.00  0.00     0.163 C 
HETATM   11  C   UNL     1     -46.823 -51.362  13.868  1.00  0.00     0.033 C 
ENDBRANCH   9  10
ENDBRANCH   5   9
ENDBRANCH   1   3
BRANCH   1  12
HETATM   12  C   UNL     1     -40.873 -52.669  13.635  1.00  0.00     0.275 C 
BRANCH  12  13
HETATM   13  C   UNL     1     -40.424 -51.237  13.956  1.00  0.00     0.072 C 
BRANCH  13  14
HETATM   14  C   UNL     1     -40.498 -50.347  12.758  1.00  0.00    -0.009 A 
HETATM   15  C   UNL     1     -39.444 -50.003  11.870  1.00  0.00     0.030 A 
HETATM   16  C   UNL     1     -38.029 -50.444  11.896  1.00  0.00     0.070 C 
HETATM   17  N   UNL     1     -39.859 -49.169  10.913  1.00  0.00    -0.303 N 
HETATM   18  N   UNL     1     -41.162 -48.970  11.181  1.00  0.00    -0.300 N 
ATOM     19  HN  UNL     1     -39.311 -48.772  10.150  1.00  0.00     0.186 HD
HETATM   20  C   UNL     1     -41.918 -48.064  10.350  1.00  0.00     0.177 C 
HETATM   21  C   UNL     1     -41.611 -49.681  12.263  1.00  0.00     0.032 A 
HETATM   22  C   UNL     1     -43.019 -49.679  12.738  1.00  0.00     0.070 C 
ENDBRANCH  13  14
ENDBRANCH  12  13
ENDBRANCH   1  12
TORSDOF 6
ENDMDL
MODEL 2
REMARK VINA RESULT:      -5.2      2.453      4.022
REMARK  6 active torsions:
REMARK  status: ('A' for Active; 'I' for Inactive)
REMARK    1  A    between atoms: C_2  and  O_3 
REMARK    2  A    between atoms: O_3  and  C_4 
REMARK    3  A    between atoms: C_6  and  N_7 
REMARK    4  A    between atoms: N_7  and  C_8 
REMARK    5  A    between atoms: C_8  and  C_9 
REMARK    6  A    between atoms: C_9  and  C_10 
ROOT
HETATM    1  N   UNL     1     -43.727 -50.055  12.563  1.00  0.00     0.089 N 
HETATM    2  H   UNL     1     -44.409 -49.592  11.960  1.00  0.00     0.316 HD
ENDROOT
BRANCH   1   3
HETATM    3  C   UNL     1     -44.202 -50.398  13.913  1.00  0.00     0.233 C 
HETATM    4  C   UNL     1     -43.227 -51.439  14.514  1.00  0.00     0.069 C 
HETATM    5  C   UNL     1     -44.172 -52.566  14.047  1.00  0.00     0.133 C 
HETATM    6  C   UNL     1     -45.314 -51.498  13.923  1.00  0.00     0.009 C 
HETATM    7  C   UNL     1     -46.212 -51.752  12.712  1.00  0.00     0.020 C 
HETATM    8  C   UNL     1     -46.184 -51.314  15.180  1.00  0.00     0.020 C 
BRANCH   5   9
HETATM    9  O   UNL     1     -44.387 -53.652  14.975  1.00  0.00    -0.385 OA
BRANCH   9  10
HETATM   10  C   UNL     1     -44.272 -54.962  14.422  1.00  0.00     0.163 C 
HETATM   11  C   UNL     1     -45.601 -55.371  13.825  1.00  0.00     0.033 C 
ENDBRANCH   9  10
ENDBRANCH   5   9
ENDBRANCH   1   3
BRANCH   1  12
HETATM   12  C   UNL     1     -42.492 -49.253  12.589  1.00  0.00     0.275 C 
BRANCH  12  13
HETATM   13  C   UNL     1     -42.694 -47.745  12.784  1.00  0.00     0.072 C 
BRANCH  13  14
HETATM   14  C   UNL     1     -42.029 -46.949  11.708  1.00  0.00    -0.009 A 
HETATM   15  C   UNL     1     -42.468 -46.767  10.370  1.00  0.00     0.030 A 
HETATM   16  C   UNL     1     -43.686 -47.299   9.713  1.00  0.00     0.070 C 
HETATM   17  N   UNL     1     -41.620 -46.006   9.673  1.00  0.00    -0.303 N 
HETATM   18  N   UNL     1     -40.641 -45.706  10.545  1.00  0.00    -0.300 N 
ATOM     19  HN  UNL     1     -41.697 -45.718   8.698  1.00  0.00     0.186 HD
HETATM   20  C   UNL     1     -39.518 -44.919  10.095  1.00  0.00     0.177 C 
HETATM   21  C   UNL     1     -40.851 -46.219  11.798  1.00  0.00     0.032 A 
HETATM   22  C   UNL     1     -39.948 -45.991  12.956  1.00  0.00     0.070 C 
ENDBRANCH  13  14
ENDBRANCH  12  13
ENDBRANCH   1  12
TORSDOF 6
ENDMDL
MODEL 3
REMARK VINA RESULT:      -5.1      3.551      5.997
REMARK  6 active torsions:
REMARK  status: ('A' for Active; 'I' for Inactive)
REMARK    1  A    between atoms: C_2  and  O_3 
REMARK    2  A    between atoms: O_3  and  C_4 
REMARK    3  A    between atoms: C_6  and  N_7 
REMARK    4  A    between atoms: N_7  and  C_8 
REMARK    5  A    between atoms: C_8  and  C_9 
REMARK    6  A    between atoms: C_9  and  C_10 
ROOT
HETATM    1  N   UNL     1     -41.682 -48.548   9.966  1.00  0.00     0.089 N 
HETATM    2  H   UNL     1     -41.084 -48.667   9.147  1.00  0.00     0.316 HD
ENDROOT
BRANCH   1   3
HETATM    3  C   UNL     1     -42.411 -47.273  10.040  1.00  0.00     0.233 C 
HETATM    4  C   UNL     1     -43.595 -47.453  11.022  1.00  0.00     0.069 C 
HETATM    5  C   UNL     1     -44.520 -47.752   9.823  1.00  0.00     0.133 C 
HETATM    6  C   UNL     1     -43.454 -47.081   8.889  1.00  0.00     0.009 C 
HETATM    7  C   UNL     1     -43.322 -47.807   7.549  1.00  0.00     0.020 C 
HETATM    8  C   UNL     1     -43.649 -45.574   8.642  1.00  0.00     0.020 C 
BRANCH   5   9
HETATM    9  O   UNL     1     -45.833 -47.151   9.858  1.00  0.00    -0.385 OA
BRANCH   9  10
HETATM   10  C   UNL     1     -46.755 -47.638   8.886  1.00  0.00     0.163 C 
HETATM   11  C   UNL     1     -46.839 -49.146   8.987  1.00  0.00     0.033 C 
ENDBRANCH   9  10
ENDBRANCH   5   9
ENDBRANCH   1   3
BRANCH   1  12
HETATM   12  C   UNL     1     -40.889 -48.813  11.178  1.00  0.00     0.275 C 
BRANCH  12  13
HETATM   13  C   UNL     1     -40.621 -50.294  11.475  1.00  0.00     0.072 C 
BRANCH  13  14
HETATM   14  C   UNL     1     -39.595 -50.472  12.547  1.00  0.00    -0.009 A 
HETATM   15  C   UNL     1     -38.185 -50.360  12.422  1.00  0.00     0.030 A 
HETATM   16  C   UNL     1     -37.384 -50.029  11.218  1.00  0.00     0.070 C 
HETATM   17  N   UNL     1     -37.567 -50.600  13.581  1.00  0.00    -0.303 N 
HETATM   18  N   UNL     1     -38.563 -50.870  14.444  1.00  0.00    -0.300 N 
ATOM     19  HN  UNL     1     -36.565 -50.582  13.770  1.00  0.00     0.186 HD
HETATM   20  C   UNL     1     -38.234 -51.224  15.805  1.00  0.00     0.177 C 
HETATM   21  C   UNL     1     -39.810 -50.775  13.885  1.00  0.00     0.032 A 
HETATM   22  C   UNL     1     -41.078 -50.974  14.633  1.00  0.00     0.070 C 
ENDBRANCH  13  14
ENDBRANCH  12  13
ENDBRANCH   1  12
TORSDOF 6
ENDMDL
MODEL 4
REMARK VINA RESULT:      -5.0      2.006      3.927
REMARK  6 active torsions:
REMARK  status: ('A' for Active; 'I' for Inactive)
REMARK    1  A    between atoms: C_2  and  O_3 
REMARK    2  A    between atoms: O_3  and  C_4 
REMARK    3  A    between atoms: C_6  and  N_7 
REMARK    4  A    between atoms: N_7  and  C_8 
REMARK    5  A    between atoms: C_8  and  C_9 
REMARK    6  A    between atoms: C_9  and  C_10 
ROOT
HETATM    1  N   UNL     1     -43.709 -50.356  12.630  1.00  0.00     0.089 N 
HETATM    2  H   UNL     1     -44.112 -49.664  11.996  1.00  0.00     0.316 HD
ENDROOT
BRANCH   1   3
HETATM    3  C   UNL     1     -44.411 -50.524  13.912  1.00  0.00     0.233 C 
HETATM    4  C   UNL     1     -43.590 -51.505  14.783  1.00  0.00     0.069 C 
HETATM    5  C   UNL     1     -44.491 -52.661  14.298  1.00  0.00     0.133 C 
HETATM    6  C   UNL     1     -45.554 -51.592  13.864  1.00  0.00     0.009 C 
HETATM    7  C   UNL     1     -46.252 -51.971  12.558  1.00  0.00     0.020 C 
HETATM    8  C   UNL     1     -46.608 -51.241  14.929  1.00  0.00     0.020 C 
BRANCH   5   9
HETATM    9  O   UNL     1     -44.897 -53.623  15.297  1.00  0.00    -0.385 OA
BRANCH   9  10
HETATM   10  C   UNL     1     -44.671 -54.990  14.958  1.00  0.00     0.163 C 
HETATM   11  C   UNL     1     -45.514 -55.353  13.754  1.00  0.00     0.033 C 
ENDBRANCH   9  10
ENDBRANCH   5   9
ENDBRANCH   1   3
BRANCH   1  12
HETATM   12  C   UNL     1     -42.278 -50.065  12.808  1.00  0.00     0.275 C 
BRANCH  12  13
HETATM   13  C   UNL     1     -41.324 -50.940  11.984  1.00  0.00     0.072 C 
BRANCH  13  14
HETATM   14  C   UNL     1     -40.390 -51.719  12.852  1.00  0.00    -0.009 A 
HETATM   15  C   UNL     1     -39.196 -51.259  13.469  1.00  0.00     0.030 A 
HETATM   16  C   UNL     1     -38.590 -49.906  13.422  1.00  0.00     0.070 C 
HETATM   17  N   UNL     1     -38.595 -52.228  14.164  1.00  0.00    -0.303 N 
HETATM   18  N   UNL     1     -39.386 -53.303  13.995  1.00  0.00    -0.300 N 
ATOM     19  HN  UNL     1     -37.732 -52.166  14.703  1.00  0.00     0.186 HD
HETATM   20  C   UNL     1     -38.995 -54.560  14.587  1.00  0.00     0.177 C 
HETATM   21  C   UNL     1     -40.500 -53.047  13.240  1.00  0.00     0.032 A 
HETATM   22  C   UNL     1     -41.558 -54.049  12.947  1.00  0.00     0.070 C 
ENDBRANCH  13  14
ENDBRANCH  12  13
ENDBRANCH   1  12
TORSDOF 6
ENDMDL
MODEL 5
REMARK VINA RESULT:      -4.9      1.862      3.523
REMARK  6 active torsions:
REMARK  status: ('A' for Active; 'I' for Inactive)
REMARK    1  A    between atoms: C_2  and  O_3 
REMARK    2  A    between atoms: O_3  and  C_4 
REMARK    3  A    between atoms: C_6  and  N_7 
REMARK    4  A    between atoms: N_7  and  C_8 
REMARK    5  A    between atoms: C_8  and  C_9 
REMARK    6  A    between atoms: C_9  and  C_10 
ROOT
HETATM    1  N   UNL     1     -43.861 -50.093  12.530  1.00  0.00     0.089 N 
HETATM    2  H   UNL     1     -44.577 -50.003  11.807  1.00  0.00     0.316 HD
ENDROOT
BRANCH   1   3
HETATM    3  C   UNL     1     -44.355 -50.411  13.878  1.00  0.00     0.233 C 
HETATM    4  C   UNL     1     -43.359 -51.396  14.534  1.00  0.00     0.069 C 
HETATM    5  C   UNL     1     -44.252 -52.572  14.081  1.00  0.00     0.133 C 
HETATM    6  C   UNL     1     -45.428 -51.550  13.898  1.00  0.00     0.009 C 
HETATM    7  C   UNL     1     -46.287 -51.874  12.675  1.00  0.00     0.020 C 
HETATM    8  C   UNL     1     -46.333 -51.359  15.128  1.00  0.00     0.020 C 
BRANCH   5   9
HETATM    9  O   UNL     1     -44.449 -53.635  15.039  1.00  0.00    -0.385 OA
BRANCH   9  10
HETATM   10  C   UNL     1     -44.294 -54.957  14.525  1.00  0.00     0.163 C 
HETATM   11  C   UNL     1     -45.560 -55.366  13.804  1.00  0.00     0.033 C 
ENDBRANCH   9  10
ENDBRANCH   5   9
ENDBRANCH   1   3
BRANCH   1  12
HETATM   12  C   UNL     1     -43.013 -48.890  12.511  1.00  0.00     0.275 C 
BRANCH  12  13
HETATM   13  C   UNL     1     -41.959 -48.847  11.396  1.00  0.00     0.072 C 
BRANCH  13  14
HETATM   14  C   UNL     1     -40.585 -49.118  11.916  1.00  0.00    -0.009 A 
HETATM   15  C   UNL     1     -39.582 -48.168  12.244  1.00  0.00     0.030 A 
HETATM   16  C   UNL     1     -39.646 -46.689  12.170  1.00  0.00     0.070 C 
HETATM   17  N   UNL     1     -38.461 -48.761  12.666  1.00  0.00    -0.303 N 
HETATM   18  N   UNL     1     -38.733 -50.077  12.605  1.00  0.00    -0.300 N 
ATOM     19  HN  UNL     1     -37.594 -48.315  12.966  1.00  0.00     0.186 HD
HETATM   20  C   UNL     1     -37.699 -51.023  12.954  1.00  0.00     0.177 C 
HETATM   21  C   UNL     1     -40.010 -50.351  12.192  1.00  0.00     0.032 A 
HETATM   22  C   UNL     1     -40.578 -51.721  12.088  1.00  0.00     0.070 C 
ENDBRANCH  13  14
ENDBRANCH  12  13
ENDBRANCH   1  12
TORSDOF 6
ENDMDL
MODEL 6
REMARK VINA RESULT:      -4.9      3.458      6.256
REMARK  6 active torsions:
REMARK  status: ('A' for Active; 'I' for Inactive)
REMARK    1  A    between atoms: C_2  and  O_3 
REMARK    2  A    between atoms: O_3  and  C_4 
REMARK    3  A    between atoms: C_6  and  N_7 
REMARK    4  A    between atoms: N_7  and  C_8 
REMARK    5  A    between atoms: C_8  and  C_9 
REMARK    6  A    between atoms: C_9  and  C_10 
ROOT
HETATM    1  N   UNL     1     -40.160 -48.163  13.016  1.00  0.00     0.089 N 
HETATM    2  H   UNL     1     -39.992 -48.343  14.007  1.00  0.00     0.316 HD
ENDROOT
BRANCH   1   3
HETATM    3  C   UNL     1     -39.530 -49.109  12.083  1.00  0.00     0.233 C 
HETATM    4  C   UNL     1     -40.480 -50.320  11.914  1.00  0.00     0.069 C 
HETATM    5  C   UNL     1     -39.682 -51.074  12.999  1.00  0.00     0.133 C 
HETATM    6  C   UNL     1     -38.500 -50.069  12.768  1.00  0.00     0.009 C 
HETATM    7  C   UNL     1     -37.794 -49.700  14.072  1.00  0.00     0.020 C 
HETATM    8  C   UNL     1     -37.458 -50.507  11.723  1.00  0.00     0.020 C 
BRANCH   5   9
HETATM    9  O   UNL     1     -39.415 -52.471  12.746  1.00  0.00    -0.385 OA
BRANCH   9  10
HETATM   10  C   UNL     1     -39.892 -53.375  13.742  1.00  0.00     0.163 C 
HETATM   11  C   UNL     1     -41.194 -53.991  13.277  1.00  0.00     0.033 C 
ENDBRANCH   9  10
ENDBRANCH   5   9
ENDBRANCH   1   3
BRANCH   1  12
HETATM   12  C   UNL     1     -39.808 -46.764  12.720  1.00  0.00     0.275 C 
BRANCH  12  13
HETATM   13  C   UNL     1     -39.971 -46.343  11.254  1.00  0.00     0.072 C 
BRANCH  13  14
HETATM   14  C   UNL     1     -41.174 -45.479  11.051  1.00  0.00    -0.009 A 
HETATM   15  C   UNL     1     -42.453 -45.874  10.580  1.00  0.00     0.030 A 
HETATM   16  C   UNL     1     -42.921 -47.226  10.189  1.00  0.00     0.070 C 
HETATM   17  N   UNL     1     -43.293 -44.838  10.505  1.00  0.00    -0.303 N 
HETATM   18  N   UNL     1     -42.564 -43.784  10.915  1.00  0.00    -0.300 N 
ATOM     19  HN  UNL     1     -44.267 -44.844  10.203  1.00  0.00     0.186 HD
HETATM   20  C   UNL     1     -43.166 -42.472  10.911  1.00  0.00     0.177 C 
HETATM   21  C   UNL     1     -41.289 -44.116  11.289  1.00  0.00     0.032 A 
HETATM   22  C   UNL     1     -40.298 -43.147  11.828  1.00  0.00     0.070 C 
ENDBRANCH  13  14
ENDBRANCH  12  13
ENDBRANCH   1  12
TORSDOF 6
ENDMDL
MODEL 7
REMARK VINA RESULT:      -4.9      1.892      2.966
REMARK  6 active torsions:
REMARK  status: ('A' for Active; 'I' for Inactive)
REMARK    1  A    between atoms: C_2  and  O_3 
REMARK    2  A    between atoms: O_3  and  C_4 
REMARK    3  A    between atoms: C_6  and  N_7 
REMARK    4  A    between atoms: N_7  and  C_8 
REMARK    5  A    between atoms: C_8  and  C_9 
REMARK    6  A    between atoms: C_9  and  C_10 
ROOT
HETATM    1  N   UNL     1     -42.343 -53.323  14.642  1.00  0.00     0.089 N 
HETATM    2  H   UNL     1     -42.768 -52.953  15.494  1.00  0.00     0.316 HD
ENDROOT
BRANCH   1   3
HETATM    3  C   UNL     1     -43.218 -54.162  13.809  1.00  0.00     0.233 C 
HETATM    4  C   UNL     1     -43.479 -53.412  12.481  1.00  0.00     0.069 C 
HETATM    5  C   UNL     1     -44.798 -52.866  13.070  1.00  0.00     0.133 C 
HETATM    6  C   UNL     1     -44.738 -54.007  14.145  1.00  0.00     0.009 C 
HETATM    7  C   UNL     1     -45.218 -53.532  15.517  1.00  0.00     0.020 C 
HETATM    8  C   UNL     1     -45.467 -55.309  13.766  1.00  0.00     0.020 C 
BRANCH   5   9
HETATM    9  O   UNL     1     -45.941 -52.856  12.187  1.00  0.00    -0.385 OA
BRANCH   9  10
HETATM   10  C   UNL     1     -46.764 -51.693  12.266  1.00  0.00     0.163 C 
HETATM   11  C   UNL     1     -47.508 -51.516  10.960  1.00  0.00     0.033 C 
ENDBRANCH   9  10
ENDBRANCH   5   9
ENDBRANCH   1   3
BRANCH   1  12
HETATM   12  C   UNL     1     -41.084 -53.999  14.993  1.00  0.00     0.275 C 
BRANCH  12  13
HETATM   13  C   UNL     1     -39.872 -53.616  14.133  1.00  0.00     0.072 C 
BRANCH  13  14
HETATM   14  C   UNL     1     -39.519 -52.171  14.278  1.00  0.00    -0.009 A 
HETATM   15  C   UNL     1     -39.785 -51.120  13.362  1.00  0.00     0.030 A 
HETATM   16  C   UNL     1     -40.484 -51.183  12.055  1.00  0.00     0.070 C 
HETATM   17  N   UNL     1     -39.313 -49.950  13.803  1.00  0.00    -0.303 N 
HETATM   18  N   UNL     1     -38.743 -50.242  14.985  1.00  0.00    -0.300 N 
ATOM     19  HN  UNL     1     -39.372 -49.041  13.345  1.00  0.00     0.186 HD
HETATM   20  C   UNL     1     -38.083 -49.191  15.723  1.00  0.00     0.177 C 
HETATM   21  C   UNL     1     -38.865 -51.560  15.340  1.00  0.00     0.032 A 
HETATM   22  C   UNL     1     -38.368 -52.130  16.619  1.00  0.00     0.070 C 
ENDBRANCH  13  14
ENDBRANCH  12  13
ENDBRANCH   1  12
TORSDOF 6
ENDMDL
MODEL 8
REMARK VINA RESULT:      -4.9      3.631      5.675
REMARK  6 active torsions:
REMARK  status: ('A' for Active; 'I' for Inactive)
REMARK    1  A    between atoms: C_2  and  O_3 
REMARK    2  A    between atoms: O_3  and  C_4 
REMARK    3  A    between atoms: C_6  and  N_7 
REMARK    4  A    between atoms: N_7  and  C_8 
REMARK    5  A    between atoms: C_8  and  C_9 
REMARK    6  A    between atoms: C_9  and  C_10 
ROOT
HETATM    1  N   UNL     1     -39.513 -47.992  13.646  1.00  0.00     0.089 N 
HETATM    2  H   UNL     1     -39.223 -48.301  14.575  1.00  0.00     0.316 HD
ENDROOT
BRANCH   1   3
HETATM    3  C   UNL     1     -39.103 -48.861  12.532  1.00  0.00     0.233 C 
HETATM    4  C   UNL     1     -40.292 -49.790  12.186  1.00  0.00     0.069 C 
HETATM    5  C   UNL     1     -39.676 -50.884  13.083  1.00  0.00     0.133 C 
HETATM    6  C   UNL     1     -38.305 -50.128  12.989  1.00  0.00     0.009 C 
HETATM    7  C   UNL     1     -37.534 -50.165  14.308  1.00  0.00     0.020 C 
HETATM    8  C   UNL     1     -37.383 -50.575  11.840  1.00  0.00     0.020 C 
BRANCH   5   9
HETATM    9  O   UNL     1     -39.718 -52.235  12.571  1.00  0.00    -0.385 OA
BRANCH   9  10
HETATM   10  C   UNL     1     -40.121 -53.231  13.508  1.00  0.00     0.163 C 
HETATM   11  C   UNL     1     -40.796 -52.565  14.688  1.00  0.00     0.033 C 
ENDBRANCH   9  10
ENDBRANCH   5   9
ENDBRANCH   1   3
BRANCH   1  12
HETATM   12  C   UNL     1     -39.089 -46.596  13.454  1.00  0.00     0.275 C 
BRANCH  12  13
HETATM   13  C   UNL     1     -40.224 -45.594  13.207  1.00  0.00     0.072 C 
BRANCH  13  14
HETATM   14  C   UNL     1     -41.022 -45.941  11.992  1.00  0.00    -0.009 A 
HETATM   15  C   UNL     1     -40.710 -45.644  10.639  1.00  0.00     0.030 A 
HETATM   16  C   UNL     1     -39.525 -44.937  10.094  1.00  0.00     0.070 C 
HETATM   17  N   UNL     1     -41.655 -46.089   9.806  1.00  0.00    -0.303 N 
HETATM   18  N   UNL     1     -42.569 -46.660  10.610  1.00  0.00    -0.300 N 
ATOM     19  HN  UNL     1     -41.677 -46.012   8.790  1.00  0.00     0.186 HD
HETATM   20  C   UNL     1     -43.768 -47.212  10.024  1.00  0.00     0.177 C 
HETATM   21  C   UNL     1     -42.225 -46.631  11.935  1.00  0.00     0.032 A 
HETATM   22  C   UNL     1     -43.037 -47.239  13.022  1.00  0.00     0.070 C 
ENDBRANCH  13  14
ENDBRANCH  12  13
ENDBRANCH   1  12
TORSDOF 6
ENDMDL
MODEL 9
REMARK VINA RESULT:      -4.8      1.977      3.139
REMARK  6 active torsions:
REMARK  status: ('A' for Active; 'I' for Inactive)
REMARK    1  A    between atoms: C_2  and  O_3 
REMARK    2  A    between atoms: O_3  and  C_4 
REMARK    3  A    between atoms: C_6  and  N_7 
REMARK    4  A    between atoms: N_7  and  C_8 
REMARK    5  A    between atoms: C_8  and  C_9 
REMARK    6  A    between atoms: C_9  and  C_10 
ROOT
HETATM    1  N   UNL     1     -43.576 -50.216  12.783  1.00  0.00     0.089 N 
HETATM    2  H   UNL     1     -43.824 -49.332  12.334  1.00  0.00     0.316 HD
ENDROOT
BRANCH   1   3
HETATM    3  C   UNL     1     -44.267 -50.501  14.049  1.00  0.00     0.233 C 
HETATM    4  C   UNL     1     -43.422 -51.534  14.834  1.00  0.00     0.069 C 
HETATM    5  C   UNL     1     -44.303 -52.664  14.260  1.00  0.00     0.133 C 
HETATM    6  C   UNL     1     -45.389 -51.584  13.918  1.00  0.00     0.009 C 
HETATM    7  C   UNL     1     -46.087 -51.869  12.588  1.00  0.00     0.020 C 
HETATM    8  C   UNL     1     -46.444 -51.341  15.013  1.00  0.00     0.020 C 
BRANCH   5   9
HETATM    9  O   UNL     1     -44.685 -53.711  15.179  1.00  0.00    -0.385 OA
BRANCH   9  10
HETATM   10  C   UNL     1     -44.481 -55.042  14.708  1.00  0.00     0.163 C 
HETATM   11  C   UNL     1     -45.610 -55.421  13.773  1.00  0.00     0.033 C 
ENDBRANCH   9  10
ENDBRANCH   5   9
ENDBRANCH   1   3
BRANCH   1  12
HETATM   12  C   UNL     1     -42.111 -50.289  12.913  1.00  0.00     0.275 C 
BRANCH  12  13
HETATM   13  C   UNL     1     -41.327 -50.094  11.609  1.00  0.00     0.072 C 
BRANCH  13  14
HETATM   14  C   UNL     1     -40.888 -48.677  11.427  1.00  0.00    -0.009 A 
HETATM   15  C   UNL     1     -39.745 -48.047  11.986  1.00  0.00     0.030 A 
HETATM   16  C   UNL     1     -38.703 -48.629  12.867  1.00  0.00     0.070 C 
HETATM   17  N   UNL     1     -39.665 -46.762  11.629  1.00  0.00    -0.303 N 
HETATM   18  N   UNL     1     -40.747 -46.561  10.854  1.00  0.00    -0.300 N 
ATOM     19  HN  UNL     1     -38.947 -46.086  11.886  1.00  0.00     0.186 HD
HETATM   20  C   UNL     1     -40.995 -45.240  10.328  1.00  0.00     0.177 C 
HETATM   21  C   UNL     1     -41.502 -47.689  10.670  1.00  0.00     0.032 A 
HETATM   22  C   UNL     1     -42.718 -47.748   9.817  1.00  0.00     0.070 C 
ENDBRANCH  13  14
ENDBRANCH  12  13
ENDBRANCH   1  12
TORSDOF 6
ENDMDL
