MODEL 1
REMARK VINA RESULT:      -6.0      0.000      0.000
REMARK  7 active torsions:
REMARK  status: ('A' for Active; 'I' for Inactive)
REMARK    1  A    between atoms: C_2  and  C_3 
REMARK    2  A    between atoms: C_2  and  N_10 
REMARK    3  A    between atoms: C_3  and  N_4 
REMARK    4  A    between atoms: N_10  and  C_11 
REMARK    5  A    between atoms: C_11  and  C_12 
REMARK       I    between atoms: C_12  and  N_14 
REMARK    6  A    between atoms: N_14  and  C_15 
REMARK    7  A    between atoms: C_15  and  C_16 
ROOT
HETATM    1  N   UNL     1     -41.776 -48.581  10.362  1.00  0.00     0.098 N 
HETATM    2  H   UNL     1     -42.629 -49.033  10.018  1.00  0.00     0.317 HD
ENDROOT
BRANCH   1   3
HETATM    3  C   UNL     1     -41.516 -49.109  11.730  1.00  0.00     0.236 C 
HETATM    4  C   UNL     1     -42.875 -49.127  12.447  1.00  0.00     0.044 C 
BRANCH   3   5
HETATM    5  C   UNL     1     -40.871 -50.513  11.732  1.00  0.00     0.183 C 
BRANCH   5   6
HETATM    6  N   UNL     1     -39.432 -50.506  11.907  1.00  0.00    -0.302 N 
HETATM    7  C   UNL     1     -38.735 -51.038  12.957  1.00  0.00     0.111 A 
HETATM    8  C   UNL     1     -37.405 -50.852  12.662  1.00  0.00     0.037 A 
HETATM    9  C   UNL     1     -37.403 -50.205  11.413  1.00  0.00     0.108 A 
HETATM   10  N   UNL     1     -38.638 -49.998  10.946  1.00  0.00    -0.310 N 
ATOM     11  HN  UNL     1     -38.914 -49.558  10.067  1.00  0.00     0.186 HD
ENDBRANCH   5   6
ENDBRANCH   3   5
ENDBRANCH   1   3
BRANCH   1  12
HETATM   12  C   UNL     1     -42.036 -47.121  10.362  1.00  0.00     0.372 C 
BRANCH  12  13
HETATM   13  C   UNL     1     -43.141 -46.788   9.350  1.00  0.00     0.246 C 
HETATM   14  O   UNL     1     -43.102 -45.811   8.611  1.00  0.00    -0.272 OA
HETATM   15  N   UNL     1     -44.142 -47.730   9.292  1.00  0.00    -0.351 N 
HETATM   16  H   UNL     1     -44.180 -48.368  10.085  1.00  0.00     0.162 HD
BRANCH  15  17
HETATM   17  C   UNL     1     -45.309 -47.548   8.434  1.00  0.00     0.240 C 
BRANCH  17  18
HETATM   18  C   UNL     1     -46.555 -48.363   8.809  1.00  0.00     0.403 C 
HETATM   19  F   UNL     1     -47.631 -47.576   9.046  1.00  0.00    -0.169 F 
HETATM   20  F   UNL     1     -46.889 -49.248   7.846  1.00  0.00    -0.169 F 
HETATM   21  F   UNL     1     -46.326 -49.068   9.944  1.00  0.00    -0.169 F 
ENDBRANCH  17  18
ENDBRANCH  15  17
ENDBRANCH  12  13
ENDBRANCH   1  12
TORSDOF 7
ENDMDL
MODEL 2
REMARK VINA RESULT:      -5.6      4.416      7.458
REMARK  7 active torsions:
REMARK  status: ('A' for Active; 'I' for Inactive)
REMARK    1  A    between atoms: C_2  and  C_3 
REMARK    2  A    between atoms: C_2  and  N_10 
REMARK    3  A    between atoms: C_3  and  N_4 
REMARK    4  A    between atoms: N_10  and  C_11 
REMARK    5  A    between atoms: C_11  and  C_12 
REMARK       I    between atoms: C_12  and  N_14 
REMARK    6  A    between atoms: N_14  and  C_15 
REMARK    7  A    between atoms: C_15  and  C_16 
ROOT
HETATM    1  N   UNL     1     -42.845 -47.557  10.959  1.00  0.00     0.098 N 
HETATM    2  H   UNL     1     -43.704 -48.107  10.868  1.00  0.00     0.317 HD
ENDROOT
BRANCH   1   3
HETATM    3  C   UNL     1     -43.075 -46.258  10.270  1.00  0.00     0.236 C 
HETATM    4  C   UNL     1     -41.724 -45.527  10.270  1.00  0.00     0.044 C 
BRANCH   3   5
HETATM    5  C   UNL     1     -43.618 -46.415   8.831  1.00  0.00     0.183 C 
BRANCH   5   6
HETATM    6  N   UNL     1     -44.853 -47.169   8.741  1.00  0.00    -0.302 N 
HETATM    7  C   UNL     1     -46.027 -46.890   9.386  1.00  0.00     0.111 A 
HETATM    8  C   UNL     1     -46.931 -47.831   8.950  1.00  0.00     0.037 A 
HETATM    9  C   UNL     1     -46.208 -48.627   8.043  1.00  0.00     0.108 A 
HETATM   10  N   UNL     1     -44.942 -48.222   7.908  1.00  0.00    -0.310 N 
ATOM     11  HN  UNL     1     -44.214 -48.619   7.313  1.00  0.00     0.186 HD
ENDBRANCH   5   6
ENDBRANCH   3   5
ENDBRANCH   1   3
BRANCH   1  12
HETATM   12  C   UNL     1     -41.762 -48.347  10.322  1.00  0.00     0.372 C 
BRANCH  12  13
HETATM   13  C   UNL     1     -40.921 -49.043  11.402  1.00  0.00     0.246 C 
HETATM   14  O   UNL     1     -41.063 -48.835  12.601  1.00  0.00    -0.272 OA
HETATM   15  N   UNL     1     -40.046 -49.981  10.903  1.00  0.00    -0.351 N 
HETATM   16  H   UNL     1     -39.864 -49.912   9.903  1.00  0.00     0.162 HD
BRANCH  15  17
HETATM   17  C   UNL     1     -39.119 -50.695  11.776  1.00  0.00     0.240 C 
BRANCH  17  18
HETATM   18  C   UNL     1     -37.678 -50.166  11.805  1.00  0.00     0.403 C 
HETATM   19  F   UNL     1     -37.569 -49.010  12.501  1.00  0.00    -0.169 F 
HETATM   20  F   UNL     1     -36.822 -51.060  12.344  1.00  0.00    -0.169 F 
HETATM   21  F   UNL     1     -37.250 -49.908  10.545  1.00  0.00    -0.169 F 
ENDBRANCH  17  18
ENDBRANCH  15  17
ENDBRANCH  12  13
ENDBRANCH   1  12
TORSDOF 7
ENDMDL
MODEL 3
REMARK VINA RESULT:      -5.6      2.090      3.042
REMARK  7 active torsions:
REMARK  status: ('A' for Active; 'I' for Inactive)
REMARK    1  A    between atoms: C_2  and  C_3 
REMARK    2  A    between atoms: C_2  and  N_10 
REMARK    3  A    between atoms: C_3  and  N_4 
REMARK    4  A    between atoms: N_10  and  C_11 
REMARK    5  A    between atoms: C_11  and  C_12 
REMARK       I    between atoms: C_12  and  N_14 
REMARK    6  A    between atoms: N_14  and  C_15 
REMARK    7  A    between atoms: C_15  and  C_16 
ROOT
HETATM    1  N   UNL     1     -42.443 -48.948  11.122  1.00  0.00     0.098 N 
HETATM    2  H   UNL     1     -43.010 -48.676  11.931  1.00  0.00     0.317 HD
ENDROOT
BRANCH   1   3
HETATM    3  C   UNL     1     -41.348 -49.824  11.624  1.00  0.00     0.236 C 
HETATM    4  C   UNL     1     -40.088 -48.947  11.676  1.00  0.00     0.044 C 
BRANCH   3   5
HETATM    5  C   UNL     1     -41.645 -50.446  13.007  1.00  0.00     0.183 C 
BRANCH   5   6
HETATM    6  N   UNL     1     -42.228 -51.771  12.949  1.00  0.00    -0.302 N 
HETATM    7  C   UNL     1     -41.658 -52.933  13.392  1.00  0.00     0.111 A 
HETATM    8  C   UNL     1     -42.597 -53.917  13.190  1.00  0.00     0.037 A 
HETATM    9  C   UNL     1     -43.699 -53.249  12.626  1.00  0.00     0.108 A 
HETATM   10  N   UNL     1     -43.480 -51.939  12.483  1.00  0.00    -0.310 N 
ATOM     11  HN  UNL     1     -44.113 -51.231  12.109  1.00  0.00     0.186 HD
ENDBRANCH   5   6
ENDBRANCH   3   5
ENDBRANCH   1   3
BRANCH   1  12
HETATM   12  C   UNL     1     -41.929 -47.694  10.519  1.00  0.00     0.372 C 
BRANCH  12  13
HETATM   13  C   UNL     1     -43.013 -47.058   9.637  1.00  0.00     0.246 C 
HETATM   14  O   UNL     1     -42.862 -45.991   9.054  1.00  0.00    -0.272 OA
HETATM   15  N   UNL     1     -44.141 -47.834   9.499  1.00  0.00    -0.351 N 
HETATM   16  H   UNL     1     -44.239 -48.577  10.188  1.00  0.00     0.162 HD
BRANCH  15  17
HETATM   17  C   UNL     1     -45.301 -47.361   8.751  1.00  0.00     0.240 C 
BRANCH  17  18
HETATM   18  C   UNL     1     -46.555 -48.245   8.820  1.00  0.00     0.403 C 
HETATM   19  F   UNL     1     -46.753 -48.945   7.679  1.00  0.00    -0.169 F 
HETATM   20  F   UNL     1     -46.497 -49.123   9.844  1.00  0.00    -0.169 F 
HETATM   21  F   UNL     1     -47.656 -47.478   9.008  1.00  0.00    -0.169 F 
ENDBRANCH  17  18
ENDBRANCH  15  17
ENDBRANCH  12  13
ENDBRANCH   1  12
TORSDOF 7
ENDMDL
MODEL 4
REMARK VINA RESULT:      -5.5      3.183      4.804
REMARK  7 active torsions:
REMARK  status: ('A' for Active; 'I' for Inactive)
REMARK    1  A    between atoms: C_2  and  C_3 
REMARK    2  A    between atoms: C_2  and  N_10 
REMARK    3  A    between atoms: C_3  and  N_4 
REMARK    4  A    between atoms: N_10  and  C_11 
REMARK    5  A    between atoms: C_11  and  C_12 
REMARK       I    between atoms: C_12  and  N_14 
REMARK    6  A    between atoms: N_14  and  C_15 
REMARK    7  A    between atoms: C_15  and  C_16 
ROOT
HETATM    1  N   UNL     1     -42.227 -50.597  12.014  1.00  0.00     0.098 N 
HETATM    2  H   UNL     1     -42.447 -50.193  12.929  1.00  0.00     0.317 HD
ENDROOT
BRANCH   1   3
HETATM    3  C   UNL     1     -42.086 -52.067  12.201  1.00  0.00     0.236 C 
HETATM    4  C   UNL     1     -40.591 -52.328  12.439  1.00  0.00     0.044 C 
BRANCH   3   5
HETATM    5  C   UNL     1     -42.936 -52.620  13.369  1.00  0.00     0.183 C 
BRANCH   5   6
HETATM    6  N   UNL     1     -44.351 -52.325  13.265  1.00  0.00    -0.302 N 
HETATM    7  C   UNL     1     -45.089 -51.555  14.121  1.00  0.00     0.111 A 
HETATM    8  C   UNL     1     -46.357 -51.508  13.591  1.00  0.00     0.037 A 
HETATM    9  C   UNL     1     -46.282 -52.275  12.415  1.00  0.00     0.108 A 
HETATM   10  N   UNL     1     -45.058 -52.771  12.209  1.00  0.00    -0.310 N 
ATOM     11  HN  UNL     1     -44.735 -53.351  11.434  1.00  0.00     0.186 HD
ENDBRANCH   5   6
ENDBRANCH   3   5
ENDBRANCH   1   3
BRANCH   1  12
HETATM   12  C   UNL     1     -40.965 -49.964  11.559  1.00  0.00     0.372 C 
BRANCH  12  13
HETATM   13  C   UNL     1     -41.260 -48.581  10.962  1.00  0.00     0.246 C 
HETATM   14  O   UNL     1     -40.520 -47.615  11.109  1.00  0.00    -0.272 OA
HETATM   15  N   UNL     1     -42.393 -48.545  10.181  1.00  0.00    -0.351 N 
HETATM   16  H   UNL     1     -43.029 -49.330  10.308  1.00  0.00     0.162 HD
BRANCH  15  17
HETATM   17  C   UNL     1     -42.866 -47.299   9.586  1.00  0.00     0.240 C 
BRANCH  17  18
HETATM   18  C   UNL     1     -44.313 -47.304   9.073  1.00  0.00     0.403 C 
HETATM   19  F   UNL     1     -45.187 -47.750  10.005  1.00  0.00    -0.169 F 
HETATM   20  F   UNL     1     -44.713 -46.076   8.678  1.00  0.00    -0.169 F 
HETATM   21  F   UNL     1     -44.424 -48.128   8.002  1.00  0.00    -0.169 F 
ENDBRANCH  17  18
ENDBRANCH  15  17
ENDBRANCH  12  13
ENDBRANCH   1  12
TORSDOF 7
ENDMDL
MODEL 5
REMARK VINA RESULT:      -5.5      1.983      2.595
REMARK  7 active torsions:
REMARK  status: ('A' for Active; 'I' for Inactive)
REMARK    1  A    between atoms: C_2  and  C_3 
REMARK    2  A    between atoms: C_2  and  N_10 
REMARK    3  A    between atoms: C_3  and  N_4 
REMARK    4  A    between atoms: N_10  and  C_11 
REMARK    5  A    between atoms: C_11  and  C_12 
REMARK       I    between atoms: C_12  and  N_14 
REMARK    6  A    between atoms: N_14  and  C_15 
REMARK    7  A    between atoms: C_15  and  C_16 
ROOT
HETATM    1  N   UNL     1     -40.832 -49.253  10.334  1.00  0.00     0.098 N 
HETATM    2  H   UNL     1     -41.649 -49.730   9.943  1.00  0.00     0.317 HD
ENDROOT
BRANCH   1   3
HETATM    3  C   UNL     1     -40.192 -50.188  11.301  1.00  0.00     0.236 C 
HETATM    4  C   UNL     1     -38.928 -49.480  11.810  1.00  0.00     0.044 C 
BRANCH   3   5
HETATM    5  C   UNL     1     -41.117 -50.581  12.476  1.00  0.00     0.183 C 
BRANCH   5   6
HETATM    6  N   UNL     1     -41.050 -51.982  12.841  1.00  0.00    -0.302 N 
HETATM    7  C   UNL     1     -41.123 -52.500  14.105  1.00  0.00     0.111 A 
HETATM    8  C   UNL     1     -41.080 -53.866  13.958  1.00  0.00     0.037 A 
HETATM    9  C   UNL     1     -40.986 -54.073  12.570  1.00  0.00     0.108 A 
HETATM   10  N   UNL     1     -40.974 -52.927  11.885  1.00  0.00    -0.310 N 
ATOM     11  HN  UNL     1     -40.919 -52.797  10.874  1.00  0.00     0.186 HD
ENDBRANCH   5   6
ENDBRANCH   3   5
ENDBRANCH   1   3
BRANCH   1  12
HETATM   12  C   UNL     1     -41.330 -48.019  10.992  1.00  0.00     0.372 C 
BRANCH  12  13
HETATM   13  C   UNL     1     -42.282 -47.273  10.046  1.00  0.00     0.246 C 
HETATM   14  O   UNL     1     -42.337 -46.051   9.977  1.00  0.00    -0.272 OA
HETATM   15  N   UNL     1     -43.012 -48.103   9.226  1.00  0.00    -0.351 N 
HETATM   16  H   UNL     1     -43.044 -49.078   9.519  1.00  0.00     0.162 HD
BRANCH  15  17
HETATM   17  C   UNL     1     -44.016 -47.573   8.308  1.00  0.00     0.240 C 
BRANCH  17  18
HETATM   18  C   UNL     1     -45.473 -47.650   8.786  1.00  0.00     0.403 C 
HETATM   19  F   UNL     1     -46.101 -46.453   8.712  1.00  0.00    -0.169 F 
HETATM   20  F   UNL     1     -46.192 -48.544   8.075  1.00  0.00    -0.169 F 
HETATM   21  F   UNL     1     -45.518 -48.038  10.085  1.00  0.00    -0.169 F 
ENDBRANCH  17  18
ENDBRANCH  15  17
ENDBRANCH  12  13
ENDBRANCH   1  12
TORSDOF 7
ENDMDL
MODEL 6
REMARK VINA RESULT:      -5.5      4.163      5.939
REMARK  7 active torsions:
REMARK  status: ('A' for Active; 'I' for Inactive)
REMARK    1  A    between atoms: C_2  and  C_3 
REMARK    2  A    between atoms: C_2  and  N_10 
REMARK    3  A    between atoms: C_3  and  N_4 
REMARK    4  A    between atoms: N_10  and  C_11 
REMARK    5  A    between atoms: C_11  and  C_12 
REMARK       I    between atoms: C_12  and  N_14 
REMARK    6  A    between atoms: N_14  and  C_15 
REMARK    7  A    between atoms: C_15  and  C_16 
ROOT
HETATM    1  N   UNL     1     -42.382 -52.410  11.834  1.00  0.00     0.098 N 
HETATM    2  H   UNL     1     -41.533 -52.777  11.394  1.00  0.00     0.317 HD
ENDROOT
BRANCH   1   3
HETATM    3  C   UNL     1     -41.998 -51.177  12.576  1.00  0.00     0.236 C 
HETATM    4  C   UNL     1     -41.217 -51.646  13.813  1.00  0.00     0.044 C 
BRANCH   3   5
HETATM    5  C   UNL     1     -41.157 -50.192  11.732  1.00  0.00     0.183 C 
BRANCH   5   6
HETATM    6  N   UNL     1     -41.899 -49.049  11.238  1.00  0.00    -0.302 N 
HETATM    7  C   UNL     1     -42.908 -48.390  11.885  1.00  0.00     0.111 A 
HETATM    8  C   UNL     1     -43.263 -47.343  11.066  1.00  0.00     0.037 A 
HETATM    9  C   UNL     1     -42.409 -47.454   9.954  1.00  0.00     0.108 A 
HETATM   10  N   UNL     1     -41.571 -48.490  10.058  1.00  0.00    -0.310 N 
ATOM     11  HN  UNL     1     -40.851 -48.787   9.398  1.00  0.00     0.186 HD
ENDBRANCH   5   6
ENDBRANCH   3   5
ENDBRANCH   1   3
BRANCH   1  12
HETATM   12  C   UNL     1     -42.890 -53.473  12.736  1.00  0.00     0.372 C 
BRANCH  12  13
HETATM   13  C   UNL     1     -44.397 -53.286  12.963  1.00  0.00     0.246 C 
HETATM   14  O   UNL     1     -45.217 -53.278  12.053  1.00  0.00    -0.272 OA
HETATM   15  N   UNL     1     -44.751 -53.207  14.291  1.00  0.00    -0.351 N 
HETATM   16  H   UNL     1     -43.983 -53.010  14.931  1.00  0.00     0.162 HD
BRANCH  15  17
HETATM   17  C   UNL     1     -46.132 -52.963  14.696  1.00  0.00     0.240 C 
BRANCH  17  18
HETATM   18  C   UNL     1     -46.581 -51.495  14.709  1.00  0.00     0.403 C 
HETATM   19  F   UNL     1     -47.065 -51.095  13.510  1.00  0.00    -0.169 F 
HETATM   20  F   UNL     1     -47.530 -51.265  15.641  1.00  0.00    -0.169 F 
HETATM   21  F   UNL     1     -45.530 -50.689  14.998  1.00  0.00    -0.169 F 
ENDBRANCH  17  18
ENDBRANCH  15  17
ENDBRANCH  12  13
ENDBRANCH   1  12
TORSDOF 7
ENDMDL
MODEL 7
REMARK VINA RESULT:      -5.3      2.262      2.841
REMARK  7 active torsions:
REMARK  status: ('A' for Active; 'I' for Inactive)
REMARK    1  A    between atoms: C_2  and  C_3 
REMARK    2  A    between atoms: C_2  and  N_10 
REMARK    3  A    between atoms: C_3  and  N_4 
REMARK    4  A    between atoms: N_10  and  C_11 
REMARK    5  A    between atoms: C_11  and  C_12 
REMARK       I    between atoms: C_12  and  N_14 
REMARK    6  A    between atoms: N_14  and  C_15 
REMARK    7  A    between atoms: C_15  and  C_16 
ROOT
HETATM    1  N   UNL     1     -43.161 -50.699  12.528  1.00  0.00     0.098 N 
HETATM    2  H   UNL     1     -43.996 -51.101  12.964  1.00  0.00     0.317 HD
ENDROOT
BRANCH   1   3
HETATM    3  C   UNL     1     -41.988 -51.473  13.023  1.00  0.00     0.236 C 
HETATM    4  C   UNL     1     -42.547 -52.798  13.564  1.00  0.00     0.044 C 
BRANCH   3   5
HETATM    5  C   UNL     1     -40.919 -51.727  11.936  1.00  0.00     0.183 C 
BRANCH   5   6
HETATM    6  N   UNL     1     -39.728 -50.912  12.072  1.00  0.00    -0.302 N 
HETATM    7  C   UNL     1     -38.855 -50.914  13.125  1.00  0.00     0.111 A 
HETATM    8  C   UNL     1     -37.853 -50.034  12.786  1.00  0.00     0.037 A 
HETATM    9  C   UNL     1     -38.210 -49.558  11.512  1.00  0.00     0.108 A 
HETATM   10  N   UNL     1     -39.351 -50.096  11.070  1.00  0.00    -0.310 N 
ATOM     11  HN  UNL     1     -39.825 -49.927  10.182  1.00  0.00     0.186 HD
ENDBRANCH   5   6
ENDBRANCH   3   5
ENDBRANCH   1   3
BRANCH   1  12
HETATM   12  C   UNL     1     -43.107 -49.274  12.938  1.00  0.00     0.372 C 
BRANCH  12  13
HETATM   13  C   UNL     1     -42.434 -48.441  11.838  1.00  0.00     0.246 C 
HETATM   14  O   UNL     1     -41.367 -47.860  11.995  1.00  0.00    -0.272 OA
HETATM   15  N   UNL     1     -43.101 -48.470  10.634  1.00  0.00    -0.351 N 
HETATM   16  H   UNL     1     -44.065 -48.797  10.684  1.00  0.00     0.162 HD
BRANCH  15  17
HETATM   17  C   UNL     1     -42.644 -47.684   9.493  1.00  0.00     0.240 C 
BRANCH  17  18
HETATM   18  C   UNL     1     -43.688 -47.412   8.400  1.00  0.00     0.403 C 
HETATM   19  F   UNL     1     -43.262 -47.798   7.175  1.00  0.00    -0.169 F 
HETATM   20  F   UNL     1     -44.858 -48.037   8.653  1.00  0.00    -0.169 F 
HETATM   21  F   UNL     1     -43.948 -46.083   8.325  1.00  0.00    -0.169 F 
ENDBRANCH  17  18
ENDBRANCH  15  17
ENDBRANCH  12  13
ENDBRANCH   1  12
TORSDOF 7
ENDMDL
MODEL 8
REMARK VINA RESULT:      -5.3      3.393      5.943
REMARK  7 active torsions:
REMARK  status: ('A' for Active; 'I' for Inactive)
REMARK    1  A    between atoms: C_2  and  C_3 
REMARK    2  A    between atoms: C_2  and  N_10 
REMARK    3  A    between atoms: C_3  and  N_4 
REMARK    4  A    between atoms: N_10  and  C_11 
REMARK    5  A    between atoms: C_11  and  C_12 
REMARK       I    between atoms: C_12  and  N_14 
REMARK    6  A    between atoms: N_14  and  C_15 
REMARK    7  A    between atoms: C_15  and  C_16 
ROOT
HETATM    1  N   UNL     1     -41.575 -50.097  11.316  1.00  0.00     0.098 N 
HETATM    2  H   UNL     1     -40.627 -50.109  10.929  1.00  0.00     0.317 HD
ENDROOT
BRANCH   1   3
HETATM    3  C   UNL     1     -41.979 -48.670  11.456  1.00  0.00     0.236 C 
HETATM    4  C   UNL     1     -40.977 -48.036  12.433  1.00  0.00     0.044 C 
BRANCH   3   5
HETATM    5  C   UNL     1     -42.000 -47.906  10.113  1.00  0.00     0.183 C 
BRANCH   5   6
HETATM    6  N   UNL     1     -43.303 -47.390   9.744  1.00  0.00    -0.302 N 
HETATM    7  C   UNL     1     -43.557 -46.262   9.013  1.00  0.00     0.111 A 
HETATM    8  C   UNL     1     -44.923 -46.208   8.861  1.00  0.00     0.037 A 
HETATM    9  C   UNL     1     -45.402 -47.348   9.531  1.00  0.00     0.108 A 
HETATM   10  N   UNL     1     -44.417 -48.075  10.066  1.00  0.00    -0.310 N 
ATOM     11  HN  UNL     1     -44.491 -48.945  10.594  1.00  0.00     0.186 HD
ENDBRANCH   5   6
ENDBRANCH   3   5
ENDBRANCH   1   3
BRANCH   1  12
HETATM   12  C   UNL     1     -41.513 -50.795  12.624  1.00  0.00     0.372 C 
BRANCH  12  13
HETATM   13  C   UNL     1     -42.430 -52.025  12.603  1.00  0.00     0.246 C 
HETATM   14  O   UNL     1     -42.011 -53.173  12.512  1.00  0.00    -0.272 OA
HETATM   15  N   UNL     1     -43.763 -51.726  12.775  1.00  0.00    -0.351 N 
HETATM   16  H   UNL     1     -44.008 -50.749  12.623  1.00  0.00     0.162 HD
BRANCH  15  17
HETATM   17  C   UNL     1     -44.788 -52.764  12.716  1.00  0.00     0.240 C 
BRANCH  17  18
HETATM   18  C   UNL     1     -46.242 -52.281  12.819  1.00  0.00     0.403 C 
HETATM   19  F   UNL     1     -46.334 -51.034  13.336  1.00  0.00    -0.169 F 
HETATM   20  F   UNL     1     -46.861 -52.282  11.619  1.00  0.00    -0.169 F 
HETATM   21  F   UNL     1     -46.948 -53.099  13.638  1.00  0.00    -0.169 F 
ENDBRANCH  17  18
ENDBRANCH  15  17
ENDBRANCH  12  13
ENDBRANCH   1  12
TORSDOF 7
ENDMDL
MODEL 9
REMARK VINA RESULT:      -5.2      4.727      5.778
REMARK  7 active torsions:
REMARK  status: ('A' for Active; 'I' for Inactive)
REMARK    1  A    between atoms: C_2  and  C_3 
REMARK    2  A    between atoms: C_2  and  N_10 
REMARK    3  A    between atoms: C_3  and  N_4 
REMARK    4  A    between atoms: N_10  and  C_11 
REMARK    5  A    between atoms: C_11  and  C_12 
REMARK       I    between atoms: C_12  and  N_14 
REMARK    6  A    between atoms: N_14  and  C_15 
REMARK    7  A    between atoms: C_15  and  C_16 
ROOT
HETATM    1  N   UNL     1     -42.157 -53.001  14.247  1.00  0.00     0.098 N 
HETATM    2  H   UNL     1     -42.689 -52.170  13.969  1.00  0.00     0.317 HD
ENDROOT
BRANCH   1   3
HETATM    3  C   UNL     1     -40.781 -52.850  13.697  1.00  0.00     0.236 C 
HETATM    4  C   UNL     1     -40.300 -54.267  13.351  1.00  0.00     0.044 C 
BRANCH   3   5
HETATM    5  C   UNL     1     -40.714 -51.926  12.460  1.00  0.00     0.183 C 
BRANCH   5   6
HETATM    6  N   UNL     1     -39.509 -51.123  12.384  1.00  0.00    -0.302 N 
HETATM    7  C   UNL     1     -38.519 -51.045  13.324  1.00  0.00     0.111 A 
HETATM    8  C   UNL     1     -37.557 -50.217  12.795  1.00  0.00     0.037 A 
HETATM    9  C   UNL     1     -38.057 -49.851  11.532  1.00  0.00     0.108 A 
HETATM   10  N   UNL     1     -39.245 -50.406  11.275  1.00  0.00    -0.310 N 
ATOM     11  HN  UNL     1     -39.817 -50.309  10.436  1.00  0.00     0.186 HD
ENDBRANCH   5   6
ENDBRANCH   3   5
ENDBRANCH   1   3
BRANCH   1  12
HETATM   12  C   UNL     1     -42.865 -54.173  13.675  1.00  0.00     0.372 C 
BRANCH  12  13
HETATM   13  C   UNL     1     -44.362 -53.861  13.538  1.00  0.00     0.246 C 
HETATM   14  O   UNL     1     -44.998 -54.063  12.510  1.00  0.00    -0.272 OA
HETATM   15  N   UNL     1     -44.943 -53.407  14.700  1.00  0.00    -0.351 N 
HETATM   16  H   UNL     1     -44.289 -53.079  15.409  1.00  0.00     0.162 HD
BRANCH  15  17
HETATM   17  C   UNL     1     -46.343 -52.998  14.741  1.00  0.00     0.240 C 
BRANCH  17  18
HETATM   18  C   UNL     1     -46.614 -51.500  14.539  1.00  0.00     0.403 C 
HETATM   19  F   UNL     1     -45.529 -50.740  14.816  1.00  0.00    -0.169 F 
HETATM   20  F   UNL     1     -47.007 -51.224  13.278  1.00  0.00    -0.169 F 
HETATM   21  F   UNL     1     -47.604 -51.090  15.369  1.00  0.00    -0.169 F 
ENDBRANCH  17  18
ENDBRANCH  15  17
ENDBRANCH  12  13
ENDBRANCH   1  12
TORSDOF 7
ENDMDL
