MODEL 1
REMARK VINA RESULT:      -6.3      0.000      0.000
REMARK  5 active torsions:
REMARK  status: ('A' for Active; 'I' for Inactive)
REMARK    1  A    between atoms: C_2  and  O_3 
REMARK    2  A    between atoms: O_3  and  C_4 
REMARK    3  A    between atoms: C_4  and  C_5 
REMARK    4  A    between atoms: C_5  and  N_6 
REMARK    5  A    between atoms: C_7  and  N_19 
ROOT
HETATM    1  N   UNL     1     -43.023 -52.113  13.292  1.00  0.00    -0.170 N 
HETATM    2  C   UNL     1     -43.814 -51.077  13.762  1.00  0.00     0.708 A 
HETATM    3  N   UNL     1     -43.277 -49.896  13.482  1.00  0.00    -0.172 N 
ATOM      4  HN  UNL     1     -43.675 -48.974  13.655  1.00  0.00     0.186 HD
HETATM    5  C   UNL     1     -42.073 -50.189  12.911  1.00  0.00     0.160 A 
HETATM    6  N   UNL     1     -41.111 -49.284  12.510  1.00  0.00    -0.287 N 
HETATM    7  C   UNL     1     -41.234 -47.861  12.735  1.00  0.00     0.163 C 
HETATM    8  C   UNL     1     -39.949 -49.757  11.906  1.00  0.00     0.330 A 
HETATM    9  O   UNL     1     -39.026 -49.026  11.541  1.00  0.00    -0.246 OA
HETATM   10  N   UNL     1     -39.846 -51.121  11.724  1.00  0.00    -0.273 N 
HETATM   11  C   UNL     1     -40.731 -52.088  12.145  1.00  0.00     0.280 A 
HETATM   12  O   UNL     1     -40.481 -53.280  12.005  1.00  0.00    -0.265 OA
HETATM   13  C   UNL     1     -41.893 -51.537  12.761  1.00  0.00     0.164 A 
HETATM   14  H   UNL     1     -38.991 -51.446  11.297  1.00  0.00     0.173 HD
ENDROOT
BRANCH   2  15
HETATM   15  N   UNL     1     -45.032 -51.236  14.436  1.00  0.00    -0.090 N 
HETATM   16  N   UNL     1     -45.020 -51.236  15.795  1.00  0.00    -0.284 N 
HETATM   17  C   UNL     1     -46.306 -51.245  16.153  1.00  0.00     0.025 A 
ATOM     18  HN  UNL     1     -44.205 -51.229  16.408  1.00  0.00     0.188 HD
HETATM   19  C   UNL     1     -46.693 -51.184  17.585  1.00  0.00     0.070 C 
HETATM   20  C   UNL     1     -47.156 -51.358  15.037  1.00  0.00     0.053 A 
HETATM   21  C   UNL     1     -46.316 -51.391  13.943  1.00  0.00     0.050 A 
HETATM   22  C   UNL     1     -46.626 -51.628  12.514  1.00  0.00     0.071 C 
ENDBRANCH   2  15
BRANCH   1  23
HETATM   23  C   UNL     1     -43.391 -53.517  13.169  1.00  0.00     0.174 C 
BRANCH  23  24
HETATM   24  C   UNL     1     -43.105 -54.317  14.442  1.00  0.00     0.188 C 
BRANCH  24  25
HETATM   25  O   UNL     1     -44.173 -55.240  14.673  1.00  0.00    -0.390 OA
BRANCH  25  26
HETATM   26  C   UNL     1     -45.274 -55.014  13.797  1.00  0.00     0.163 C 
HETATM   27  C   UNL     1     -46.528 -54.867  14.635  1.00  0.00     0.033 C 
ENDBRANCH  25  26
ENDBRANCH  24  25
ENDBRANCH  23  24
ENDBRANCH   1  23
TORSDOF 5
ENDMDL
MODEL 2
REMARK VINA RESULT:      -6.1      3.245      5.585
REMARK  5 active torsions:
REMARK  status: ('A' for Active; 'I' for Inactive)
REMARK    1  A    between atoms: C_2  and  O_3 
REMARK    2  A    between atoms: O_3  and  C_4 
REMARK    3  A    between atoms: C_4  and  C_5 
REMARK    4  A    between atoms: C_5  and  N_6 
REMARK    5  A    between atoms: C_7  and  N_19 
ROOT
HETATM    1  N   UNL     1     -41.063 -48.647  12.081  1.00  0.00    -0.170 N 
HETATM    2  C   UNL     1     -42.127 -49.528  12.180  1.00  0.00     0.708 A 
HETATM    3  N   UNL     1     -43.128 -49.167  11.386  1.00  0.00    -0.172 N 
ATOM      4  HN  UNL     1     -44.000 -49.667  11.217  1.00  0.00     0.186 HD
HETATM    5  C   UNL     1     -42.730 -47.979  10.847  1.00  0.00     0.160 A 
HETATM    6  N   UNL     1     -43.467 -47.171  10.005  1.00  0.00    -0.287 N 
HETATM    7  C   UNL     1     -44.838 -47.458   9.647  1.00  0.00     0.163 C 
HETATM    8  C   UNL     1     -42.889 -46.003   9.513  1.00  0.00     0.330 A 
HETATM    9  O   UNL     1     -43.480 -45.208   8.779  1.00  0.00    -0.246 OA
HETATM   10  N   UNL     1     -41.588 -45.740   9.888  1.00  0.00    -0.273 N 
HETATM   11  C   UNL     1     -40.810 -46.463  10.765  1.00  0.00     0.280 A 
HETATM   12  O   UNL     1     -39.693 -46.074  11.091  1.00  0.00    -0.265 OA
HETATM   13  C   UNL     1     -41.463 -47.640  11.236  1.00  0.00     0.164 A 
HETATM   14  H   UNL     1     -41.190 -44.883   9.532  1.00  0.00     0.173 HD
ENDROOT
BRANCH   2  15
HETATM   15  N   UNL     1     -42.157 -50.666  12.998  1.00  0.00    -0.090 N 
HETATM   16  N   UNL     1     -41.808 -51.860  12.451  1.00  0.00    -0.284 N 
HETATM   17  C   UNL     1     -41.776 -52.716  13.476  1.00  0.00     0.025 A 
ATOM     18  HN  UNL     1     -41.614 -52.060  11.470  1.00  0.00     0.188 HD
HETATM   19  C   UNL     1     -41.366 -54.127  13.271  1.00  0.00     0.070 C 
HETATM   20  C   UNL     1     -42.203 -52.109  14.672  1.00  0.00     0.053 A 
HETATM   21  C   UNL     1     -42.482 -50.801  14.336  1.00  0.00     0.050 A 
HETATM   22  C   UNL     1     -43.089 -49.720  15.148  1.00  0.00     0.071 C 
ENDBRANCH   2  15
BRANCH   1  23
HETATM   23  C   UNL     1     -39.709 -48.841  12.582  1.00  0.00     0.174 C 
BRANCH  23  24
HETATM   24  C   UNL     1     -38.874 -49.764  11.691  1.00  0.00     0.188 C 
BRANCH  24  25
HETATM   25  O   UNL     1     -38.851 -51.077  12.257  1.00  0.00    -0.390 OA
BRANCH  25  26
HETATM   26  C   UNL     1     -37.851 -51.208  13.263  1.00  0.00     0.163 C 
HETATM   27  C   UNL     1     -38.531 -51.586  14.564  1.00  0.00     0.033 C 
ENDBRANCH  25  26
ENDBRANCH  24  25
ENDBRANCH  23  24
ENDBRANCH   1  23
TORSDOF 5
ENDMDL
MODEL 3
REMARK VINA RESULT:      -6.0      3.469      6.672
REMARK  5 active torsions:
REMARK  status: ('A' for Active; 'I' for Inactive)
REMARK    1  A    between atoms: C_2  and  O_3 
REMARK    2  A    between atoms: O_3  and  C_4 
REMARK    3  A    between atoms: C_4  and  C_5 
REMARK    4  A    between atoms: C_5  and  N_6 
REMARK    5  A    between atoms: C_7  and  N_19 
ROOT
HETATM    1  N   UNL     1     -40.182 -49.414  11.967  1.00  0.00    -0.170 N 
HETATM    2  C   UNL     1     -41.525 -49.488  11.634  1.00  0.00     0.708 A 
HETATM    3  N   UNL     1     -42.068 -50.617  12.071  1.00  0.00    -0.172 N 
ATOM      4  HN  UNL     1     -43.047 -50.897  12.019  1.00  0.00     0.186 HD
HETATM    5  C   UNL     1     -41.027 -51.318  12.606  1.00  0.00     0.160 A 
HETATM    6  N   UNL     1     -41.079 -52.595  13.129  1.00  0.00    -0.287 N 
HETATM    7  C   UNL     1     -42.275 -53.406  13.094  1.00  0.00     0.163 C 
HETATM    8  C   UNL     1     -39.923 -53.148  13.672  1.00  0.00     0.330 A 
HETATM    9  O   UNL     1     -39.868 -54.289  14.136  1.00  0.00    -0.246 OA
HETATM   10  N   UNL     1     -38.789 -52.362  13.672  1.00  0.00    -0.273 N 
HETATM   11  C   UNL     1     -38.644 -51.109  13.120  1.00  0.00     0.280 A 
HETATM   12  O   UNL     1     -37.554 -50.546  13.103  1.00  0.00    -0.265 OA
HETATM   13  C   UNL     1     -39.861 -50.604  12.576  1.00  0.00     0.164 A 
HETATM   14  H   UNL     1     -37.958 -52.785  14.057  1.00  0.00     0.173 HD
ENDROOT
BRANCH   2  15
HETATM   15  N   UNL     1     -42.236 -48.502  10.937  1.00  0.00    -0.090 N 
HETATM   16  N   UNL     1     -42.180 -48.507   9.579  1.00  0.00    -0.284 N 
HETATM   17  C   UNL     1     -43.058 -47.577   9.192  1.00  0.00     0.025 A 
ATOM     18  HN  UNL     1     -41.595 -49.093   8.985  1.00  0.00     0.188 HD
HETATM   19  C   UNL     1     -43.320 -47.339   7.751  1.00  0.00     0.070 C 
HETATM   20  C   UNL     1     -43.609 -46.894  10.291  1.00  0.00     0.053 A 
HETATM   21  C   UNL     1     -43.038 -47.476  11.405  1.00  0.00     0.050 A 
HETATM   22  C   UNL     1     -43.135 -47.092  12.832  1.00  0.00     0.071 C 
ENDBRANCH   2  15
BRANCH   1  23
HETATM   23  C   UNL     1     -39.320 -48.242  11.899  1.00  0.00     0.174 C 
BRANCH  23  24
HETATM   24  C   UNL     1     -39.567 -47.258  13.045  1.00  0.00     0.188 C 
BRANCH  24  25
HETATM   25  O   UNL     1     -39.619 -45.926  12.524  1.00  0.00    -0.390 OA
BRANCH  25  26
HETATM   26  C   UNL     1     -39.837 -45.911  11.116  1.00  0.00     0.163 C 
HETATM   27  C   UNL     1     -40.093 -44.479  10.690  1.00  0.00     0.033 C 
ENDBRANCH  25  26
ENDBRANCH  24  25
ENDBRANCH  23  24
ENDBRANCH   1  23
TORSDOF 5
ENDMDL
MODEL 4
REMARK VINA RESULT:      -5.9      3.538      6.657
REMARK  5 active torsions:
REMARK  status: ('A' for Active; 'I' for Inactive)
REMARK    1  A    between atoms: C_2  and  O_3 
REMARK    2  A    between atoms: O_3  and  C_4 
REMARK    3  A    between atoms: C_4  and  C_5 
REMARK    4  A    between atoms: C_5  and  N_6 
REMARK    5  A    between atoms: C_7  and  N_19 
ROOT
HETATM    1  N   UNL     1     -40.996 -54.212  14.404  1.00  0.00    -0.170 N 
HETATM    2  C   UNL     1     -41.524 -54.912  15.477  1.00  0.00     0.708 A 
HETATM    3  N   UNL     1     -42.841 -55.039  15.369  1.00  0.00    -0.172 N 
ATOM      4  HN  UNL     1     -43.469 -55.558  15.981  1.00  0.00     0.186 HD
HETATM    5  C   UNL     1     -43.168 -54.320  14.256  1.00  0.00     0.160 A 
HETATM    6  N   UNL     1     -44.439 -54.092  13.769  1.00  0.00    -0.287 N 
HETATM    7  C   UNL     1     -45.631 -54.536  14.456  1.00  0.00     0.163 C 
HETATM    8  C   UNL     1     -44.590 -53.364  12.592  1.00  0.00     0.330 A 
HETATM    9  O   UNL     1     -45.685 -53.088  12.098  1.00  0.00    -0.246 OA
HETATM   10  N   UNL     1     -43.438 -52.931  11.968  1.00  0.00    -0.273 N 
HETATM   11  C   UNL     1     -42.144 -53.068  12.419  1.00  0.00     0.280 A 
HETATM   12  O   UNL     1     -41.205 -52.557  11.817  1.00  0.00    -0.265 OA
HETATM   13  C   UNL     1     -42.060 -53.816  13.630  1.00  0.00     0.164 A 
HETATM   14  H   UNL     1     -43.568 -52.394  11.123  1.00  0.00     0.173 HD
ENDROOT
BRANCH   2  15
HETATM   15  N   UNL     1     -40.779 -55.437  16.541  1.00  0.00    -0.090 N 
HETATM   16  N   UNL     1     -40.619 -56.785  16.611  1.00  0.00    -0.284 N 
HETATM   17  C   UNL     1     -39.755 -56.981  17.610  1.00  0.00     0.025 A 
ATOM     18  HN  UNL     1     -41.064 -57.494  16.027  1.00  0.00     0.188 HD
HETATM   19  C   UNL     1     -39.285 -58.348  17.946  1.00  0.00     0.070 C 
HETATM   20  C   UNL     1     -39.430 -55.776  18.260  1.00  0.00     0.053 A 
HETATM   21  C   UNL     1     -40.130 -54.798  17.582  1.00  0.00     0.050 A 
HETATM   22  C   UNL     1     -40.285 -53.357  17.888  1.00  0.00     0.071 C 
ENDBRANCH   2  15
BRANCH   1  23
HETATM   23  C   UNL     1     -39.593 -54.099  14.031  1.00  0.00     0.174 C 
BRANCH  23  24
HETATM   24  C   UNL     1     -38.992 -52.739  14.391  1.00  0.00     0.188 C 
BRANCH  24  25
HETATM   25  O   UNL     1     -38.231 -52.247  13.284  1.00  0.00    -0.390 OA
BRANCH  25  26
HETATM   26  C   UNL     1     -38.292 -50.827  13.182  1.00  0.00     0.163 C 
HETATM   27  C   UNL     1     -37.562 -50.408  11.921  1.00  0.00     0.033 C 
ENDBRANCH  25  26
ENDBRANCH  24  25
ENDBRANCH  23  24
ENDBRANCH   1  23
TORSDOF 5
ENDMDL
MODEL 5
REMARK VINA RESULT:      -5.9      1.800      2.479
REMARK  5 active torsions:
REMARK  status: ('A' for Active; 'I' for Inactive)
REMARK    1  A    between atoms: C_2  and  O_3 
REMARK    2  A    between atoms: O_3  and  C_4 
REMARK    3  A    between atoms: C_4  and  C_5 
REMARK    4  A    between atoms: C_5  and  N_6 
REMARK    5  A    between atoms: C_7  and  N_19 
ROOT
HETATM    1  N   UNL     1     -41.813 -51.735  14.183  1.00  0.00    -0.170 N 
HETATM    2  C   UNL     1     -42.753 -50.768  13.862  1.00  0.00     0.708 A 
HETATM    3  N   UNL     1     -42.171 -49.616  13.552  1.00  0.00    -0.172 N 
ATOM      4  HN  UNL     1     -42.619 -48.762  13.220  1.00  0.00     0.186 HD
HETATM    5  C   UNL     1     -40.843 -49.827  13.777  1.00  0.00     0.160 A 
HETATM    6  N   UNL     1     -39.832 -48.893  13.663  1.00  0.00    -0.287 N 
HETATM    7  C   UNL     1     -40.082 -47.502  13.362  1.00  0.00     0.163 C 
HETATM    8  C   UNL     1     -38.518 -49.290  13.893  1.00  0.00     0.330 A 
HETATM    9  O   UNL     1     -37.555 -48.522  13.842  1.00  0.00    -0.246 OA
HETATM   10  N   UNL     1     -38.307 -50.619  14.202  1.00  0.00    -0.273 N 
HETATM   11  C   UNL     1     -39.263 -51.593  14.390  1.00  0.00     0.280 A 
HETATM   12  O   UNL     1     -38.954 -52.722  14.754  1.00  0.00    -0.265 OA
HETATM   13  C   UNL     1     -40.585 -51.119  14.145  1.00  0.00     0.164 A 
HETATM   14  H   UNL     1     -37.350 -50.885  14.379  1.00  0.00     0.173 HD
ENDROOT
BRANCH   2  15
HETATM   15  N   UNL     1     -44.140 -50.967  13.848  1.00  0.00    -0.090 N 
HETATM   16  N   UNL     1     -44.748 -51.174  12.650  1.00  0.00    -0.284 N 
HETATM   17  C   UNL     1     -46.012 -51.484  12.951  1.00  0.00     0.025 A 
ATOM     18  HN  UNL     1     -44.329 -51.107  11.723  1.00  0.00     0.188 HD
HETATM   19  C   UNL     1     -46.977 -51.842  11.883  1.00  0.00     0.070 C 
HETATM   20  C   UNL     1     -46.257 -51.378  14.333  1.00  0.00     0.053 A 
HETATM   21  C   UNL     1     -45.050 -51.006  14.889  1.00  0.00     0.050 A 
HETATM   22  C   UNL     1     -44.725 -50.621  16.282  1.00  0.00     0.071 C 
ENDBRANCH   2  15
BRANCH   1  23
HETATM   23  C   UNL     1     -42.034 -53.169  14.317  1.00  0.00     0.174 C 
BRANCH  23  24
HETATM   24  C   UNL     1     -42.285 -53.857  12.974  1.00  0.00     0.188 C 
BRANCH  24  25
HETATM   25  O   UNL     1     -43.670 -54.202  12.869  1.00  0.00    -0.390 OA
BRANCH  25  26
HETATM   26  C   UNL     1     -44.209 -54.634  14.115  1.00  0.00     0.163 C 
HETATM   27  C   UNL     1     -45.642 -55.074  13.888  1.00  0.00     0.033 C 
ENDBRANCH  25  26
ENDBRANCH  24  25
ENDBRANCH  23  24
ENDBRANCH   1  23
TORSDOF 5
ENDMDL
MODEL 6
REMARK VINA RESULT:      -5.9      2.049      5.974
REMARK  5 active torsions:
REMARK  status: ('A' for Active; 'I' for Inactive)
REMARK    1  A    between atoms: C_2  and  O_3 
REMARK    2  A    between atoms: O_3  and  C_4 
REMARK    3  A    between atoms: C_4  and  C_5 
REMARK    4  A    between atoms: C_5  and  N_6 
REMARK    5  A    between atoms: C_7  and  N_19 
ROOT
HETATM    1  N   UNL     1     -42.119 -51.098  13.296  1.00  0.00    -0.170 N 
HETATM    2  C   UNL     1     -43.167 -50.237  13.006  1.00  0.00     0.708 A 
HETATM    3  N   UNL     1     -44.340 -50.833  13.175  1.00  0.00    -0.172 N 
ATOM      4  HN  UNL     1     -45.267 -50.417  13.093  1.00  0.00     0.186 HD
HETATM    5  C   UNL     1     -44.031 -52.126  13.482  1.00  0.00     0.160 A 
HETATM    6  N   UNL     1     -44.925 -53.160  13.679  1.00  0.00    -0.287 N 
HETATM    7  C   UNL     1     -46.350 -53.008  13.493  1.00  0.00     0.163 C 
HETATM    8  C   UNL     1     -44.436 -54.417  14.026  1.00  0.00     0.330 A 
HETATM    9  O   UNL     1     -45.155 -55.404  14.195  1.00  0.00    -0.246 OA
HETATM   10  N   UNL     1     -43.070 -54.541  14.175  1.00  0.00    -0.273 N 
HETATM   11  C   UNL     1     -42.115 -53.578  13.941  1.00  0.00     0.280 A 
HETATM   12  O   UNL     1     -40.919 -53.838  14.020  1.00  0.00    -0.265 OA
HETATM   13  C   UNL     1     -42.681 -52.318  13.583  1.00  0.00     0.164 A 
HETATM   14  H   UNL     1     -42.734 -55.462  14.413  1.00  0.00     0.173 HD
ENDROOT
BRANCH   2  15
HETATM   15  N   UNL     1     -43.024 -48.904  12.599  1.00  0.00    -0.090 N 
HETATM   16  N   UNL     1     -43.015 -48.636  11.266  1.00  0.00    -0.284 N 
HETATM   17  C   UNL     1     -43.025 -47.303  11.180  1.00  0.00     0.025 A 
ATOM     18  HN  UNL     1     -43.002 -49.307  10.499  1.00  0.00     0.188 HD
HETATM   19  C   UNL     1     -43.083 -46.632   9.858  1.00  0.00     0.070 C 
HETATM   20  C   UNL     1     -42.935 -46.700  12.448  1.00  0.00     0.053 A 
HETATM   21  C   UNL     1     -42.895 -47.747  13.346  1.00  0.00     0.050 A 
HETATM   22  C   UNL     1     -42.674 -47.734  14.811  1.00  0.00     0.071 C 
ENDBRANCH   2  15
BRANCH   1  23
HETATM   23  C   UNL     1     -40.718 -50.748  13.483  1.00  0.00     0.174 C 
BRANCH  23  24
HETATM   24  C   UNL     1     -39.898 -50.877  12.198  1.00  0.00     0.188 C 
BRANCH  24  25
HETATM   25  O   UNL     1     -38.678 -51.570  12.480  1.00  0.00    -0.390 OA
BRANCH  25  26
HETATM   26  C   UNL     1     -37.568 -50.681  12.576  1.00  0.00     0.163 C 
HETATM   27  C   UNL     1     -37.399 -49.985  11.240  1.00  0.00     0.033 C 
ENDBRANCH  25  26
ENDBRANCH  24  25
ENDBRANCH  23  24
ENDBRANCH   1  23
TORSDOF 5
ENDMDL
MODEL 7
REMARK VINA RESULT:      -5.9      2.207      4.123
REMARK  5 active torsions:
REMARK  status: ('A' for Active; 'I' for Inactive)
REMARK    1  A    between atoms: C_2  and  O_3 
REMARK    2  A    between atoms: O_3  and  C_4 
REMARK    3  A    between atoms: C_4  and  C_5 
REMARK    4  A    between atoms: C_5  and  N_6 
REMARK    5  A    between atoms: C_7  and  N_19 
ROOT
HETATM    1  N   UNL     1     -41.246 -49.697  12.875  1.00  0.00    -0.170 N 
HETATM    2  C   UNL     1     -42.589 -49.953  12.646  1.00  0.00     0.708 A 
HETATM    3  N   UNL     1     -43.099 -49.096  11.770  1.00  0.00    -0.172 N 
ATOM      4  HN  UNL     1     -44.040 -49.095  11.377  1.00  0.00     0.186 HD
HETATM    5  C   UNL     1     -42.087 -48.219  11.513  1.00  0.00     0.160 A 
HETATM    6  N   UNL     1     -42.155 -47.097  10.710  1.00  0.00    -0.287 N 
HETATM    7  C   UNL     1     -43.383 -46.655  10.088  1.00  0.00     0.163 C 
HETATM    8  C   UNL     1     -41.009 -46.329  10.526  1.00  0.00     0.330 A 
HETATM    9  O   UNL     1     -40.982 -45.299   9.850  1.00  0.00    -0.246 OA
HETATM   10  N   UNL     1     -39.856 -46.760  11.150  1.00  0.00    -0.273 N 
HETATM   11  C   UNL     1     -39.722 -47.829  12.007  1.00  0.00     0.280 A 
HETATM   12  O   UNL     1     -38.658 -48.057  12.575  1.00  0.00    -0.265 OA
HETATM   13  C   UNL     1     -40.932 -48.568  12.158  1.00  0.00     0.164 A 
HETATM   14  H   UNL     1     -39.039 -46.183  11.015  1.00  0.00     0.173 HD
ENDROOT
BRANCH   2  15
HETATM   15  N   UNL     1     -43.324 -50.985  13.243  1.00  0.00    -0.090 N 
HETATM   16  N   UNL     1     -43.584 -52.098  12.507  1.00  0.00    -0.284 N 
HETATM   17  C   UNL     1     -44.149 -52.955  13.361  1.00  0.00     0.025 A 
ATOM     18  HN  UNL     1     -43.390 -52.246  11.517  1.00  0.00     0.188 HD
HETATM   19  C   UNL     1     -44.518 -54.325  12.926  1.00  0.00     0.070 C 
HETATM   20  C   UNL     1     -44.354 -52.370  14.625  1.00  0.00     0.053 A 
HETATM   21  C   UNL     1     -43.853 -51.089  14.517  1.00  0.00     0.050 A 
HETATM   22  C   UNL     1     -43.906 -49.964  15.480  1.00  0.00     0.071 C 
ENDBRANCH   2  15
BRANCH   1  23
HETATM   23  C   UNL     1     -40.287 -50.561  13.552  1.00  0.00     0.174 C 
BRANCH  23  24
HETATM   24  C   UNL     1     -39.602 -51.544  12.601  1.00  0.00     0.188 C 
BRANCH  24  25
HETATM   25  O   UNL     1     -40.365 -52.753  12.537  1.00  0.00    -0.390 OA
BRANCH  25  26
HETATM   26  C   UNL     1     -40.486 -53.377  13.812  1.00  0.00     0.163 C 
HETATM   27  C   UNL     1     -39.409 -54.438  13.927  1.00  0.00     0.033 C 
ENDBRANCH  25  26
ENDBRANCH  24  25
ENDBRANCH  23  24
ENDBRANCH   1  23
TORSDOF 5
ENDMDL
MODEL 8
REMARK VINA RESULT:      -5.7      2.919      5.326
REMARK  5 active torsions:
REMARK  status: ('A' for Active; 'I' for Inactive)
REMARK    1  A    between atoms: C_2  and  O_3 
REMARK    2  A    between atoms: O_3  and  C_4 
REMARK    3  A    between atoms: C_4  and  C_5 
REMARK    4  A    between atoms: C_5  and  N_6 
REMARK    5  A    between atoms: C_7  and  N_19 
ROOT
HETATM    1  N   UNL     1     -41.423 -48.951  12.605  1.00  0.00    -0.170 N 
HETATM    2  C   UNL     1     -41.201 -48.480  11.321  1.00  0.00     0.708 A 
HETATM    3  N   UNL     1     -40.047 -48.923  10.838  1.00  0.00    -0.172 N 
ATOM      4  HN  UNL     1     -39.669 -48.783   9.902  1.00  0.00     0.186 HD
HETATM    5  C   UNL     1     -39.479 -49.607  11.872  1.00  0.00     0.160 A 
HETATM    6  N   UNL     1     -38.230 -50.197  11.880  1.00  0.00    -0.287 N 
HETATM    7  C   UNL     1     -37.304 -50.083  10.776  1.00  0.00     0.163 C 
HETATM    8  C   UNL     1     -37.821 -50.894  13.013  1.00  0.00     0.330 A 
HETATM    9  O   UNL     1     -36.716 -51.429  13.121  1.00  0.00    -0.246 OA
HETATM   10  N   UNL     1     -38.714 -50.969  14.062  1.00  0.00    -0.273 N 
HETATM   11  C   UNL     1     -39.947 -50.363  14.153  1.00  0.00     0.280 A 
HETATM   12  O   UNL     1     -40.613 -50.430  15.181  1.00  0.00    -0.265 OA
HETATM   13  C   UNL     1     -40.303 -49.661  12.963  1.00  0.00     0.164 A 
HETATM   14  H   UNL     1     -38.395 -51.467  14.880  1.00  0.00     0.173 HD
ENDROOT
BRANCH   2  15
HETATM   15  N   UNL     1     -42.076 -47.653  10.604  1.00  0.00    -0.090 N 
HETATM   16  N   UNL     1     -43.174 -48.218  10.036  1.00  0.00    -0.284 N 
HETATM   17  C   UNL     1     -43.889 -47.192   9.567  1.00  0.00     0.025 A 
ATOM     18  HN  UNL     1     -43.402 -49.210   9.979  1.00  0.00     0.188 HD
HETATM   19  C   UNL     1     -45.207 -47.419   8.925  1.00  0.00     0.070 C 
HETATM   20  C   UNL     1     -43.213 -45.969   9.734  1.00  0.00     0.053 A 
HETATM   21  C   UNL     1     -42.031 -46.290  10.368  1.00  0.00     0.050 A 
HETATM   22  C   UNL     1     -40.862 -45.438  10.687  1.00  0.00     0.071 C 
ENDBRANCH   2  15
BRANCH   1  23
HETATM   23  C   UNL     1     -42.670 -48.907  13.357  1.00  0.00     0.174 C 
BRANCH  23  24
HETATM   24  C   UNL     1     -43.557 -50.128  13.106  1.00  0.00     0.188 C 
BRANCH  24  25
HETATM   25  O   UNL     1     -43.884 -50.743  14.355  1.00  0.00    -0.390 OA
BRANCH  25  26
HETATM   26  C   UNL     1     -44.724 -51.882  14.187  1.00  0.00     0.163 C 
HETATM   27  C   UNL     1     -46.090 -51.403  13.738  1.00  0.00     0.033 C 
ENDBRANCH  25  26
ENDBRANCH  24  25
ENDBRANCH  23  24
ENDBRANCH   1  23
TORSDOF 5
ENDMDL
MODEL 9
REMARK VINA RESULT:      -5.4      3.044      5.250
REMARK  5 active torsions:
REMARK  status: ('A' for Active; 'I' for Inactive)
REMARK    1  A    between atoms: C_2  and  O_3 
REMARK    2  A    between atoms: O_3  and  C_4 
REMARK    3  A    between atoms: C_4  and  C_5 
REMARK    4  A    between atoms: C_5  and  N_6 
REMARK    5  A    between atoms: C_7  and  N_19 
ROOT
HETATM    1  N   UNL     1     -42.311 -48.384  13.136  1.00  0.00    -0.170 N 
HETATM    2  C   UNL     1     -42.336 -49.343  12.136  1.00  0.00     0.708 A 
HETATM    3  N   UNL     1     -42.467 -48.786  10.938  1.00  0.00    -0.172 N 
ATOM      4  HN  UNL     1     -42.451 -49.251  10.031  1.00  0.00     0.186 HD
HETATM    5  C   UNL     1     -42.628 -47.455  11.190  1.00  0.00     0.160 A 
HETATM    6  N   UNL     1     -42.874 -46.466  10.259  1.00  0.00    -0.287 N 
HETATM    7  C   UNL     1     -43.082 -46.747   8.856  1.00  0.00     0.163 C 
HETATM    8  C   UNL     1     -42.973 -45.146  10.687  1.00  0.00     0.330 A 
HETATM    9  O   UNL     1     -43.217 -44.202   9.933  1.00  0.00    -0.246 OA
HETATM   10  N   UNL     1     -42.794 -44.907  12.035  1.00  0.00    -0.273 N 
HETATM   11  C   UNL     1     -42.604 -45.840  13.029  1.00  0.00     0.280 A 
HETATM   12  O   UNL     1     -42.550 -45.508  14.209  1.00  0.00    -0.265 OA
HETATM   13  C   UNL     1     -42.519 -47.171  12.524  1.00  0.00     0.164 A 
HETATM   14  H   UNL     1     -42.883 -43.945  12.328  1.00  0.00     0.173 HD
ENDROOT
BRANCH   2  15
HETATM   15  N   UNL     1     -42.225 -50.724  12.343  1.00  0.00    -0.090 N 
HETATM   16  N   UNL     1     -43.363 -51.436  12.557  1.00  0.00    -0.284 N 
HETATM   17  C   UNL     1     -42.977 -52.714  12.563  1.00  0.00     0.025 A 
ATOM     18  HN  UNL     1     -44.307 -51.072  12.684  1.00  0.00     0.188 HD
HETATM   19  C   UNL     1     -43.973 -53.804  12.710  1.00  0.00     0.070 C 
HETATM   20  C   UNL     1     -41.579 -52.835  12.459  1.00  0.00     0.053 A 
HETATM   21  C   UNL     1     -41.109 -51.542  12.359  1.00  0.00     0.050 A 
HETATM   22  C   UNL     1     -39.717 -51.034  12.354  1.00  0.00     0.071 C 
ENDBRANCH   2  15
BRANCH   1  23
HETATM   23  C   UNL     1     -41.922 -48.571  14.527  1.00  0.00     0.174 C 
BRANCH  23  24
HETATM   24  C   UNL     1     -43.043 -49.168  15.380  1.00  0.00     0.188 C 
BRANCH  24  25
HETATM   25  O   UNL     1     -42.806 -50.566  15.567  1.00  0.00    -0.390 OA
BRANCH  25  26
HETATM   26  C   UNL     1     -43.871 -51.200  16.269  1.00  0.00     0.163 C 
HETATM   27  C   UNL     1     -45.170 -50.874  15.558  1.00  0.00     0.033 C 
ENDBRANCH  25  26
ENDBRANCH  24  25
ENDBRANCH  23  24
ENDBRANCH   1  23
TORSDOF 5
ENDMDL
