MODEL 1
REMARK VINA RESULT:      -5.6      0.000      0.000
REMARK  2 active torsions:
REMARK  status: ('A' for Active; 'I' for Inactive)
REMARK       I    between atoms: C_2  and  N_4 
REMARK    1  A    between atoms: N_4  and  C_5 
REMARK    2  A    between atoms: C_8  and  N_12 
ROOT
HETATM    1  C   UNL     1     -43.528 -47.198   9.547  1.00  0.00     0.107 A 
HETATM    2  C   UNL     1     -42.379 -47.818  10.017  1.00  0.00     0.051 A 
HETATM    3  C   UNL     1     -41.423 -47.054  10.693  1.00  0.00     0.034 A 
HETATM    4  C   UNL     1     -41.596 -45.684  10.892  1.00  0.00     0.046 A 
HETATM    5  C   UNL     1     -42.778 -45.170  10.360  1.00  0.00     0.119 A 
HETATM    6  N   UNL     1     -43.733 -45.885   9.708  1.00  0.00    -0.350 N 
ATOM      7  HN  UNL     1     -44.577 -45.437   9.353  1.00  0.00     0.166 HD
ENDROOT
BRANCH   4   8
HETATM    8  N   UNL     1     -40.639 -44.924  11.521  1.00  0.00    -0.376 N 
HETATM    9  C   UNL     1     -39.615 -45.495  12.410  1.00  0.00     0.149 C 
HETATM   10  C   UNL     1     -39.477 -44.579  13.642  1.00  0.00     0.187 C 
HETATM   11  O   UNL     1     -39.189 -43.217  13.274  1.00  0.00    -0.388 OA
HETATM   12  C   UNL     1     -40.225 -42.693  12.423  1.00  0.00     0.187 C 
HETATM   13  C   UNL     1     -40.370 -43.529  11.144  1.00  0.00     0.149 C 
ENDBRANCH   4   8
BRANCH   1  14
HETATM   14  N   UNL     1     -44.472 -48.004   8.900  1.00  0.00    -0.314 N 
HETATM   15  C   UNL     1     -45.834 -47.777   8.868  1.00  0.00     0.219 C 
HETATM   16  C   UNL     1     -46.562 -48.866   8.126  1.00  0.00     0.117 C 
HETATM   17  O   UNL     1     -46.454 -46.847   9.369  1.00  0.00    -0.274 OA
HETATM   18  H   UNL     1     -44.124 -48.833   8.438  1.00  0.00     0.170 HD
ENDBRANCH   1  14
TORSDOF 2
ENDMDL
MODEL 2
REMARK VINA RESULT:      -5.4      3.736      4.607
REMARK  2 active torsions:
REMARK  status: ('A' for Active; 'I' for Inactive)
REMARK       I    between atoms: C_2  and  N_4 
REMARK    1  A    between atoms: N_4  and  C_5 
REMARK    2  A    between atoms: C_8  and  N_12 
ROOT
HETATM    1  C   UNL     1     -40.530 -50.093  11.656  1.00  0.00     0.107 A 
HETATM    2  C   UNL     1     -39.541 -49.187  12.009  1.00  0.00     0.051 A 
HETATM    3  C   UNL     1     -39.719 -47.833  11.708  1.00  0.00     0.034 A 
HETATM    4  C   UNL     1     -40.864 -47.380  11.052  1.00  0.00     0.046 A 
HETATM    5  C   UNL     1     -41.778 -48.383  10.730  1.00  0.00     0.119 A 
HETATM    6  N   UNL     1     -41.640 -49.705  11.017  1.00  0.00    -0.350 N 
ATOM      7  HN  UNL     1     -42.359 -50.379  10.754  1.00  0.00     0.166 HD
ENDROOT
BRANCH   4   8
HETATM    8  N   UNL     1     -41.024 -46.056  10.720  1.00  0.00    -0.376 N 
HETATM    9  C   UNL     1     -39.905 -45.182  10.338  1.00  0.00     0.149 C 
HETATM   10  C   UNL     1     -40.093 -43.820  11.033  1.00  0.00     0.187 C 
HETATM   11  O   UNL     1     -41.375 -43.234  10.738  1.00  0.00    -0.388 OA
HETATM   12  C   UNL     1     -42.439 -44.112  11.146  1.00  0.00     0.187 C 
HETATM   13  C   UNL     1     -42.343 -45.470  10.437  1.00  0.00     0.149 C 
ENDBRANCH   4   8
BRANCH   1  14
HETATM   14  N   UNL     1     -40.323 -51.435  11.999  1.00  0.00    -0.314 N 
HETATM   15  C   UNL     1     -41.315 -52.353  12.276  1.00  0.00     0.219 C 
HETATM   16  C   UNL     1     -40.742 -53.692  12.658  1.00  0.00     0.117 C 
HETATM   17  O   UNL     1     -42.528 -52.182  12.257  1.00  0.00    -0.274 OA
HETATM   18  H   UNL     1     -39.364 -51.744  12.070  1.00  0.00     0.170 HD
ENDBRANCH   1  14
TORSDOF 2
ENDMDL
MODEL 3
REMARK VINA RESULT:      -5.3      6.185      8.855
REMARK  2 active torsions:
REMARK  status: ('A' for Active; 'I' for Inactive)
REMARK       I    between atoms: C_2  and  N_4 
REMARK    1  A    between atoms: N_4  and  C_5 
REMARK    2  A    between atoms: C_8  and  N_12 
ROOT
HETATM    1  C   UNL     1     -41.012 -50.971  11.868  1.00  0.00     0.107 A 
HETATM    2  C   UNL     1     -41.902 -50.160  12.556  1.00  0.00     0.051 A 
HETATM    3  C   UNL     1     -43.109 -50.703  13.007  1.00  0.00     0.034 A 
HETATM    4  C   UNL     1     -43.439 -52.037  12.768  1.00  0.00     0.046 A 
HETATM    5  C   UNL     1     -42.476 -52.749  12.052  1.00  0.00     0.119 A 
HETATM    6  N   UNL     1     -41.290 -52.255  11.609  1.00  0.00    -0.350 N 
ATOM      7  HN  UNL     1     -40.633 -52.842  11.096  1.00  0.00     0.166 HD
ENDROOT
BRANCH   4   8
HETATM    8  N   UNL     1     -44.642 -52.563  13.176  1.00  0.00    -0.376 N 
HETATM    9  C   UNL     1     -45.860 -51.755  13.332  1.00  0.00     0.149 C 
HETATM   10  C   UNL     1     -46.564 -52.184  14.634  1.00  0.00     0.187 C 
HETATM   11  O   UNL     1     -46.834 -53.599  14.662  1.00  0.00    -0.388 OA
HETATM   12  C   UNL     1     -45.614 -54.349  14.527  1.00  0.00     0.187 C 
HETATM   13  C   UNL     1     -44.895 -54.011  13.214  1.00  0.00     0.149 C 
ENDBRANCH   4   8
BRANCH   1  14
HETATM   14  N   UNL     1     -39.803 -50.395  11.458  1.00  0.00    -0.314 N 
HETATM   15  C   UNL     1     -38.556 -50.703  11.963  1.00  0.00     0.219 C 
HETATM   16  C   UNL     1     -37.478 -49.861  11.333  1.00  0.00     0.117 C 
HETATM   17  O   UNL     1     -38.275 -51.526  12.826  1.00  0.00    -0.274 OA
HETATM   18  H   UNL     1     -39.858 -49.678  10.748  1.00  0.00     0.170 HD
ENDBRANCH   1  14
TORSDOF 2
ENDMDL
MODEL 4
REMARK VINA RESULT:      -5.2      2.927      3.598
REMARK  2 active torsions:
REMARK  status: ('A' for Active; 'I' for Inactive)
REMARK       I    between atoms: C_2  and  N_4 
REMARK    1  A    between atoms: N_4  and  C_5 
REMARK    2  A    between atoms: C_8  and  N_12 
ROOT
HETATM    1  C   UNL     1     -43.347 -47.735  10.998  1.00  0.00     0.107 A 
HETATM    2  C   UNL     1     -43.043 -47.048  12.164  1.00  0.00     0.051 A 
HETATM    3  C   UNL     1     -41.760 -47.164  12.707  1.00  0.00     0.034 A 
HETATM    4  C   UNL     1     -40.787 -47.964  12.107  1.00  0.00     0.046 A 
HETATM    5  C   UNL     1     -41.213 -48.620  10.953  1.00  0.00     0.119 A 
HETATM    6  N   UNL     1     -42.448 -48.520  10.393  1.00  0.00    -0.350 N 
ATOM      7  HN  UNL     1     -42.683 -49.028   9.540  1.00  0.00     0.166 HD
ENDROOT
BRANCH   4   8
HETATM    8  N   UNL     1     -39.537 -48.111  12.661  1.00  0.00    -0.376 N 
HETATM    9  C   UNL     1     -38.531 -49.046  12.137  1.00  0.00     0.149 C 
HETATM   10  C   UNL     1     -37.859 -49.755  13.329  1.00  0.00     0.187 C 
HETATM   11  O   UNL     1     -37.304 -48.819  14.272  1.00  0.00    -0.388 OA
HETATM   12  C   UNL     1     -38.325 -47.939  14.774  1.00  0.00     0.187 C 
HETATM   13  C   UNL     1     -38.992 -47.154  13.635  1.00  0.00     0.149 C 
ENDBRANCH   4   8
BRANCH   1  14
HETATM   14  N   UNL     1     -44.634 -47.569  10.474  1.00  0.00    -0.314 N 
HETATM   15  C   UNL     1     -44.955 -47.536   9.132  1.00  0.00     0.219 C 
HETATM   16  C   UNL     1     -46.426 -47.294   8.918  1.00  0.00     0.117 C 
HETATM   17  O   UNL     1     -44.202 -47.660   8.174  1.00  0.00    -0.274 OA
HETATM   18  H   UNL     1     -45.385 -47.442  11.139  1.00  0.00     0.170 HD
ENDBRANCH   1  14
TORSDOF 2
ENDMDL
MODEL 5
REMARK VINA RESULT:      -5.1      4.935      6.107
REMARK  2 active torsions:
REMARK  status: ('A' for Active; 'I' for Inactive)
REMARK       I    between atoms: C_2  and  N_4 
REMARK    1  A    between atoms: N_4  and  C_5 
REMARK    2  A    between atoms: C_8  and  N_12 
ROOT
HETATM    1  C   UNL     1     -42.379 -48.283  10.970  1.00  0.00     0.107 A 
HETATM    2  C   UNL     1     -42.907 -48.887  12.101  1.00  0.00     0.051 A 
HETATM    3  C   UNL     1     -42.240 -49.978  12.665  1.00  0.00     0.034 A 
HETATM    4  C   UNL     1     -41.062 -50.477  12.106  1.00  0.00     0.046 A 
HETATM    5  C   UNL     1     -40.638 -49.803  10.961  1.00  0.00     0.119 A 
HETATM    6  N   UNL     1     -41.257 -48.734  10.394  1.00  0.00    -0.350 N 
ATOM      7  HN  UNL     1     -40.880 -48.289   9.558  1.00  0.00     0.166 HD
ENDROOT
BRANCH   4   8
HETATM    8  N   UNL     1     -40.426 -51.575  12.635  1.00  0.00    -0.376 N 
HETATM    9  C   UNL     1     -40.832 -52.957  12.344  1.00  0.00     0.149 C 
HETATM   10  C   UNL     1     -40.793 -53.762  13.659  1.00  0.00     0.187 C 
HETATM   11  O   UNL     1     -39.505 -53.689  14.299  1.00  0.00    -0.388 OA
HETATM   12  C   UNL     1     -39.158 -52.323  14.583  1.00  0.00     0.187 C 
HETATM   13  C   UNL     1     -39.119 -51.480  13.301  1.00  0.00     0.149 C 
ENDBRANCH   4   8
BRANCH   1  14
HETATM   14  N   UNL     1     -43.064 -47.177  10.453  1.00  0.00    -0.314 N 
HETATM   15  C   UNL     1     -43.471 -47.026   9.143  1.00  0.00     0.219 C 
HETATM   16  C   UNL     1     -44.137 -45.695   8.917  1.00  0.00     0.117 C 
HETATM   17  O   UNL     1     -43.331 -47.814   8.215  1.00  0.00    -0.274 OA
HETATM   18  H   UNL     1     -43.254 -46.419  11.094  1.00  0.00     0.170 HD
ENDBRANCH   1  14
TORSDOF 2
ENDMDL
MODEL 6
REMARK VINA RESULT:      -5.1      6.003      8.436
REMARK  2 active torsions:
REMARK  status: ('A' for Active; 'I' for Inactive)
REMARK       I    between atoms: C_2  and  N_4 
REMARK    1  A    between atoms: N_4  and  C_5 
REMARK    2  A    between atoms: C_8  and  N_12 
ROOT
HETATM    1  C   UNL     1     -41.872 -49.628  11.961  1.00  0.00     0.107 A 
HETATM    2  C   UNL     1     -42.986 -49.735  12.782  1.00  0.00     0.051 A 
HETATM    3  C   UNL     1     -43.386 -51.000  13.224  1.00  0.00     0.034 A 
HETATM    4  C   UNL     1     -42.695 -52.153  12.848  1.00  0.00     0.046 A 
HETATM    5  C   UNL     1     -41.607 -51.923  12.007  1.00  0.00     0.119 A 
HETATM    6  N   UNL     1     -41.185 -50.707  11.568  1.00  0.00    -0.350 N 
ATOM      7  HN  UNL     1     -40.373 -50.620  10.958  1.00  0.00     0.166 HD
ENDROOT
BRANCH   4   8
HETATM    8  N   UNL     1     -43.110 -53.401  13.249  1.00  0.00    -0.376 N 
HETATM    9  C   UNL     1     -44.321 -54.051  12.728  1.00  0.00     0.149 C 
HETATM   10  C   UNL     1     -45.064 -54.710  13.907  1.00  0.00     0.187 C 
HETATM   11  O   UNL     1     -44.220 -55.621  14.637  1.00  0.00    -0.388 OA
HETATM   12  C   UNL     1     -43.061 -54.938  15.145  1.00  0.00     0.187 C 
HETATM   13  C   UNL     1     -42.241 -54.311  14.009  1.00  0.00     0.149 C 
ENDBRANCH   4   8
BRANCH   1  14
HETATM   14  N   UNL     1     -41.491 -48.342  11.563  1.00  0.00    -0.314 N 
HETATM   15  C   UNL     1     -40.193 -47.877  11.489  1.00  0.00     0.219 C 
HETATM   16  C   UNL     1     -40.143 -46.431  11.072  1.00  0.00     0.117 C 
HETATM   17  O   UNL     1     -39.159 -48.488  11.733  1.00  0.00    -0.274 OA
HETATM   18  H   UNL     1     -42.233 -47.697  11.332  1.00  0.00     0.170 HD
ENDBRANCH   1  14
TORSDOF 2
ENDMDL
MODEL 7
REMARK VINA RESULT:      -4.8      8.088      9.087
REMARK  2 active torsions:
REMARK  status: ('A' for Active; 'I' for Inactive)
REMARK       I    between atoms: C_2  and  N_4 
REMARK    1  A    between atoms: N_4  and  C_5 
REMARK    2  A    between atoms: C_8  and  N_12 
ROOT
HETATM    1  C   UNL     1     -44.485 -53.166  12.855  1.00  0.00     0.107 A 
HETATM    2  C   UNL     1     -43.162 -52.986  12.477  1.00  0.00     0.051 A 
HETATM    3  C   UNL     1     -42.147 -53.517  13.279  1.00  0.00     0.034 A 
HETATM    4  C   UNL     1     -42.438 -54.212  14.454  1.00  0.00     0.046 A 
HETATM    5  C   UNL     1     -43.799 -54.312  14.741  1.00  0.00     0.119 A 
HETATM    6  N   UNL     1     -44.810 -53.817  13.978  1.00  0.00    -0.350 N 
ATOM      7  HN  UNL     1     -45.785 -53.938  14.253  1.00  0.00     0.166 HD
ENDROOT
BRANCH   4   8
HETATM    8  N   UNL     1     -41.441 -54.700  15.264  1.00  0.00    -0.376 N 
HETATM    9  C   UNL     1     -41.691 -55.632  16.373  1.00  0.00     0.149 C 
HETATM   10  C   UNL     1     -40.847 -55.185  17.583  1.00  0.00     0.187 C 
HETATM   11  O   UNL     1     -39.448 -55.079  17.257  1.00  0.00    -0.388 OA
HETATM   12  C   UNL     1     -39.248 -54.143  16.183  1.00  0.00     0.187 C 
HETATM   13  C   UNL     1     -40.017 -54.569  14.924  1.00  0.00     0.149 C 
ENDBRANCH   4   8
BRANCH   1  14
HETATM   14  N   UNL     1     -45.470 -52.642  12.010  1.00  0.00    -0.314 N 
HETATM   15  C   UNL     1     -46.513 -51.827  12.403  1.00  0.00     0.219 C 
HETATM   16  C   UNL     1     -47.417 -51.485  11.249  1.00  0.00     0.117 C 
HETATM   17  O   UNL     1     -46.757 -51.406  13.527  1.00  0.00    -0.274 OA
HETATM   18  H   UNL     1     -45.421 -52.903  11.035  1.00  0.00     0.170 HD
ENDBRANCH   1  14
TORSDOF 2
ENDMDL
MODEL 8
REMARK VINA RESULT:      -4.7      5.023      5.953
REMARK  2 active torsions:
REMARK  status: ('A' for Active; 'I' for Inactive)
REMARK       I    between atoms: C_2  and  N_4 
REMARK    1  A    between atoms: N_4  and  C_5 
REMARK    2  A    between atoms: C_8  and  N_12 
ROOT
HETATM    1  C   UNL     1     -42.347 -51.428  13.309  1.00  0.00     0.107 A 
HETATM    2  C   UNL     1     -43.287 -50.409  13.353  1.00  0.00     0.051 A 
HETATM    3  C   UNL     1     -43.102 -49.278  12.551  1.00  0.00     0.034 A 
HETATM    4  C   UNL     1     -41.989 -49.151  11.720  1.00  0.00     0.046 A 
HETATM    5  C   UNL     1     -41.104 -50.228  11.774  1.00  0.00     0.119 A 
HETATM    6  N   UNL     1     -41.259 -51.345  12.534  1.00  0.00    -0.350 N 
ATOM      7  HN  UNL     1     -40.569 -52.096  12.514  1.00  0.00     0.166 HD
ENDROOT
BRANCH   4   8
HETATM    8  N   UNL     1     -41.785 -48.023  10.961  1.00  0.00    -0.376 N 
HETATM    9  C   UNL     1     -40.601 -47.163  11.101  1.00  0.00     0.149 C 
HETATM   10  C   UNL     1     -41.061 -45.692  11.050  1.00  0.00     0.187 C 
HETATM   11  O   UNL     1     -41.814 -45.403   9.857  1.00  0.00    -0.388 OA
HETATM   12  C   UNL     1     -42.972 -46.252   9.771  1.00  0.00     0.187 C 
HETATM   13  C   UNL     1     -42.575 -47.735   9.755  1.00  0.00     0.149 C 
ENDBRANCH   4   8
BRANCH   1  14
HETATM   14  N   UNL     1     -42.584 -52.553  14.107  1.00  0.00    -0.314 N 
HETATM   15  C   UNL     1     -42.149 -53.835  13.835  1.00  0.00     0.219 C 
HETATM   16  C   UNL     1     -42.621 -54.815  14.876  1.00  0.00     0.117 C 
HETATM   17  O   UNL     1     -41.479 -54.217  12.883  1.00  0.00    -0.274 OA
HETATM   18  H   UNL     1     -43.138 -52.413  14.940  1.00  0.00     0.170 HD
ENDBRANCH   1  14
TORSDOF 2
ENDMDL
MODEL 9
REMARK VINA RESULT:      -4.6      4.913      7.363
REMARK  2 active torsions:
REMARK  status: ('A' for Active; 'I' for Inactive)
REMARK       I    between atoms: C_2  and  N_4 
REMARK    1  A    between atoms: N_4  and  C_5 
REMARK    2  A    between atoms: C_8  and  N_12 
ROOT
HETATM    1  C   UNL     1     -41.035 -48.516  11.275  1.00  0.00     0.107 A 
HETATM    2  C   UNL     1     -40.323 -49.704  11.206  1.00  0.00     0.051 A 
HETATM    3  C   UNL     1     -40.853 -50.851  11.807  1.00  0.00     0.034 A 
HETATM    4  C   UNL     1     -42.073 -50.819  12.482  1.00  0.00     0.046 A 
HETATM    5  C   UNL     1     -42.688 -49.567  12.502  1.00  0.00     0.119 A 
HETATM    6  N   UNL     1     -42.206 -48.437  11.919  1.00  0.00    -0.350 N 
ATOM      7  HN  UNL     1     -42.719 -47.557  11.972  1.00  0.00     0.166 HD
ENDROOT
BRANCH   4   8
HETATM    8  N   UNL     1     -42.577 -51.935  13.108  1.00  0.00    -0.376 N 
HETATM    9  C   UNL     1     -41.825 -52.701  14.112  1.00  0.00     0.149 C 
HETATM   10  C   UNL     1     -42.030 -54.202  13.831  1.00  0.00     0.187 C 
HETATM   11  O   UNL     1     -43.425 -54.560  13.796  1.00  0.00    -0.388 OA
HETATM   12  C   UNL     1     -44.117 -53.802  12.788  1.00  0.00     0.187 C 
HETATM   13  C   UNL     1     -44.001 -52.294  13.048  1.00  0.00     0.149 C 
ENDBRANCH   4   8
BRANCH   1  14
HETATM   14  N   UNL     1     -40.482 -47.399  10.637  1.00  0.00    -0.314 N 
HETATM   15  C   UNL     1     -40.226 -46.181  11.233  1.00  0.00     0.219 C 
HETATM   16  C   UNL     1     -39.676 -45.185  10.247  1.00  0.00     0.117 C 
HETATM   17  O   UNL     1     -40.411 -45.859  12.400  1.00  0.00    -0.274 OA
HETATM   18  H   UNL     1     -40.276 -47.493   9.652  1.00  0.00     0.170 HD
ENDBRANCH   1  14
TORSDOF 2
ENDMDL
