MODEL 1
REMARK VINA RESULT:      -7.1      0.000      0.000
REMARK  6 active torsions:
REMARK  status: ('A' for Active; 'I' for Inactive)
REMARK    1  A    between atoms: C_2  and  O_3 
REMARK    2  A    between atoms: C_2  and  C_11 
REMARK    3  A    between atoms: O_3  and  C_4 
REMARK    4  A    between atoms: C_4  and  C_5 
REMARK       I    between atoms: C_11  and  N_13 
REMARK    5  A    between atoms: N_13  and  C_14 
REMARK    6  A    between atoms: C_16  and  C_21 
ROOT
HETATM    1  C   UNL     1     -42.910 -48.357  13.257  1.00  0.00     0.251 C 
HETATM    2  O   UNL     1     -42.695 -48.071  14.437  1.00  0.00    -0.270 OA
HETATM    3  N   UNL     1     -43.010 -47.315  12.366  1.00  0.00    -0.320 N 
HETATM    4  H   UNL     1     -42.461 -46.514  12.660  1.00  0.00     0.169 HD
ENDROOT
BRANCH   3   5
HETATM    5  C   UNL     1     -43.373 -47.361  11.046  1.00  0.00     0.104 A 
HETATM    6  C   UNL     1     -44.621 -47.642  10.630  1.00  0.00     0.052 A 
HETATM    7  C   UNL     1     -44.941 -47.790   9.220  1.00  0.00     0.065 A 
HETATM    8  C   UNL     1     -43.955 -47.632   8.318  1.00  0.00     0.107 A 
HETATM    9  N   UNL     1     -42.679 -47.311   8.714  1.00  0.00    -0.331 N 
HETATM   10  C   UNL     1     -42.298 -47.131  10.024  1.00  0.00     0.272 A 
HETATM   11  H   UNL     1     -41.940 -47.214   8.026  1.00  0.00     0.168 HD
HETATM   12  O   UNL     1     -41.144 -46.871  10.351  1.00  0.00    -0.266 OA
BRANCH   7  13
HETATM   13  C   UNL     1     -46.343 -48.166   8.827  1.00  0.00     0.418 C 
HETATM   14  F   UNL     1     -47.201 -47.113   8.859  1.00  0.00    -0.166 F 
HETATM   15  F   UNL     1     -46.390 -48.675   7.570  1.00  0.00    -0.166 F 
HETATM   16  F   UNL     1     -46.855 -49.111   9.656  1.00  0.00    -0.166 F 
ENDBRANCH   7  13
ENDBRANCH   3   5
BRANCH   1  17
HETATM   17  C   UNL     1     -43.025 -49.837  12.753  1.00  0.00     0.209 C 
HETATM   18  C   UNL     1     -41.666 -50.525  12.555  1.00  0.00     0.050 C 
BRANCH  17  19
HETATM   19  O   UNL     1     -43.876 -50.688  13.536  1.00  0.00    -0.374 OA
BRANCH  19  20
HETATM   20  C   UNL     1     -43.883 -52.058  13.131  1.00  0.00     0.200 C 
BRANCH  20  21
HETATM   21  C   UNL     1     -45.249 -52.467  12.562  1.00  0.00     0.145 C 
HETATM   22  C   UNL     1     -46.416 -51.600  13.041  1.00  0.00     0.034 C 
HETATM   23  C   UNL     1     -46.754 -51.867  14.503  1.00  0.00     0.005 C 
HETATM   24  C   UNL     1     -46.934 -53.361  14.743  1.00  0.00     0.026 C 
HETATM   25  C   UNL     1     -45.762 -54.160  14.194  1.00  0.00     0.168 C 
HETATM   26  O   UNL     1     -45.519 -53.856  12.818  1.00  0.00    -0.384 OA
ENDBRANCH  20  21
ENDBRANCH  19  20
ENDBRANCH  17  19
ENDBRANCH   1  17
TORSDOF 6
ENDMDL
MODEL 2
REMARK VINA RESULT:      -6.7      2.411      3.040
REMARK  6 active torsions:
REMARK  status: ('A' for Active; 'I' for Inactive)
REMARK    1  A    between atoms: C_2  and  O_3 
REMARK    2  A    between atoms: C_2  and  C_11 
REMARK    3  A    between atoms: O_3  and  C_4 
REMARK    4  A    between atoms: C_4  and  C_5 
REMARK       I    between atoms: C_11  and  N_13 
REMARK    5  A    between atoms: N_13  and  C_14 
REMARK    6  A    between atoms: C_16  and  C_21 
ROOT
HETATM    1  C   UNL     1     -42.049 -48.715  12.843  1.00  0.00     0.251 C 
HETATM    2  O   UNL     1     -41.846 -48.781  14.058  1.00  0.00    -0.270 OA
HETATM    3  N   UNL     1     -42.674 -47.586  12.372  1.00  0.00    -0.320 N 
HETATM    4  H   UNL     1     -42.485 -46.777  12.955  1.00  0.00     0.169 HD
ENDROOT
BRANCH   3   5
HETATM    5  C   UNL     1     -43.127 -47.335  11.103  1.00  0.00     0.104 A 
HETATM    6  C   UNL     1     -44.349 -47.690  10.669  1.00  0.00     0.052 A 
HETATM    7  C   UNL     1     -44.751 -47.506   9.283  1.00  0.00     0.065 A 
HETATM    8  C   UNL     1     -43.870 -46.959   8.427  1.00  0.00     0.107 A 
HETATM    9  N   UNL     1     -42.627 -46.557   8.852  1.00  0.00    -0.331 N 
HETATM   10  C   UNL     1     -42.177 -46.674  10.147  1.00  0.00     0.272 A 
HETATM   11  H   UNL     1     -41.963 -46.164   8.192  1.00  0.00     0.168 HD
HETATM   12  O   UNL     1     -41.051 -46.330  10.493  1.00  0.00    -0.266 OA
BRANCH   7  13
HETATM   13  C   UNL     1     -46.111 -47.981   8.851  1.00  0.00     0.418 C 
HETATM   14  F   UNL     1     -46.631 -48.922   9.681  1.00  0.00    -0.166 F 
HETATM   15  F   UNL     1     -47.004 -46.960   8.803  1.00  0.00    -0.166 F 
HETATM   16  F   UNL     1     -46.074 -48.533   7.612  1.00  0.00    -0.166 F 
ENDBRANCH   7  13
ENDBRANCH   3   5
BRANCH   1  17
HETATM   17  C   UNL     1     -41.586 -49.833  11.847  1.00  0.00     0.209 C 
HETATM   18  C   UNL     1     -40.119 -49.700  11.415  1.00  0.00     0.050 C 
BRANCH  17  19
HETATM   19  O   UNL     1     -41.831 -51.180  12.279  1.00  0.00    -0.374 OA
BRANCH  19  20
HETATM   20  C   UNL     1     -40.690 -51.849  12.818  1.00  0.00     0.200 C 
BRANCH  20  21
HETATM   21  C   UNL     1     -40.803 -53.372  12.653  1.00  0.00     0.145 C 
HETATM   22  C   UNL     1     -42.118 -53.965  13.164  1.00  0.00     0.034 C 
HETATM   23  C   UNL     1     -42.187 -53.954  14.686  1.00  0.00     0.005 C 
HETATM   24  C   UNL     1     -40.934 -54.585  15.281  1.00  0.00     0.026 C 
HETATM   25  C   UNL     1     -39.670 -53.982  14.686  1.00  0.00     0.168 C 
HETATM   26  O   UNL     1     -39.682 -54.040  13.258  1.00  0.00    -0.384 OA
ENDBRANCH  20  21
ENDBRANCH  19  20
ENDBRANCH  17  19
ENDBRANCH   1  17
TORSDOF 6
ENDMDL
MODEL 3
REMARK VINA RESULT:      -6.5      2.164      2.956
REMARK  6 active torsions:
REMARK  status: ('A' for Active; 'I' for Inactive)
REMARK    1  A    between atoms: C_2  and  O_3 
REMARK    2  A    between atoms: C_2  and  C_11 
REMARK    3  A    between atoms: O_3  and  C_4 
REMARK    4  A    between atoms: C_4  and  C_5 
REMARK       I    between atoms: C_11  and  N_13 
REMARK    5  A    between atoms: N_13  and  C_14 
REMARK    6  A    between atoms: C_16  and  C_21 
ROOT
HETATM    1  C   UNL     1     -39.870 -50.586  11.951  1.00  0.00     0.251 C 
HETATM    2  O   UNL     1     -38.741 -51.052  12.130  1.00  0.00    -0.270 OA
HETATM    3  N   UNL     1     -39.950 -49.311  11.445  1.00  0.00    -0.320 N 
HETATM    4  H   UNL     1     -39.149 -49.083  10.865  1.00  0.00     0.169 HD
ENDROOT
BRANCH   3   5
HETATM    5  C   UNL     1     -41.065 -48.531  11.286  1.00  0.00     0.104 A 
HETATM    6  C   UNL     1     -41.768 -48.469  10.141  1.00  0.00     0.052 A 
HETATM    7  C   UNL     1     -42.880 -47.546   9.976  1.00  0.00     0.065 A 
HETATM    8  C   UNL     1     -43.206 -46.745  11.006  1.00  0.00     0.107 A 
HETATM    9  N   UNL     1     -42.525 -46.811  12.198  1.00  0.00    -0.331 N 
HETATM   10  C   UNL     1     -41.479 -47.670  12.444  1.00  0.00     0.272 A 
HETATM   11  H   UNL     1     -42.768 -46.187  12.961  1.00  0.00     0.168 HD
HETATM   12  O   UNL     1     -40.871 -47.690  13.510  1.00  0.00    -0.266 OA
BRANCH   7  13
HETATM   13  C   UNL     1     -43.585 -47.486   8.649  1.00  0.00     0.418 C 
HETATM   14  F   UNL     1     -43.651 -46.228   8.143  1.00  0.00    -0.166 F 
HETATM   15  F   UNL     1     -42.963 -48.254   7.719  1.00  0.00    -0.166 F 
HETATM   16  F   UNL     1     -44.862 -47.935   8.744  1.00  0.00    -0.166 F 
ENDBRANCH   7  13
ENDBRANCH   3   5
BRANCH   1  17
HETATM   17  C   UNL     1     -41.176 -51.405  12.234  1.00  0.00     0.209 C 
HETATM   18  C   UNL     1     -40.988 -52.924  12.107  1.00  0.00     0.050 C 
BRANCH  17  19
HETATM   19  O   UNL     1     -41.827 -51.112  13.480  1.00  0.00    -0.374 OA
BRANCH  19  20
HETATM   20  C   UNL     1     -43.237 -50.905  13.380  1.00  0.00     0.200 C 
BRANCH  20  21
HETATM   21  C   UNL     1     -44.017 -52.174  13.754  1.00  0.00     0.145 C 
HETATM   22  C   UNL     1     -45.177 -52.501  12.811  1.00  0.00     0.034 C 
HETATM   23  C   UNL     1     -46.339 -51.530  12.990  1.00  0.00     0.005 C 
HETATM   24  C   UNL     1     -46.725 -51.428  14.460  1.00  0.00     0.026 C 
HETATM   25  C   UNL     1     -45.513 -51.155  15.339  1.00  0.00     0.168 C 
HETATM   26  O   UNL     1     -44.477 -52.114  15.115  1.00  0.00    -0.384 OA
ENDBRANCH  20  21
ENDBRANCH  19  20
ENDBRANCH  17  19
ENDBRANCH   1  17
TORSDOF 6
ENDMDL
MODEL 4
REMARK VINA RESULT:      -6.4      3.188      6.850
REMARK  6 active torsions:
REMARK  status: ('A' for Active; 'I' for Inactive)
REMARK    1  A    between atoms: C_2  and  O_3 
REMARK    2  A    between atoms: C_2  and  C_11 
REMARK    3  A    between atoms: O_3  and  C_4 
REMARK    4  A    between atoms: C_4  and  C_5 
REMARK       I    between atoms: C_11  and  N_13 
REMARK    5  A    between atoms: N_13  and  C_14 
REMARK    6  A    between atoms: C_16  and  C_21 
ROOT
HETATM    1  C   UNL     1     -41.181 -49.185  13.003  1.00  0.00     0.251 C 
HETATM    2  O   UNL     1     -40.158 -48.688  13.481  1.00  0.00    -0.270 OA
HETATM    3  N   UNL     1     -41.659 -50.329  13.596  1.00  0.00    -0.320 N 
HETATM    4  H   UNL     1     -41.419 -50.372  14.581  1.00  0.00     0.169 HD
ENDROOT
BRANCH   3   5
HETATM    5  C   UNL     1     -42.684 -51.136  13.177  1.00  0.00     0.104 A 
HETATM    6  C   UNL     1     -43.958 -50.985  13.580  1.00  0.00     0.052 A 
HETATM    7  C   UNL     1     -44.997 -51.929  13.200  1.00  0.00     0.065 A 
HETATM    8  C   UNL     1     -44.662 -52.971  12.419  1.00  0.00     0.107 A 
HETATM    9  N   UNL     1     -43.374 -53.130  11.965  1.00  0.00    -0.331 N 
HETATM   10  C   UNL     1     -42.339 -52.273  12.259  1.00  0.00     0.272 A 
HETATM   11  H   UNL     1     -43.130 -53.931  11.393  1.00  0.00     0.168 HD
HETATM   12  O   UNL     1     -41.193 -52.454  11.861  1.00  0.00    -0.266 OA
BRANCH   7  13
HETATM   13  C   UNL     1     -46.388 -51.734  13.737  1.00  0.00     0.418 C 
HETATM   14  F   UNL     1     -46.426 -50.926  14.827  1.00  0.00    -0.166 F 
HETATM   15  F   UNL     1     -47.209 -51.182  12.807  1.00  0.00    -0.166 F 
HETATM   16  F   UNL     1     -46.947 -52.914  14.107  1.00  0.00    -0.166 F 
ENDBRANCH   7  13
ENDBRANCH   3   5
BRANCH   1  17
HETATM   17  C   UNL     1     -41.952 -48.540  11.801  1.00  0.00     0.209 C 
HETATM   18  C   UNL     1     -43.075 -47.585  12.235  1.00  0.00     0.050 C 
BRANCH  17  19
HETATM   19  O   UNL     1     -41.130 -47.887  10.822  1.00  0.00    -0.374 OA
BRANCH  19  20
HETATM   20  C   UNL     1     -41.537 -46.558  10.493  1.00  0.00     0.200 C 
BRANCH  20  21
HETATM   21  C   UNL     1     -40.370 -45.568  10.618  1.00  0.00     0.145 C 
HETATM   22  C   UNL     1     -39.664 -45.593  11.976  1.00  0.00     0.034 C 
HETATM   23  C   UNL     1     -40.527 -44.977  13.071  1.00  0.00     0.005 C 
HETATM   24  C   UNL     1     -41.029 -43.603  12.643  1.00  0.00     0.026 C 
HETATM   25  C   UNL     1     -41.669 -43.648  11.263  1.00  0.00     0.168 C 
HETATM   26  O   UNL     1     -40.791 -44.231  10.297  1.00  0.00    -0.384 OA
ENDBRANCH  20  21
ENDBRANCH  19  20
ENDBRANCH  17  19
ENDBRANCH   1  17
TORSDOF 6
ENDMDL
MODEL 5
REMARK VINA RESULT:      -6.3      1.327      1.692
REMARK  6 active torsions:
REMARK  status: ('A' for Active; 'I' for Inactive)
REMARK    1  A    between atoms: C_2  and  O_3 
REMARK    2  A    between atoms: C_2  and  C_11 
REMARK    3  A    between atoms: O_3  and  C_4 
REMARK    4  A    between atoms: C_4  and  C_5 
REMARK       I    between atoms: C_11  and  N_13 
REMARK    5  A    between atoms: N_13  and  C_14 
REMARK    6  A    between atoms: C_16  and  C_21 
ROOT
HETATM    1  C   UNL     1     -42.549 -49.506  14.080  1.00  0.00     0.251 C 
HETATM    2  O   UNL     1     -42.759 -49.641  15.288  1.00  0.00    -0.270 OA
HETATM    3  N   UNL     1     -42.665 -48.239  13.561  1.00  0.00    -0.320 N 
HETATM    4  H   UNL     1     -42.453 -47.526  14.251  1.00  0.00     0.169 HD
ENDROOT
BRANCH   3   5
HETATM    5  C   UNL     1     -42.616 -47.854  12.246  1.00  0.00     0.104 A 
HETATM    6  C   UNL     1     -43.698 -47.796  11.450  1.00  0.00     0.052 A 
HETATM    7  C   UNL     1     -43.589 -47.491  10.033  1.00  0.00     0.065 A 
HETATM    8  C   UNL     1     -42.368 -47.256   9.520  1.00  0.00     0.107 A 
HETATM    9  N   UNL     1     -41.249 -47.276  10.317  1.00  0.00    -0.331 N 
HETATM   10  C   UNL     1     -41.267 -47.533  11.669  1.00  0.00     0.272 A 
HETATM   11  H   UNL     1     -40.332 -47.116   9.915  1.00  0.00     0.168 HD
HETATM   12  O   UNL     1     -40.249 -47.571  12.352  1.00  0.00    -0.266 OA
BRANCH   7  13
HETATM   13  C   UNL     1     -44.833 -47.502   9.188  1.00  0.00     0.418 C 
HETATM   14  F   UNL     1     -44.659 -48.137   8.000  1.00  0.00    -0.166 F 
HETATM   15  F   UNL     1     -45.860 -48.123   9.821  1.00  0.00    -0.166 F 
HETATM   16  F   UNL     1     -45.249 -46.243   8.899  1.00  0.00    -0.166 F 
ENDBRANCH   7  13
ENDBRANCH   3   5
BRANCH   1  17
HETATM   17  C   UNL     1     -42.124 -50.700  13.157  1.00  0.00     0.209 C 
HETATM   18  C   UNL     1     -41.282 -51.762  13.880  1.00  0.00     0.050 C 
BRANCH  17  19
HETATM   19  O   UNL     1     -43.195 -51.344  12.453  1.00  0.00    -0.374 OA
BRANCH  19  20
HETATM   20  C   UNL     1     -43.774 -52.456  13.139  1.00  0.00     0.200 C 
BRANCH  20  21
HETATM   21  C   UNL     1     -45.186 -52.762  12.618  1.00  0.00     0.145 C 
HETATM   22  C   UNL     1     -46.192 -51.626  12.822  1.00  0.00     0.034 C 
HETATM   23  C   UNL     1     -46.581 -51.475  14.289  1.00  0.00     0.005 C 
HETATM   24  C   UNL     1     -47.014 -52.817  14.866  1.00  0.00     0.026 C 
HETATM   25  C   UNL     1     -45.990 -53.905  14.577  1.00  0.00     0.168 C 
HETATM   26  O   UNL     1     -45.689 -53.985  13.181  1.00  0.00    -0.384 OA
ENDBRANCH  20  21
ENDBRANCH  19  20
ENDBRANCH  17  19
ENDBRANCH   1  17
TORSDOF 6
ENDMDL
MODEL 6
REMARK VINA RESULT:      -6.3      2.564      3.432
REMARK  6 active torsions:
REMARK  status: ('A' for Active; 'I' for Inactive)
REMARK    1  A    between atoms: C_2  and  O_3 
REMARK    2  A    between atoms: C_2  and  C_11 
REMARK    3  A    between atoms: O_3  and  C_4 
REMARK    4  A    between atoms: C_4  and  C_5 
REMARK       I    between atoms: C_11  and  N_13 
REMARK    5  A    between atoms: N_13  and  C_14 
REMARK    6  A    between atoms: C_16  and  C_21 
ROOT
HETATM    1  C   UNL     1     -41.175 -51.073  11.981  1.00  0.00     0.251 C 
HETATM    2  O   UNL     1     -40.826 -52.248  11.844  1.00  0.00    -0.270 OA
HETATM    3  N   UNL     1     -40.861 -50.203  10.965  1.00  0.00    -0.320 N 
HETATM    4  H   UNL     1     -40.810 -50.673  10.067  1.00  0.00     0.169 HD
ENDROOT
BRANCH   3   5
HETATM    5  C   UNL     1     -41.015 -48.841  10.937  1.00  0.00     0.104 A 
HETATM    6  C   UNL     1     -42.051 -48.225  10.342  1.00  0.00     0.052 A 
HETATM    7  C   UNL     1     -42.121 -46.776  10.238  1.00  0.00     0.065 A 
HETATM    8  C   UNL     1     -41.120 -46.046  10.762  1.00  0.00     0.107 A 
HETATM    9  N   UNL     1     -40.066 -46.650  11.405  1.00  0.00    -0.331 N 
HETATM   10  C   UNL     1     -39.935 -48.010  11.567  1.00  0.00     0.272 A 
HETATM   11  H   UNL     1     -39.307 -46.089  11.779  1.00  0.00     0.168 HD
HETATM   12  O   UNL     1     -38.970 -48.523  12.123  1.00  0.00    -0.266 OA
BRANCH   7  13
HETATM   13  C   UNL     1     -43.277 -46.154   9.505  1.00  0.00     0.418 C 
HETATM   14  F   UNL     1     -43.117 -46.167   8.157  1.00  0.00    -0.166 F 
HETATM   15  F   UNL     1     -44.442 -46.798   9.771  1.00  0.00    -0.166 F 
HETATM   16  F   UNL     1     -43.453 -44.856   9.863  1.00  0.00    -0.166 F 
ENDBRANCH   7  13
ENDBRANCH   3   5
BRANCH   1  17
HETATM   17  C   UNL     1     -41.981 -50.570  13.228  1.00  0.00     0.209 C 
HETATM   18  C   UNL     1     -43.476 -50.360  12.947  1.00  0.00     0.050 C 
BRANCH  17  19
HETATM   19  O   UNL     1     -41.830 -51.360  14.417  1.00  0.00    -0.374 OA
BRANCH  19  20
HETATM   20  C   UNL     1     -43.053 -51.875  14.948  1.00  0.00     0.200 C 
BRANCH  20  21
HETATM   21  C   UNL     1     -43.003 -53.403  15.089  1.00  0.00     0.145 C 
HETATM   22  C   UNL     1     -42.785 -54.151  13.771  1.00  0.00     0.034 C 
HETATM   23  C   UNL     1     -44.025 -54.103  12.886  1.00  0.00     0.005 C 
HETATM   24  C   UNL     1     -45.256 -54.542  13.669  1.00  0.00     0.026 C 
HETATM   25  C   UNL     1     -45.375 -53.794  14.989  1.00  0.00     0.168 C 
HETATM   26  O   UNL     1     -44.175 -53.897  15.759  1.00  0.00    -0.384 OA
ENDBRANCH  20  21
ENDBRANCH  19  20
ENDBRANCH  17  19
ENDBRANCH   1  17
TORSDOF 6
ENDMDL
MODEL 7
REMARK VINA RESULT:      -6.2      5.069      7.520
REMARK  6 active torsions:
REMARK  status: ('A' for Active; 'I' for Inactive)
REMARK    1  A    between atoms: C_2  and  O_3 
REMARK    2  A    between atoms: C_2  and  C_11 
REMARK    3  A    between atoms: O_3  and  C_4 
REMARK    4  A    between atoms: C_4  and  C_5 
REMARK       I    between atoms: C_11  and  N_13 
REMARK    5  A    between atoms: N_13  and  C_14 
REMARK    6  A    between atoms: C_16  and  C_21 
ROOT
HETATM    1  C   UNL     1     -39.833 -53.391  15.378  1.00  0.00     0.251 C 
HETATM    2  O   UNL     1     -38.716 -53.792  15.715  1.00  0.00    -0.270 OA
HETATM    3  N   UNL     1     -40.518 -54.144  14.456  1.00  0.00    -0.320 N 
HETATM    4  H   UNL     1     -40.263 -55.125  14.506  1.00  0.00     0.169 HD
ENDROOT
BRANCH   3   5
HETATM    5  C   UNL     1     -41.699 -53.847  13.828  1.00  0.00     0.104 A 
HETATM    6  C   UNL     1     -42.900 -54.245  14.281  1.00  0.00     0.052 A 
HETATM    7  C   UNL     1     -44.120 -54.004  13.527  1.00  0.00     0.065 A 
HETATM    8  C   UNL     1     -44.030 -53.358  12.351  1.00  0.00     0.107 A 
HETATM    9  N   UNL     1     -42.819 -52.911  11.880  1.00  0.00    -0.331 N 
HETATM   10  C   UNL     1     -41.623 -53.078  12.540  1.00  0.00     0.272 A 
HETATM   11  H   UNL     1     -42.761 -52.443  10.981  1.00  0.00     0.168 HD
HETATM   12  O   UNL     1     -40.552 -52.691  12.083  1.00  0.00    -0.266 OA
BRANCH   7  13
HETATM   13  C   UNL     1     -45.423 -54.530  14.064  1.00  0.00     0.418 C 
HETATM   14  F   UNL     1     -45.450 -54.590  15.420  1.00  0.00    -0.166 F 
HETATM   15  F   UNL     1     -46.469 -53.754  13.682  1.00  0.00    -0.166 F 
HETATM   16  F   UNL     1     -45.676 -55.785  13.612  1.00  0.00    -0.166 F 
ENDBRANCH   7  13
ENDBRANCH   3   5
BRANCH   1  17
HETATM   17  C   UNL     1     -40.490 -52.106  15.990  1.00  0.00     0.209 C 
HETATM   18  C   UNL     1     -40.948 -52.286  17.446  1.00  0.00     0.050 C 
BRANCH  17  19
HETATM   19  O   UNL     1     -39.709 -50.906  15.885  1.00  0.00    -0.374 OA
BRANCH  19  20
HETATM   20  C   UNL     1     -39.744 -50.284  14.600  1.00  0.00     0.200 C 
BRANCH  20  21
HETATM   21  C   UNL     1     -38.456 -49.494  14.325  1.00  0.00     0.145 C 
HETATM   22  C   UNL     1     -38.565 -48.491  13.174  1.00  0.00     0.034 C 
HETATM   23  C   UNL     1     -38.627 -49.191  11.821  1.00  0.00     0.005 C 
HETATM   24  C   UNL     1     -37.484 -50.190  11.686  1.00  0.00     0.026 C 
HETATM   25  C   UNL     1     -37.407 -51.116  12.890  1.00  0.00     0.168 C 
HETATM   26  O   UNL     1     -37.343 -50.380  14.115  1.00  0.00    -0.384 OA
ENDBRANCH  20  21
ENDBRANCH  19  20
ENDBRANCH  17  19
ENDBRANCH   1  17
TORSDOF 6
ENDMDL
MODEL 8
REMARK VINA RESULT:      -6.2      3.510      6.781
REMARK  6 active torsions:
REMARK  status: ('A' for Active; 'I' for Inactive)
REMARK    1  A    between atoms: C_2  and  O_3 
REMARK    2  A    between atoms: C_2  and  C_11 
REMARK    3  A    between atoms: O_3  and  C_4 
REMARK    4  A    between atoms: C_4  and  C_5 
REMARK       I    between atoms: C_11  and  N_13 
REMARK    5  A    between atoms: N_13  and  C_14 
REMARK    6  A    between atoms: C_16  and  C_21 
ROOT
HETATM    1  C   UNL     1     -40.602 -50.563  11.790  1.00  0.00     0.251 C 
HETATM    2  O   UNL     1     -40.129 -49.902  10.862  1.00  0.00    -0.270 OA
HETATM    3  N   UNL     1     -40.969 -51.858  11.514  1.00  0.00    -0.320 N 
HETATM    4  H   UNL     1     -40.413 -52.257  10.765  1.00  0.00     0.169 HD
ENDROOT
BRANCH   3   5
HETATM    5  C   UNL     1     -41.631 -52.742  12.325  1.00  0.00     0.104 A 
HETATM    6  C   UNL     1     -42.971 -52.837  12.378  1.00  0.00     0.052 A 
HETATM    7  C   UNL     1     -43.638 -53.709  13.333  1.00  0.00     0.065 A 
HETATM    8  C   UNL     1     -42.882 -54.438  14.173  1.00  0.00     0.107 A 
HETATM    9  N   UNL     1     -41.510 -54.384  14.118  1.00  0.00    -0.331 N 
HETATM   10  C   UNL     1     -40.802 -53.605  13.232  1.00  0.00     0.272 A 
HETATM   11  H   UNL     1     -40.951 -54.924  14.770  1.00  0.00     0.168 HD
HETATM   12  O   UNL     1     -39.576 -53.557  13.222  1.00  0.00    -0.266 OA
BRANCH   7  13
HETATM   13  C   UNL     1     -45.141 -53.722  13.379  1.00  0.00     0.418 C 
HETATM   14  F   UNL     1     -45.708 -53.062  12.336  1.00  0.00    -0.166 F 
HETATM   15  F   UNL     1     -45.630 -54.988  13.358  1.00  0.00    -0.166 F 
HETATM   16  F   UNL     1     -45.608 -53.136  14.511  1.00  0.00    -0.166 F 
ENDBRANCH   7  13
ENDBRANCH   3   5
BRANCH   1  17
HETATM   17  C   UNL     1     -40.748 -49.995  13.243  1.00  0.00     0.209 C 
HETATM   18  C   UNL     1     -39.502 -49.244  13.737  1.00  0.00     0.050 C 
BRANCH  17  19
HETATM   19  O   UNL     1     -41.909 -49.183  13.472  1.00  0.00    -0.374 OA
BRANCH  19  20
HETATM   20  C   UNL     1     -41.710 -47.784  13.259  1.00  0.00     0.200 C 
BRANCH  20  21
HETATM   21  C   UNL     1     -42.947 -47.133  12.625  1.00  0.00     0.145 C 
HETATM   22  C   UNL     1     -43.397 -47.779  11.312  1.00  0.00     0.034 C 
HETATM   23  C   UNL     1     -42.436 -47.465  10.171  1.00  0.00     0.005 C 
HETATM   24  C   UNL     1     -42.184 -45.964  10.085  1.00  0.00     0.026 C 
HETATM   25  C   UNL     1     -41.794 -45.386  11.437  1.00  0.00     0.168 C 
HETATM   26  O   UNL     1     -42.750 -45.719  12.447  1.00  0.00    -0.384 OA
ENDBRANCH  20  21
ENDBRANCH  19  20
ENDBRANCH  17  19
ENDBRANCH   1  17
TORSDOF 6
ENDMDL
MODEL 9
REMARK VINA RESULT:      -5.9      5.663      7.251
REMARK  6 active torsions:
REMARK  status: ('A' for Active; 'I' for Inactive)
REMARK    1  A    between atoms: C_2  and  O_3 
REMARK    2  A    between atoms: C_2  and  C_11 
REMARK    3  A    between atoms: O_3  and  C_4 
REMARK    4  A    between atoms: C_4  and  C_5 
REMARK       I    between atoms: C_11  and  N_13 
REMARK    5  A    between atoms: N_13  and  C_14 
REMARK    6  A    between atoms: C_16  and  C_21 
ROOT
HETATM    1  C   UNL     1     -45.288 -53.765  15.384  1.00  0.00     0.251 C 
HETATM    2  O   UNL     1     -46.069 -54.427  16.074  1.00  0.00    -0.270 OA
HETATM    3  N   UNL     1     -44.451 -54.459  14.544  1.00  0.00    -0.320 N 
HETATM    4  H   UNL     1     -44.860 -55.338  14.244  1.00  0.00     0.169 HD
ENDROOT
BRANCH   3   5
HETATM    5  C   UNL     1     -43.418 -53.972  13.787  1.00  0.00     0.104 A 
HETATM    6  C   UNL     1     -42.136 -53.976  14.193  1.00  0.00     0.052 A 
HETATM    7  C   UNL     1     -41.084 -53.350  13.409  1.00  0.00     0.065 A 
HETATM    8  C   UNL     1     -41.415 -52.762  12.245  1.00  0.00     0.107 A 
HETATM    9  N   UNL     1     -42.711 -52.773  11.790  1.00  0.00    -0.331 N 
HETATM   10  C   UNL     1     -43.760 -53.361  12.459  1.00  0.00     0.272 A 
HETATM   11  H   UNL     1     -42.952 -52.309  10.921  1.00  0.00     0.168 HD
HETATM   12  O   UNL     1     -44.914 -53.333  12.042  1.00  0.00    -0.266 OA
BRANCH   7  13
HETATM   13  C   UNL     1     -39.681 -53.338  13.951  1.00  0.00     0.418 C 
HETATM   14  F   UNL     1     -38.940 -52.303  13.477  1.00  0.00    -0.166 F 
HETATM   15  F   UNL     1     -39.671 -53.242  15.305  1.00  0.00    -0.166 F 
HETATM   16  F   UNL     1     -39.013 -54.475  13.630  1.00  0.00    -0.166 F 
ENDBRANCH   7  13
ENDBRANCH   3   5
BRANCH   1  17
HETATM   17  C   UNL     1     -45.259 -52.198  15.409  1.00  0.00     0.209 C 
HETATM   18  C   UNL     1     -46.606 -51.554  15.046  1.00  0.00     0.050 C 
BRANCH  17  19
HETATM   19  O   UNL     1     -44.766 -51.611  16.622  1.00  0.00    -0.374 OA
BRANCH  19  20
HETATM   20  C   UNL     1     -45.433 -50.411  17.017  1.00  0.00     0.200 C 
BRANCH  20  21
HETATM   21  C   UNL     1     -45.737 -50.407  18.522  1.00  0.00     0.145 C 
HETATM   22  C   UNL     1     -46.040 -51.789  19.106  1.00  0.00     0.034 C 
HETATM   23  C   UNL     1     -47.404 -52.303  18.659  1.00  0.00     0.005 C 
HETATM   24  C   UNL     1     -48.479 -51.254  18.919  1.00  0.00     0.026 C 
HETATM   25  C   UNL     1     -48.083 -49.897  18.356  1.00  0.00     0.168 C 
HETATM   26  O   UNL     1     -46.798 -49.487  18.831  1.00  0.00    -0.384 OA
ENDBRANCH  20  21
ENDBRANCH  19  20
ENDBRANCH  17  19
ENDBRANCH   1  17
TORSDOF 6
ENDMDL
