MODEL 1
REMARK VINA RESULT:      -6.8      0.000      0.000
REMARK  5 active torsions:
REMARK  status: ('A' for Active; 'I' for Inactive)
REMARK    1  A    between atoms: O_2  and  C_3 
REMARK    2  A    between atoms: C_8  and  N_9 
REMARK       I    between atoms: N_9  and  C_10 
REMARK       I    between atoms: C_10  and  N_12 
REMARK    3  A    between atoms: N_12  and  C_13 
REMARK    4  A    between atoms: C_13  and  C_14 
REMARK    5  A    between atoms: C_14  and  C_19 
REMARK       I    between atoms: C_19  and  N_21 
ROOT
HETATM    1  N   UNL     1     -40.942 -50.097  11.559  1.00  0.00    -0.295 N 
HETATM    2  C   UNL     1     -41.288 -51.365  11.931  1.00  0.00     0.321 C 
HETATM    3  O   UNL     1     -40.426 -52.238  12.011  1.00  0.00    -0.247 OA
HETATM    4  N   UNL     1     -42.611 -51.596  12.122  1.00  0.00    -0.342 N 
HETATM    5  H   UNL     1     -39.971 -50.015  11.295  1.00  0.00     0.172 HD
HETATM    6  H   UNL     1     -43.181 -50.758  12.225  1.00  0.00     0.164 HD
ENDROOT
BRANCH   1   7
HETATM    7  C   UNL     1     -41.779 -48.980  11.425  1.00  0.00     0.113 A 
HETATM    8  C   UNL     1     -42.150 -48.306  12.567  1.00  0.00     0.066 A 
HETATM    9  C   UNL     1     -42.926 -47.187  12.375  1.00  0.00     0.095 A 
HETATM   10  N   UNL     1     -43.363 -46.781  11.170  1.00  0.00    -0.332 N 
HETATM   11  C   UNL     1     -42.974 -47.531  10.131  1.00  0.00     0.224 A 
ATOM     12  HN  UNL     1     -43.952 -45.955  11.056  1.00  0.00     0.168 HD
HETATM   13  N   UNL     1     -42.178 -48.600  10.199  1.00  0.00    -0.308 N 
ATOM     14  HN  UNL     1     -41.886 -49.105   9.362  1.00  0.00     0.171 HD
BRANCH  11  15
HETATM   15  O   UNL     1     -43.376 -47.202   8.854  1.00  0.00    -0.327 OA
HETATM   16  C   UNL     1     -44.156 -46.015   8.824  1.00  0.00     0.213 C 
ENDBRANCH  11  15
ENDBRANCH   1   7
BRANCH   4  17
HETATM   17  C   UNL     1     -43.165 -52.892  12.451  1.00  0.00     0.143 C 
BRANCH  17  18
HETATM   18  C   UNL     1     -44.243 -52.860  13.561  1.00  0.00     0.057 C 
HETATM   19  C   UNL     1     -45.653 -52.966  12.890  1.00  0.00     0.021 C 
HETATM   20  C   UNL     1     -46.553 -51.901  13.507  1.00  0.00     0.001 C 
HETATM   21  C   UNL     1     -45.786 -51.308  14.668  1.00  0.00     0.001 C 
HETATM   22  C   UNL     1     -44.315 -51.533  14.350  1.00  0.00     0.021 C 
BRANCH  18  23
HETATM   23  C   UNL     1     -44.006 -54.074  14.508  1.00  0.00     0.229 C 
HETATM   24  O   UNL     1     -44.877 -54.947  14.608  1.00  0.00    -0.272 OA
HETATM   25  N   UNL     1     -42.820 -54.209  15.237  1.00  0.00    -0.360 N 
HETATM   26  C   UNL     1     -41.707 -53.274  15.304  1.00  0.00     0.152 C 
HETATM   27  C   UNL     1     -42.563 -55.491  15.881  1.00  0.00     0.152 C 
ENDBRANCH  18  23
ENDBRANCH  17  18
ENDBRANCH   4  17
TORSDOF 5
ENDMDL
MODEL 2
REMARK VINA RESULT:      -6.5      1.833      3.362
REMARK  5 active torsions:
REMARK  status: ('A' for Active; 'I' for Inactive)
REMARK    1  A    between atoms: O_2  and  C_3 
REMARK    2  A    between atoms: C_8  and  N_9 
REMARK       I    between atoms: N_9  and  C_10 
REMARK       I    between atoms: C_10  and  N_12 
REMARK    3  A    between atoms: N_12  and  C_13 
REMARK    4  A    between atoms: C_13  and  C_14 
REMARK    5  A    between atoms: C_14  and  C_19 
REMARK       I    between atoms: C_19  and  N_21 
ROOT
HETATM    1  N   UNL     1     -40.077 -48.772  11.085  1.00  0.00    -0.295 N 
HETATM    2  C   UNL     1     -39.822 -50.067  11.434  1.00  0.00     0.321 C 
HETATM    3  O   UNL     1     -38.661 -50.450  11.568  1.00  0.00    -0.247 OA
HETATM    4  N   UNL     1     -40.899 -50.885  11.542  1.00  0.00    -0.342 N 
HETATM    5  H   UNL     1     -39.239 -48.246  10.882  1.00  0.00     0.172 HD
HETATM    6  H   UNL     1     -41.795 -50.405  11.609  1.00  0.00     0.164 HD
ENDROOT
BRANCH   1   7
HETATM    7  C   UNL     1     -41.325 -48.160  10.899  1.00  0.00     0.113 A 
HETATM    8  C   UNL     1     -41.892 -47.505  11.968  1.00  0.00     0.066 A 
HETATM    9  C   UNL     1     -43.090 -46.876  11.718  1.00  0.00     0.095 A 
HETATM   10  N   UNL     1     -43.724 -46.926  10.534  1.00  0.00    -0.332 N 
HETATM   11  C   UNL     1     -43.101 -47.622   9.573  1.00  0.00     0.224 A 
ATOM     12  HN  UNL     1     -44.620 -46.464  10.377  1.00  0.00     0.168 HD
HETATM   13  N   UNL     1     -41.914 -48.221   9.692  1.00  0.00    -0.308 N 
ATOM     14  HN  UNL     1     -41.476 -48.702   8.907  1.00  0.00     0.171 HD
BRANCH  11  15
HETATM   15  O   UNL     1     -43.674 -47.739   8.325  1.00  0.00    -0.327 OA
HETATM   16  C   UNL     1     -45.091 -47.816   8.387  1.00  0.00     0.213 C 
ENDBRANCH  11  15
ENDBRANCH   1   7
BRANCH   4  17
HETATM   17  C   UNL     1     -40.813 -52.299  11.835  1.00  0.00     0.143 C 
BRANCH  17  18
HETATM   18  C   UNL     1     -41.235 -52.678  13.275  1.00  0.00     0.057 C 
HETATM   19  C   UNL     1     -40.037 -52.388  14.238  1.00  0.00     0.021 C 
HETATM   20  C   UNL     1     -39.854 -53.599  15.146  1.00  0.00     0.001 C 
HETATM   21  C   UNL     1     -41.036 -54.509  14.893  1.00  0.00     0.001 C 
HETATM   22  C   UNL     1     -41.516 -54.183  13.487  1.00  0.00     0.021 C 
BRANCH  18  23
HETATM   23  C   UNL     1     -42.466 -51.807  13.669  1.00  0.00     0.229 C 
HETATM   24  O   UNL     1     -42.301 -50.807  14.379  1.00  0.00    -0.272 OA
HETATM   25  N   UNL     1     -43.753 -52.122  13.223  1.00  0.00    -0.360 N 
HETATM   26  C   UNL     1     -44.166 -53.274  12.437  1.00  0.00     0.152 C 
HETATM   27  C   UNL     1     -44.796 -51.120  13.406  1.00  0.00     0.152 C 
ENDBRANCH  18  23
ENDBRANCH  17  18
ENDBRANCH   4  17
TORSDOF 5
ENDMDL
MODEL 3
REMARK VINA RESULT:      -6.3      1.412      1.527
REMARK  5 active torsions:
REMARK  status: ('A' for Active; 'I' for Inactive)
REMARK    1  A    between atoms: O_2  and  C_3 
REMARK    2  A    between atoms: C_8  and  N_9 
REMARK       I    between atoms: N_9  and  C_10 
REMARK       I    between atoms: C_10  and  N_12 
REMARK    3  A    between atoms: N_12  and  C_13 
REMARK    4  A    between atoms: C_13  and  C_14 
REMARK    5  A    between atoms: C_14  and  C_19 
REMARK       I    between atoms: C_19  and  N_21 
ROOT
HETATM    1  N   UNL     1     -40.434 -50.837  11.445  1.00  0.00    -0.295 N 
HETATM    2  C   UNL     1     -41.164 -51.927  11.820  1.00  0.00     0.321 C 
HETATM    3  O   UNL     1     -40.648 -53.044  11.817  1.00  0.00    -0.247 OA
HETATM    4  N   UNL     1     -42.471 -51.705  12.110  1.00  0.00    -0.342 N 
HETATM    5  H   UNL     1     -39.513 -51.077  11.107  1.00  0.00     0.172 HD
HETATM    6  H   UNL     1     -42.713 -50.730  12.272  1.00  0.00     0.164 HD
ENDROOT
BRANCH   1   7
HETATM    7  C   UNL     1     -40.847 -49.498  11.397  1.00  0.00     0.113 A 
HETATM    8  C   UNL     1     -40.492 -48.671  12.438  1.00  0.00     0.066 A 
HETATM    9  C   UNL     1     -40.875 -47.356  12.316  1.00  0.00     0.095 A 
HETATM   10  N   UNL     1     -41.603 -46.885  11.287  1.00  0.00    -0.332 N 
HETATM   11  C   UNL     1     -41.926 -47.784  10.348  1.00  0.00     0.224 A 
ATOM     12  HN  UNL     1     -41.889 -45.907  11.227  1.00  0.00     0.168 HD
HETATM   13  N   UNL     1     -41.558 -49.067  10.341  1.00  0.00    -0.308 N 
ATOM     14  HN  UNL     1     -41.805 -49.690   9.572  1.00  0.00     0.171 HD
BRANCH  11  15
HETATM   15  O   UNL     1     -42.676 -47.401   9.257  1.00  0.00    -0.327 OA
HETATM   16  C   UNL     1     -44.068 -47.375   9.542  1.00  0.00     0.213 C 
ENDBRANCH  11  15
ENDBRANCH   1   7
BRANCH   4  17
HETATM   17  C   UNL     1     -43.410 -52.750  12.458  1.00  0.00     0.143 C 
BRANCH  17  18
HETATM   18  C   UNL     1     -44.253 -52.454  13.721  1.00  0.00     0.057 C 
HETATM   19  C   UNL     1     -45.316 -53.590  13.889  1.00  0.00     0.021 C 
HETATM   20  C   UNL     1     -46.665 -52.938  14.173  1.00  0.00     0.001 C 
HETATM   21  C   UNL     1     -46.396 -51.466  14.386  1.00  0.00     0.001 C 
HETATM   22  C   UNL     1     -45.105 -51.168  13.638  1.00  0.00     0.021 C 
BRANCH  18  23
HETATM   23  C   UNL     1     -43.297 -52.426  14.952  1.00  0.00     0.229 C 
HETATM   24  O   UNL     1     -43.018 -51.343  15.480  1.00  0.00    -0.272 OA
HETATM   25  N   UNL     1     -42.763 -53.603  15.486  1.00  0.00    -0.360 N 
HETATM   26  C   UNL     1     -42.920 -54.959  14.984  1.00  0.00     0.152 C 
HETATM   27  C   UNL     1     -42.106 -53.519  16.785  1.00  0.00     0.152 C 
ENDBRANCH  18  23
ENDBRANCH  17  18
ENDBRANCH   4  17
TORSDOF 5
ENDMDL
MODEL 4
REMARK VINA RESULT:      -6.0      1.587      2.722
REMARK  5 active torsions:
REMARK  status: ('A' for Active; 'I' for Inactive)
REMARK    1  A    between atoms: O_2  and  C_3 
REMARK    2  A    between atoms: C_8  and  N_9 
REMARK       I    between atoms: N_9  and  C_10 
REMARK       I    between atoms: C_10  and  N_12 
REMARK    3  A    between atoms: N_12  and  C_13 
REMARK    4  A    between atoms: C_13  and  C_14 
REMARK    5  A    between atoms: C_14  and  C_19 
REMARK       I    between atoms: C_19  and  N_21 
ROOT
HETATM    1  N   UNL     1     -40.386 -50.735  11.290  1.00  0.00    -0.295 N 
HETATM    2  C   UNL     1     -41.073 -51.823  11.744  1.00  0.00     0.321 C 
HETATM    3  O   UNL     1     -40.551 -52.936  11.714  1.00  0.00    -0.247 OA
HETATM    4  N   UNL     1     -42.350 -51.603  12.145  1.00  0.00    -0.342 N 
HETATM    5  H   UNL     1     -39.497 -50.975  10.876  1.00  0.00     0.172 HD
HETATM    6  H   UNL     1     -42.584 -50.627  12.313  1.00  0.00     0.164 HD
ENDROOT
BRANCH   1   7
HETATM    7  C   UNL     1     -40.810 -49.399  11.257  1.00  0.00     0.113 A 
HETATM    8  C   UNL     1     -40.386 -48.558  12.260  1.00  0.00     0.066 A 
HETATM    9  C   UNL     1     -40.787 -47.246  12.152  1.00  0.00     0.095 A 
HETATM   10  N   UNL     1     -41.591 -46.792  11.175  1.00  0.00    -0.332 N 
HETATM   11  C   UNL     1     -41.976 -47.704  10.271  1.00  0.00     0.224 A 
ATOM     12  HN  UNL     1     -41.887 -45.817  11.125  1.00  0.00     0.168 HD
HETATM   13  N   UNL     1     -41.601 -48.985  10.251  1.00  0.00    -0.308 N 
ATOM     14  HN  UNL     1     -41.899 -49.618   9.510  1.00  0.00     0.171 HD
BRANCH  11  15
HETATM   15  O   UNL     1     -42.807 -47.338   9.235  1.00  0.00    -0.327 OA
HETATM   16  C   UNL     1     -44.167 -47.258   9.636  1.00  0.00     0.213 C 
ENDBRANCH  11  15
ENDBRANCH   1   7
BRANCH   4  17
HETATM   17  C   UNL     1     -43.248 -52.648  12.591  1.00  0.00     0.143 C 
BRANCH  17  18
HETATM   18  C   UNL     1     -43.165 -52.955  14.106  1.00  0.00     0.057 C 
HETATM   19  C   UNL     1     -42.207 -51.913  14.774  1.00  0.00     0.021 C 
HETATM   20  C   UNL     1     -41.244 -52.669  15.683  1.00  0.00     0.001 C 
HETATM   21  C   UNL     1     -41.734 -54.099  15.736  1.00  0.00     0.001 C 
HETATM   22  C   UNL     1     -42.519 -54.316  14.451  1.00  0.00     0.021 C 
BRANCH  18  23
HETATM   23  C   UNL     1     -44.596 -52.835  14.709  1.00  0.00     0.229 C 
HETATM   24  O   UNL     1     -44.880 -51.856  15.410  1.00  0.00    -0.272 OA
HETATM   25  N   UNL     1     -45.575 -53.802  14.460  1.00  0.00    -0.360 N 
HETATM   26  C   UNL     1     -45.429 -55.044  13.716  1.00  0.00     0.152 C 
HETATM   27  C   UNL     1     -46.949 -53.484  14.829  1.00  0.00     0.152 C 
ENDBRANCH  18  23
ENDBRANCH  17  18
ENDBRANCH   4  17
TORSDOF 5
ENDMDL
MODEL 5
REMARK VINA RESULT:      -5.9      2.959      3.846
REMARK  5 active torsions:
REMARK  status: ('A' for Active; 'I' for Inactive)
REMARK    1  A    between atoms: O_2  and  C_3 
REMARK    2  A    between atoms: C_8  and  N_9 
REMARK       I    between atoms: N_9  and  C_10 
REMARK       I    between atoms: C_10  and  N_12 
REMARK    3  A    between atoms: N_12  and  C_13 
REMARK    4  A    between atoms: C_13  and  C_14 
REMARK    5  A    between atoms: C_14  and  C_19 
REMARK       I    between atoms: C_19  and  N_21 
ROOT
HETATM    1  N   UNL     1     -42.753 -52.543  11.835  1.00  0.00    -0.295 N 
HETATM    2  C   UNL     1     -43.401 -53.420  12.657  1.00  0.00     0.321 C 
HETATM    3  O   UNL     1     -44.238 -54.193  12.194  1.00  0.00    -0.247 OA
HETATM    4  N   UNL     1     -43.118 -53.325  13.981  1.00  0.00    -0.342 N 
HETATM    5  H   UNL     1     -43.101 -52.561  10.888  1.00  0.00     0.172 HD
HETATM    6  H   UNL     1     -42.275 -52.799  14.201  1.00  0.00     0.164 HD
ENDROOT
BRANCH   1   7
HETATM    7  C   UNL     1     -41.771 -51.604  12.180  1.00  0.00     0.113 A 
HETATM    8  C   UNL     1     -42.181 -50.356  12.591  1.00  0.00     0.066 A 
HETATM    9  C   UNL     1     -41.181 -49.491  12.969  1.00  0.00     0.095 A 
HETATM   10  N   UNL     1     -39.872 -49.789  12.896  1.00  0.00    -0.332 N 
HETATM   11  C   UNL     1     -39.582 -51.018  12.446  1.00  0.00     0.224 A 
ATOM     12  HN  UNL     1     -39.147 -49.124  13.167  1.00  0.00     0.168 HD
HETATM   13  N   UNL     1     -40.474 -51.952  12.108  1.00  0.00    -0.308 N 
ATOM     14  HN  UNL     1     -40.186 -52.884  11.810  1.00  0.00     0.171 HD
BRANCH  11  15
HETATM   15  O   UNL     1     -38.269 -51.417  12.328  1.00  0.00    -0.327 OA
HETATM   16  C   UNL     1     -37.460 -50.434  11.697  1.00  0.00     0.213 C 
ENDBRANCH  11  15
ENDBRANCH   1   7
BRANCH   4  17
HETATM   17  C   UNL     1     -43.759 -54.124  15.003  1.00  0.00     0.143 C 
BRANCH  17  18
HETATM   18  C   UNL     1     -44.942 -53.423  15.711  1.00  0.00     0.057 C 
HETATM   19  C   UNL     1     -46.267 -53.821  14.981  1.00  0.00     0.021 C 
HETATM   20  C   UNL     1     -47.081 -52.552  14.750  1.00  0.00     0.001 C 
HETATM   21  C   UNL     1     -46.378 -51.446  15.505  1.00  0.00     0.001 C 
HETATM   22  C   UNL     1     -44.925 -51.881  15.618  1.00  0.00     0.021 C 
BRANCH  18  23
HETATM   23  C   UNL     1     -44.980 -53.903  17.193  1.00  0.00     0.229 C 
HETATM   24  O   UNL     1     -45.910 -54.624  17.576  1.00  0.00    -0.272 OA
HETATM   25  N   UNL     1     -43.973 -53.552  18.098  1.00  0.00    -0.360 N 
HETATM   26  C   UNL     1     -42.835 -52.676  17.867  1.00  0.00     0.152 C 
HETATM   27  C   UNL     1     -43.936 -54.255  19.375  1.00  0.00     0.152 C 
ENDBRANCH  18  23
ENDBRANCH  17  18
ENDBRANCH   4  17
TORSDOF 5
ENDMDL
MODEL 6
REMARK VINA RESULT:      -5.8      2.307      6.503
REMARK  5 active torsions:
REMARK  status: ('A' for Active; 'I' for Inactive)
REMARK    1  A    between atoms: O_2  and  C_3 
REMARK    2  A    between atoms: C_8  and  N_9 
REMARK       I    between atoms: N_9  and  C_10 
REMARK       I    between atoms: C_10  and  N_12 
REMARK    3  A    between atoms: N_12  and  C_13 
REMARK    4  A    between atoms: C_13  and  C_14 
REMARK    5  A    between atoms: C_14  and  C_19 
REMARK       I    between atoms: C_19  and  N_21 
ROOT
HETATM    1  N   UNL     1     -40.830 -51.909  11.499  1.00  0.00    -0.295 N 
HETATM    2  C   UNL     1     -40.502 -50.601  11.708  1.00  0.00     0.321 C 
HETATM    3  O   UNL     1     -39.647 -50.062  11.008  1.00  0.00    -0.247 OA
HETATM    4  N   UNL     1     -41.113 -49.987  12.753  1.00  0.00    -0.342 N 
HETATM    5  H   UNL     1     -40.248 -52.355  10.804  1.00  0.00     0.172 HD
HETATM    6  H   UNL     1     -41.934 -50.471  13.112  1.00  0.00     0.164 HD
ENDROOT
BRANCH   1   7
HETATM    7  C   UNL     1     -41.779 -52.680  12.184  1.00  0.00     0.113 A 
HETATM    8  C   UNL     1     -41.337 -53.515  13.185  1.00  0.00     0.066 A 
HETATM    9  C   UNL     1     -42.314 -54.209  13.861  1.00  0.00     0.095 A 
HETATM   10  N   UNL     1     -43.621 -54.146  13.552  1.00  0.00    -0.332 N 
HETATM   11  C   UNL     1     -43.937 -53.331  12.536  1.00  0.00     0.224 A 
ATOM     12  HN  UNL     1     -44.326 -54.683  14.058  1.00  0.00     0.168 HD
HETATM   13  N   UNL     1     -43.078 -52.573  11.852  1.00  0.00    -0.308 N 
ATOM     14  HN  UNL     1     -43.391 -51.942  11.114  1.00  0.00     0.171 HD
BRANCH  11  15
HETATM   15  O   UNL     1     -45.250 -53.203  12.138  1.00  0.00    -0.327 OA
HETATM   16  C   UNL     1     -46.082 -52.703  13.175  1.00  0.00     0.213 C 
ENDBRANCH  11  15
ENDBRANCH   1   7
BRANCH   4  17
HETATM   17  C   UNL     1     -40.838 -48.627  13.164  1.00  0.00     0.143 C 
BRANCH  17  18
HETATM   18  C   UNL     1     -41.721 -47.562  12.470  1.00  0.00     0.057 C 
HETATM   19  C   UNL     1     -43.079 -48.226  12.065  1.00  0.00     0.021 C 
HETATM   20  C   UNL     1     -43.387 -47.834  10.624  1.00  0.00     0.001 C 
HETATM   21  C   UNL     1     -42.364 -46.791  10.233  1.00  0.00     0.001 C 
HETATM   22  C   UNL     1     -41.160 -47.035  11.130  1.00  0.00     0.021 C 
BRANCH  18  23
HETATM   23  C   UNL     1     -41.970 -46.400  13.479  1.00  0.00     0.229 C 
HETATM   24  O   UNL     1     -43.117 -46.187  13.890  1.00  0.00    -0.272 OA
HETATM   25  N   UNL     1     -40.920 -45.603  13.945  1.00  0.00    -0.360 N 
HETATM   26  C   UNL     1     -39.522 -45.651  13.547  1.00  0.00     0.152 C 
HETATM   27  C   UNL     1     -41.188 -44.727  15.079  1.00  0.00     0.152 C 
ENDBRANCH  18  23
ENDBRANCH  17  18
ENDBRANCH   4  17
TORSDOF 5
ENDMDL
MODEL 7
REMARK VINA RESULT:      -5.7      1.737      2.400
REMARK  5 active torsions:
REMARK  status: ('A' for Active; 'I' for Inactive)
REMARK    1  A    between atoms: O_2  and  C_3 
REMARK    2  A    between atoms: C_8  and  N_9 
REMARK       I    between atoms: N_9  and  C_10 
REMARK       I    between atoms: C_10  and  N_12 
REMARK    3  A    between atoms: N_12  and  C_13 
REMARK    4  A    between atoms: C_13  and  C_14 
REMARK    5  A    between atoms: C_14  and  C_19 
REMARK       I    between atoms: C_19  and  N_21 
ROOT
HETATM    1  N   UNL     1     -40.336 -50.961  11.851  1.00  0.00    -0.295 N 
HETATM    2  C   UNL     1     -41.106 -52.076  12.014  1.00  0.00     0.321 C 
HETATM    3  O   UNL     1     -40.591 -53.191  11.969  1.00  0.00    -0.247 OA
HETATM    4  N   UNL     1     -42.441 -51.871  12.147  1.00  0.00    -0.342 N 
HETATM    5  H   UNL     1     -39.377 -51.175  11.617  1.00  0.00     0.172 HD
HETATM    6  H   UNL     1     -42.706 -50.914  12.371  1.00  0.00     0.164 HD
ENDROOT
BRANCH   1   7
HETATM    7  C   UNL     1     -40.744 -49.619  11.881  1.00  0.00     0.113 A 
HETATM    8  C   UNL     1     -41.125 -49.030  10.696  1.00  0.00     0.066 A 
HETATM    9  C   UNL     1     -41.566 -47.731  10.789  1.00  0.00     0.095 A 
HETATM   10  N   UNL     1     -41.582 -47.030  11.937  1.00  0.00    -0.332 N 
HETATM   11  C   UNL     1     -41.154 -47.688  13.023  1.00  0.00     0.224 A 
ATOM     12  HN  UNL     1     -41.900 -46.061  11.977  1.00  0.00     0.168 HD
HETATM   13  N   UNL     1     -40.759 -48.963  13.054  1.00  0.00    -0.308 N 
ATOM     14  HN  UNL     1     -40.483 -49.416  13.924  1.00  0.00     0.171 HD
BRANCH  11  15
HETATM   15  O   UNL     1     -41.125 -47.054  14.246  1.00  0.00    -0.327 OA
HETATM   16  C   UNL     1     -40.018 -47.461  15.038  1.00  0.00     0.213 C 
ENDBRANCH  11  15
ENDBRANCH   1   7
BRANCH   4  17
HETATM   17  C   UNL     1     -43.414 -52.936  12.261  1.00  0.00     0.143 C 
BRANCH  17  18
HETATM   18  C   UNL     1     -44.329 -52.832  13.504  1.00  0.00     0.057 C 
HETATM   19  C   UNL     1     -45.819 -52.816  13.027  1.00  0.00     0.021 C 
HETATM   20  C   UNL     1     -46.540 -51.690  13.761  1.00  0.00     0.001 C 
HETATM   21  C   UNL     1     -45.580 -51.176  14.810  1.00  0.00     0.001 C 
HETATM   22  C   UNL     1     -44.188 -51.514  14.299  1.00  0.00     0.021 C 
BRANCH  18  23
HETATM   23  C   UNL     1     -44.068 -54.073  14.410  1.00  0.00     0.229 C 
HETATM   24  O   UNL     1     -44.882 -55.004  14.415  1.00  0.00    -0.272 OA
HETATM   25  N   UNL     1     -42.921 -54.166  15.204  1.00  0.00    -0.360 N 
HETATM   26  C   UNL     1     -41.879 -53.167  15.382  1.00  0.00     0.152 C 
HETATM   27  C   UNL     1     -42.617 -55.460  15.804  1.00  0.00     0.152 C 
ENDBRANCH  18  23
ENDBRANCH  17  18
ENDBRANCH   4  17
TORSDOF 5
ENDMDL
MODEL 8
REMARK VINA RESULT:      -5.6      2.754      6.540
REMARK  5 active torsions:
REMARK  status: ('A' for Active; 'I' for Inactive)
REMARK    1  A    between atoms: O_2  and  C_3 
REMARK    2  A    between atoms: C_8  and  N_9 
REMARK       I    between atoms: N_9  and  C_10 
REMARK       I    between atoms: C_10  and  N_12 
REMARK    3  A    between atoms: N_12  and  C_13 
REMARK    4  A    between atoms: C_13  and  C_14 
REMARK    5  A    between atoms: C_14  and  C_19 
REMARK       I    between atoms: C_19  and  N_21 
ROOT
HETATM    1  N   UNL     1     -42.641 -53.882  12.659  1.00  0.00    -0.295 N 
HETATM    2  C   UNL     1     -41.572 -53.042  12.780  1.00  0.00     0.321 C 
HETATM    3  O   UNL     1     -40.478 -53.368  12.322  1.00  0.00    -0.247 OA
HETATM    4  N   UNL     1     -41.781 -51.899  13.481  1.00  0.00    -0.342 N 
HETATM    5  H   UNL     1     -42.397 -54.774  12.254  1.00  0.00     0.172 HD
HETATM    6  H   UNL     1     -42.760 -51.658  13.623  1.00  0.00     0.164 HD
ENDROOT
BRANCH   1   7
HETATM    7  C   UNL     1     -43.954 -53.676  13.106  1.00  0.00     0.113 A 
HETATM    8  C   UNL     1     -44.782 -52.886  12.342  1.00  0.00     0.066 A 
HETATM    9  C   UNL     1     -46.075 -52.760  12.796  1.00  0.00     0.095 A 
HETATM   10  N   UNL     1     -46.519 -53.311  13.939  1.00  0.00    -0.332 N 
HETATM   11  C   UNL     1     -45.619 -54.029  14.624  1.00  0.00     0.224 A 
ATOM     12  HN  UNL     1     -47.479 -53.190  14.263  1.00  0.00     0.168 HD
HETATM   13  N   UNL     1     -44.360 -54.260  14.247  1.00  0.00    -0.308 N 
ATOM     14  HN  UNL     1     -43.736 -54.851  14.796  1.00  0.00     0.171 HD
BRANCH  11  15
HETATM   15  O   UNL     1     -45.975 -54.627  15.813  1.00  0.00    -0.327 OA
HETATM   16  C   UNL     1     -45.461 -53.934  16.942  1.00  0.00     0.213 C 
ENDBRANCH  11  15
ENDBRANCH   1   7
BRANCH   4  17
HETATM   17  C   UNL     1     -40.748 -50.926  13.766  1.00  0.00     0.143 C 
BRANCH  17  18
HETATM   18  C   UNL     1     -40.968 -49.549  13.096  1.00  0.00     0.057 C 
HETATM   19  C   UNL     1     -42.422 -49.066  13.415  1.00  0.00     0.021 C 
HETATM   20  C   UNL     1     -43.052 -48.572  12.117  1.00  0.00     0.001 C 
HETATM   21  C   UNL     1     -41.949 -48.550  11.083  1.00  0.00     0.001 C 
HETATM   22  C   UNL     1     -40.922 -49.570  11.552  1.00  0.00     0.021 C 
BRANCH  18  23
HETATM   23  C   UNL     1     -39.928 -48.547  13.683  1.00  0.00     0.229 C 
HETATM   24  O   UNL     1     -40.321 -47.590  14.362  1.00  0.00    -0.272 OA
HETATM   25  N   UNL     1     -38.556 -48.717  13.474  1.00  0.00    -0.360 N 
HETATM   26  C   UNL     1     -37.898 -49.733  12.666  1.00  0.00     0.152 C 
HETATM   27  C   UNL     1     -37.645 -47.905  14.272  1.00  0.00     0.152 C 
ENDBRANCH  18  23
ENDBRANCH  17  18
ENDBRANCH   4  17
TORSDOF 5
ENDMDL
MODEL 9
REMARK VINA RESULT:      -5.5      2.034      2.612
REMARK  5 active torsions:
REMARK  status: ('A' for Active; 'I' for Inactive)
REMARK    1  A    between atoms: O_2  and  C_3 
REMARK    2  A    between atoms: C_8  and  N_9 
REMARK       I    between atoms: N_9  and  C_10 
REMARK       I    between atoms: C_10  and  N_12 
REMARK    3  A    between atoms: N_12  and  C_13 
REMARK    4  A    between atoms: C_13  and  C_14 
REMARK    5  A    between atoms: C_14  and  C_19 
REMARK       I    between atoms: C_19  and  N_21 
ROOT
HETATM    1  N   UNL     1     -42.755 -47.435  13.520  1.00  0.00    -0.295 N 
HETATM    2  C   UNL     1     -43.035 -48.369  14.475  1.00  0.00     0.321 C 
HETATM    3  O   UNL     1     -43.044 -48.050  15.663  1.00  0.00    -0.247 OA
HETATM    4  N   UNL     1     -43.219 -49.640  14.038  1.00  0.00    -0.342 N 
HETATM    5  H   UNL     1     -42.490 -46.541  13.908  1.00  0.00     0.172 HD
HETATM    6  H   UNL     1     -43.387 -49.728  13.038  1.00  0.00     0.164 HD
ENDROOT
BRANCH   1   7
HETATM    7  C   UNL     1     -42.709 -47.610  12.129  1.00  0.00     0.113 A 
HETATM    8  C   UNL     1     -41.628 -48.273  11.594  1.00  0.00     0.066 A 
HETATM    9  C   UNL     1     -41.658 -48.466  10.232  1.00  0.00     0.095 A 
HETATM   10  N   UNL     1     -42.635 -47.999   9.436  1.00  0.00    -0.332 N 
HETATM   11  C   UNL     1     -43.620 -47.335  10.056  1.00  0.00     0.224 A 
ATOM     12  HN  UNL     1     -42.627 -48.141   8.425  1.00  0.00     0.168 HD
HETATM   13  N   UNL     1     -43.717 -47.141  11.373  1.00  0.00    -0.308 N 
ATOM     14  HN  UNL     1     -44.516 -46.661  11.786  1.00  0.00     0.171 HD
BRANCH  11  15
HETATM   15  O   UNL     1     -44.665 -46.811   9.326  1.00  0.00    -0.327 OA
HETATM   16  C   UNL     1     -45.729 -47.739   9.164  1.00  0.00     0.213 C 
ENDBRANCH  11  15
ENDBRANCH   1   7
BRANCH   4  17
HETATM   17  C   UNL     1     -43.456 -50.768  14.912  1.00  0.00     0.143 C 
BRANCH  17  18
HETATM   18  C   UNL     1     -44.363 -51.865  14.306  1.00  0.00     0.057 C 
HETATM   19  C   UNL     1     -45.407 -51.181  13.361  1.00  0.00     0.021 C 
HETATM   20  C   UNL     1     -46.782 -51.759  13.679  1.00  0.00     0.001 C 
HETATM   21  C   UNL     1     -46.557 -52.911  14.632  1.00  0.00     0.001 C 
HETATM   22  C   UNL     1     -45.240 -52.616  15.334  1.00  0.00     0.021 C 
BRANCH  18  23
HETATM   23  C   UNL     1     -43.468 -52.849  13.494  1.00  0.00     0.229 C 
HETATM   24  O   UNL     1     -43.707 -53.042  12.296  1.00  0.00    -0.272 OA
HETATM   25  N   UNL     1     -42.385 -53.505  14.088  1.00  0.00    -0.360 N 
HETATM   26  C   UNL     1     -41.972 -53.459  15.482  1.00  0.00     0.152 C 
HETATM   27  C   UNL     1     -41.443 -54.188  13.209  1.00  0.00     0.152 C 
ENDBRANCH  18  23
ENDBRANCH  17  18
ENDBRANCH   4  17
TORSDOF 5
ENDMDL
