MODEL 1
REMARK VINA RESULT:      -6.4      0.000      0.000
REMARK  4 active torsions:
REMARK  status: ('A' for Active; 'I' for Inactive)
REMARK    1  A    between atoms: C_2  and  N_3 
REMARK    2  A    between atoms: C_2  and  C_16 
REMARK       I    between atoms: N_3  and  C_4 
REMARK    3  A    between atoms: C_4  and  C_6 
REMARK    4  A    between atoms: C_6  and  N_7 
REMARK       I    between atoms: C_16  and  N_18 
ROOT
HETATM    1  N   UNL     1     -41.993 -50.287  11.849  1.00  0.00    -0.347 N 
HETATM    2  C   UNL     1     -42.322 -48.957  11.718  1.00  0.00     0.238 C 
HETATM    3  O   UNL     1     -42.945 -48.356  12.597  1.00  0.00    -0.272 OA
HETATM    4  H   UNL     1     -41.410 -50.724  11.131  1.00  0.00     0.163 HD
ENDROOT
BRANCH   1   5
HETATM    5  C   UNL     1     -42.271 -51.023  13.088  1.00  0.00     0.172 C 
HETATM    6  C   UNL     1     -40.976 -51.217  13.876  1.00  0.00     0.042 C 
BRANCH   5   7
HETATM    7  C   UNL     1     -43.004 -52.386  12.897  1.00  0.00     0.242 C 
HETATM    8  O   UNL     1     -42.357 -53.410  12.656  1.00  0.00    -0.271 OA
HETATM    9  N   UNL     1     -44.379 -52.442  13.115  1.00  0.00    -0.350 N 
HETATM   10  C   UNL     1     -45.277 -51.296  13.242  1.00  0.00     0.126 C 
HETATM   11  C   UNL     1     -45.042 -53.748  13.139  1.00  0.00     0.126 C 
HETATM   12  C   UNL     1     -46.143 -51.404  14.494  1.00  0.00     0.020 C 
HETATM   13  C   UNL     1     -46.872 -52.743  14.554  1.00  0.00     0.003 C 
HETATM   14  C   UNL     1     -45.889 -53.903  14.403  1.00  0.00     0.020 C 
ENDBRANCH   5   7
ENDBRANCH   1   5
BRANCH   2  15
HETATM   15  C   UNL     1     -42.024 -48.262  10.404  1.00  0.00     0.253 C 
BRANCH  15  16
HETATM   16  N   UNL     1     -43.069 -47.389   9.915  1.00  0.00    -0.271 N 
HETATM   17  N   UNL     1     -44.253 -47.916   9.527  1.00  0.00    -0.285 N 
HETATM   18  C   UNL     1     -44.983 -46.815   9.318  1.00  0.00     0.093 A 
ATOM     19  HN  UNL     1     -44.519 -48.895   9.421  1.00  0.00     0.188 HD
HETATM   20  C   UNL     1     -46.399 -46.852   8.906  1.00  0.00     0.090 C 
HETATM   21  N   UNL     1     -44.324 -45.640   9.541  1.00  0.00    -0.334 N 
HETATM   22  C   UNL     1     -43.123 -46.018   9.927  1.00  0.00     0.096 A 
ATOM     23  HN  UNL     1     -44.680 -44.690   9.434  1.00  0.00     0.168 HD
HETATM   24  C   UNL     1     -42.023 -45.115  10.339  1.00  0.00     0.091 C 
ENDBRANCH  15  16
ENDBRANCH   2  15
TORSDOF 4
ENDMDL
MODEL 2
REMARK VINA RESULT:      -6.4      1.712      2.164
REMARK  4 active torsions:
REMARK  status: ('A' for Active; 'I' for Inactive)
REMARK    1  A    between atoms: C_2  and  N_3 
REMARK    2  A    between atoms: C_2  and  C_16 
REMARK       I    between atoms: N_3  and  C_4 
REMARK    3  A    between atoms: C_4  and  C_6 
REMARK    4  A    between atoms: C_6  and  N_7 
REMARK       I    between atoms: C_16  and  N_18 
ROOT
HETATM    1  N   UNL     1     -41.824 -51.818  11.882  1.00  0.00    -0.347 N 
HETATM    2  C   UNL     1     -41.241 -50.607  12.180  1.00  0.00     0.238 C 
HETATM    3  O   UNL     1     -41.324 -50.110  13.306  1.00  0.00    -0.272 OA
HETATM    4  H   UNL     1     -41.664 -52.228  10.959  1.00  0.00     0.163 HD
ENDROOT
BRANCH   1   5
HETATM    5  C   UNL     1     -42.476 -52.626  12.919  1.00  0.00     0.172 C 
HETATM    6  C   UNL     1     -41.740 -53.956  13.078  1.00  0.00     0.042 C 
BRANCH   5   7
HETATM    7  C   UNL     1     -44.001 -52.868  12.706  1.00  0.00     0.242 C 
HETATM    8  O   UNL     1     -44.389 -53.798  11.991  1.00  0.00    -0.271 OA
HETATM    9  N   UNL     1     -44.908 -52.091  13.423  1.00  0.00    -0.350 N 
HETATM   10  C   UNL     1     -44.598 -50.870  14.165  1.00  0.00     0.126 C 
HETATM   11  C   UNL     1     -46.330 -52.443  13.388  1.00  0.00     0.126 C 
HETATM   12  C   UNL     1     -45.143 -50.931  15.589  1.00  0.00     0.020 C 
HETATM   13  C   UNL     1     -46.630 -51.275  15.603  1.00  0.00     0.003 C 
HETATM   14  C   UNL     1     -46.898 -52.549  14.804  1.00  0.00     0.020 C 
ENDBRANCH   5   7
ENDBRANCH   1   5
BRANCH   2  15
HETATM   15  C   UNL     1     -40.601 -49.815  11.058  1.00  0.00     0.253 C 
BRANCH  15  16
HETATM   16  N   UNL     1     -41.241 -48.555  10.746  1.00  0.00    -0.271 N 
HETATM   17  N   UNL     1     -42.362 -48.544   9.989  1.00  0.00    -0.285 N 
HETATM   18  C   UNL     1     -42.733 -47.262  10.072  1.00  0.00     0.093 A 
ATOM     19  HN  UNL     1     -42.806 -49.312   9.486  1.00  0.00     0.188 HD
HETATM   20  C   UNL     1     -43.950 -46.731   9.431  1.00  0.00     0.090 C 
HETATM   21  N   UNL     1     -41.907 -46.476  10.824  1.00  0.00    -0.334 N 
HETATM   22  C   UNL     1     -40.979 -47.306  11.251  1.00  0.00     0.096 A 
ATOM     23  HN  UNL     1     -41.991 -45.477  11.011  1.00  0.00     0.168 HD
HETATM   24  C   UNL     1     -39.857 -46.959  12.154  1.00  0.00     0.091 C 
ENDBRANCH  15  16
ENDBRANCH   2  15
TORSDOF 4
ENDMDL
MODEL 3
REMARK VINA RESULT:      -6.1      2.570      3.730
REMARK  4 active torsions:
REMARK  status: ('A' for Active; 'I' for Inactive)
REMARK    1  A    between atoms: C_2  and  N_3 
REMARK    2  A    between atoms: C_2  and  C_16 
REMARK       I    between atoms: N_3  and  C_4 
REMARK    3  A    between atoms: C_4  and  C_6 
REMARK    4  A    between atoms: C_6  and  N_7 
REMARK       I    between atoms: C_16  and  N_18 
ROOT
HETATM    1  N   UNL     1     -41.500 -53.408  13.783  1.00  0.00    -0.347 N 
HETATM    2  C   UNL     1     -40.938 -52.159  13.648  1.00  0.00     0.238 C 
HETATM    3  O   UNL     1     -41.164 -51.258  14.460  1.00  0.00    -0.272 OA
HETATM    4  H   UNL     1     -41.224 -54.145  13.130  1.00  0.00     0.163 HD
ENDROOT
BRANCH   1   5
HETATM    5  C   UNL     1     -42.305 -53.759  14.958  1.00  0.00     0.172 C 
HETATM    6  C   UNL     1     -41.549 -54.770  15.819  1.00  0.00     0.042 C 
BRANCH   5   7
HETATM    7  C   UNL     1     -43.742 -54.275  14.645  1.00  0.00     0.242 C 
HETATM    8  O   UNL     1     -44.012 -55.474  14.770  1.00  0.00    -0.271 OA
HETATM    9  N   UNL     1     -44.733 -53.347  14.333  1.00  0.00    -0.350 N 
HETATM   10  C   UNL     1     -44.519 -51.941  13.995  1.00  0.00     0.126 C 
HETATM   11  C   UNL     1     -46.124 -53.797  14.238  1.00  0.00     0.126 C 
HETATM   12  C   UNL     1     -45.408 -51.027  14.833  1.00  0.00     0.020 C 
HETATM   13  C   UNL     1     -46.874 -51.444  14.749  1.00  0.00     0.003 C 
HETATM   14  C   UNL     1     -47.037 -52.922  15.098  1.00  0.00     0.020 C 
ENDBRANCH   5   7
ENDBRANCH   1   5
BRANCH   2  15
HETATM   15  C   UNL     1     -40.134 -51.855  12.400  1.00  0.00     0.253 C 
BRANCH  15  16
HETATM   16  N   UNL     1     -40.401 -50.571  11.788  1.00  0.00    -0.271 N 
HETATM   17  N   UNL     1     -41.679 -50.182  11.581  1.00  0.00    -0.285 N 
HETATM   18  C   UNL     1     -41.516 -48.918  11.178  1.00  0.00     0.093 A 
ATOM     19  HN  UNL     1     -42.542 -50.714  11.701  1.00  0.00     0.188 HD
HETATM   20  C   UNL     1     -42.642 -48.022  10.855  1.00  0.00     0.090 C 
HETATM   21  N   UNL     1     -40.217 -48.502  11.111  1.00  0.00    -0.334 N 
HETATM   22  C   UNL     1     -39.527 -49.550  11.508  1.00  0.00     0.096 A 
ATOM     23  HN  UNL     1     -39.863 -47.591  10.821  1.00  0.00     0.168 HD
HETATM   24  C   UNL     1     -38.054 -49.610  11.662  1.00  0.00     0.091 C 
ENDBRANCH  15  16
ENDBRANCH   2  15
TORSDOF 4
ENDMDL
MODEL 4
REMARK VINA RESULT:      -5.9      3.203      7.066
REMARK  4 active torsions:
REMARK  status: ('A' for Active; 'I' for Inactive)
REMARK    1  A    between atoms: C_2  and  N_3 
REMARK    2  A    between atoms: C_2  and  C_16 
REMARK       I    between atoms: N_3  and  C_4 
REMARK    3  A    between atoms: C_4  and  C_6 
REMARK    4  A    between atoms: C_6  and  N_7 
REMARK       I    between atoms: C_16  and  N_18 
ROOT
HETATM    1  N   UNL     1     -39.660 -50.867  11.835  1.00  0.00    -0.347 N 
HETATM    2  C   UNL     1     -41.031 -50.986  11.825  1.00  0.00     0.238 C 
HETATM    3  O   UNL     1     -41.765 -49.998  11.741  1.00  0.00    -0.272 OA
HETATM    4  H   UNL     1     -39.092 -51.717  11.829  1.00  0.00     0.163 HD
ENDROOT
BRANCH   1   5
HETATM    5  C   UNL     1     -39.007 -49.569  11.635  1.00  0.00     0.172 C 
HETATM    6  C   UNL     1     -37.526 -49.779  11.319  1.00  0.00     0.042 C 
BRANCH   5   7
HETATM    7  C   UNL     1     -39.175 -48.556  12.809  1.00  0.00     0.242 C 
HETATM    8  O   UNL     1     -38.753 -48.836  13.936  1.00  0.00    -0.271 OA
HETATM    9  N   UNL     1     -39.705 -47.297  12.535  1.00  0.00    -0.350 N 
HETATM   10  C   UNL     1     -40.385 -46.899  11.304  1.00  0.00     0.126 C 
HETATM   11  C   UNL     1     -39.679 -46.272  13.581  1.00  0.00     0.126 C 
HETATM   12  C   UNL     1     -39.799 -45.609  10.738  1.00  0.00     0.020 C 
HETATM   13  C   UNL     1     -39.769 -44.502  11.787  1.00  0.00     0.003 C 
HETATM   14  C   UNL     1     -39.061 -44.976  13.055  1.00  0.00     0.020 C 
ENDBRANCH   5   7
ENDBRANCH   1   5
BRANCH   2  15
HETATM   15  C   UNL     1     -41.643 -52.353  12.057  1.00  0.00     0.253 C 
BRANCH  15  16
HETATM   16  N   UNL     1     -42.815 -52.372  12.906  1.00  0.00    -0.271 N 
HETATM   17  N   UNL     1     -43.888 -51.617  12.580  1.00  0.00    -0.285 N 
HETATM   18  C   UNL     1     -44.791 -52.029  13.476  1.00  0.00     0.093 A 
ATOM     19  HN  UNL     1     -43.984 -50.917  11.844  1.00  0.00     0.188 HD
HETATM   20  C   UNL     1     -46.176 -51.523  13.519  1.00  0.00     0.090 C 
HETATM   21  N   UNL     1     -44.342 -52.984  14.343  1.00  0.00    -0.334 N 
HETATM   22  C   UNL     1     -43.099 -53.198  13.965  1.00  0.00     0.096 A 
ATOM     23  HN  UNL     1     -44.851 -53.429  15.107  1.00  0.00     0.168 HD
HETATM   24  C   UNL     1     -42.171 -54.188  14.559  1.00  0.00     0.091 C 
ENDBRANCH  15  16
ENDBRANCH   2  15
TORSDOF 4
ENDMDL
MODEL 5
REMARK VINA RESULT:      -5.7      2.280      7.437
REMARK  4 active torsions:
REMARK  status: ('A' for Active; 'I' for Inactive)
REMARK    1  A    between atoms: C_2  and  N_3 
REMARK    2  A    between atoms: C_2  and  C_16 
REMARK       I    between atoms: N_3  and  C_4 
REMARK    3  A    between atoms: C_4  and  C_6 
REMARK    4  A    between atoms: C_6  and  N_7 
REMARK       I    between atoms: C_16  and  N_18 
ROOT
HETATM    1  N   UNL     1     -42.229 -48.865  10.995  1.00  0.00    -0.347 N 
HETATM    2  C   UNL     1     -42.192 -49.640  12.131  1.00  0.00     0.238 C 
HETATM    3  O   UNL     1     -42.546 -49.197  13.227  1.00  0.00    -0.272 OA
HETATM    4  H   UNL     1     -41.999 -49.297  10.096  1.00  0.00     0.163 HD
ENDROOT
BRANCH   1   5
HETATM    5  C   UNL     1     -42.796 -47.512  11.013  1.00  0.00     0.172 C 
HETATM    6  C   UNL     1     -44.179 -47.522  10.362  1.00  0.00     0.042 C 
BRANCH   5   7
HETATM    7  C   UNL     1     -41.898 -46.411  10.370  1.00  0.00     0.242 C 
HETATM    8  O   UNL     1     -42.246 -45.861   9.320  1.00  0.00    -0.271 OA
HETATM    9  N   UNL     1     -40.765 -45.987  11.059  1.00  0.00    -0.350 N 
HETATM   10  C   UNL     1     -40.157 -46.653  12.209  1.00  0.00     0.126 C 
HETATM   11  C   UNL     1     -40.030 -44.817  10.568  1.00  0.00     0.126 C 
HETATM   12  C   UNL     1     -39.926 -45.677  13.359  1.00  0.00     0.020 C 
HETATM   13  C   UNL     1     -39.145 -44.449  12.900  1.00  0.00     0.003 C 
HETATM   14  C   UNL     1     -39.815 -43.801  11.691  1.00  0.00     0.020 C 
ENDBRANCH   5   7
ENDBRANCH   1   5
BRANCH   2  15
HETATM   15  C   UNL     1     -41.575 -51.022  12.048  1.00  0.00     0.253 C 
BRANCH  15  16
HETATM   16  N   UNL     1     -42.378 -52.093  12.598  1.00  0.00    -0.271 N 
HETATM   17  N   UNL     1     -43.725 -51.978  12.613  1.00  0.00    -0.285 N 
HETATM   18  C   UNL     1     -44.097 -53.198  13.017  1.00  0.00     0.093 A 
ATOM     19  HN  UNL     1     -44.306 -51.173  12.378  1.00  0.00     0.188 HD
HETATM   20  C   UNL     1     -45.506 -53.606  13.163  1.00  0.00     0.090 C 
HETATM   21  N   UNL     1     -43.064 -54.057  13.264  1.00  0.00    -0.334 N 
HETATM   22  C   UNL     1     -41.989 -53.351  12.985  1.00  0.00     0.096 A 
ATOM     23  HN  UNL     1     -43.115 -55.023  13.589  1.00  0.00     0.168 HD
HETATM   24  C   UNL     1     -40.592 -53.841  13.045  1.00  0.00     0.091 C 
ENDBRANCH  15  16
ENDBRANCH   2  15
TORSDOF 4
ENDMDL
MODEL 6
REMARK VINA RESULT:      -5.7      0.891      1.785
REMARK  4 active torsions:
REMARK  status: ('A' for Active; 'I' for Inactive)
REMARK    1  A    between atoms: C_2  and  N_3 
REMARK    2  A    between atoms: C_2  and  C_16 
REMARK       I    between atoms: N_3  and  C_4 
REMARK    3  A    between atoms: C_4  and  C_6 
REMARK    4  A    between atoms: C_6  and  N_7 
REMARK       I    between atoms: C_16  and  N_18 
ROOT
HETATM    1  N   UNL     1     -41.807 -50.328  12.090  1.00  0.00    -0.347 N 
HETATM    2  C   UNL     1     -42.268 -49.044  11.913  1.00  0.00     0.238 C 
HETATM    3  O   UNL     1     -43.065 -48.528  12.701  1.00  0.00    -0.272 OA
HETATM    4  H   UNL     1     -41.091 -50.687  11.455  1.00  0.00     0.163 HD
ENDROOT
BRANCH   1   5
HETATM    5  C   UNL     1     -42.157 -51.105  13.285  1.00  0.00     0.172 C 
HETATM    6  C   UNL     1     -40.901 -51.367  14.116  1.00  0.00     0.042 C 
BRANCH   5   7
HETATM    7  C   UNL     1     -42.916 -52.439  13.007  1.00  0.00     0.242 C 
HETATM    8  O   UNL     1     -42.286 -53.472  12.758  1.00  0.00    -0.271 OA
HETATM    9  N   UNL     1     -44.300 -52.463  13.158  1.00  0.00    -0.350 N 
HETATM   10  C   UNL     1     -45.173 -51.298  13.287  1.00  0.00     0.126 C 
HETATM   11  C   UNL     1     -44.999 -53.750  13.101  1.00  0.00     0.126 C 
HETATM   12  C   UNL     1     -46.100 -51.428  14.491  1.00  0.00     0.020 C 
HETATM   13  C   UNL     1     -46.867 -52.747  14.466  1.00  0.00     0.003 C 
HETATM   14  C   UNL     1     -45.910 -53.927  14.317  1.00  0.00     0.020 C 
ENDBRANCH   5   7
ENDBRANCH   1   5
BRANCH   2  15
HETATM   15  C   UNL     1     -41.886 -48.304  10.647  1.00  0.00     0.253 C 
BRANCH  15  16
HETATM   16  N   UNL     1     -42.509 -47.009  10.473  1.00  0.00    -0.271 N 
HETATM   17  N   UNL     1     -42.114 -45.968  11.241  1.00  0.00    -0.285 N 
HETATM   18  C   UNL     1     -42.773 -44.951  10.678  1.00  0.00     0.093 A 
ATOM     19  HN  UNL     1     -41.479 -45.962  12.039  1.00  0.00     0.188 HD
HETATM   20  C   UNL     1     -42.648 -43.555  11.137  1.00  0.00     0.090 C 
HETATM   21  N   UNL     1     -43.561 -45.296   9.617  1.00  0.00    -0.334 N 
HETATM   22  C   UNL     1     -43.376 -46.594   9.493  1.00  0.00     0.096 A 
ATOM     23  HN  UNL     1     -44.155 -44.690   9.052  1.00  0.00     0.168 HD
HETATM   24  C   UNL     1     -43.975 -47.458   8.450  1.00  0.00     0.091 C 
ENDBRANCH  15  16
ENDBRANCH   2  15
TORSDOF 4
ENDMDL
MODEL 7
REMARK VINA RESULT:      -5.4      2.782      7.792
REMARK  4 active torsions:
REMARK  status: ('A' for Active; 'I' for Inactive)
REMARK    1  A    between atoms: C_2  and  N_3 
REMARK    2  A    between atoms: C_2  and  C_16 
REMARK       I    between atoms: N_3  and  C_4 
REMARK    3  A    between atoms: C_4  and  C_6 
REMARK    4  A    between atoms: C_6  and  N_7 
REMARK       I    between atoms: C_16  and  N_18 
ROOT
HETATM    1  N   UNL     1     -42.022 -50.060  11.869  1.00  0.00    -0.347 N 
HETATM    2  C   UNL     1     -41.685 -51.156  12.631  1.00  0.00     0.238 C 
HETATM    3  O   UNL     1     -41.058 -51.039  13.688  1.00  0.00    -0.272 OA
HETATM    4  H   UNL     1     -42.607 -50.197  11.041  1.00  0.00     0.163 HD
ENDROOT
BRANCH   1   5
HETATM    5  C   UNL     1     -41.750 -48.695  12.334  1.00  0.00     0.172 C 
HETATM    6  C   UNL     1     -42.996 -48.121  13.007  1.00  0.00     0.042 C 
BRANCH   5   7
HETATM    7  C   UNL     1     -41.221 -47.718  11.240  1.00  0.00     0.242 C 
HETATM    8  O   UNL     1     -41.719 -47.724  10.109  1.00  0.00    -0.271 OA
HETATM    9  N   UNL     1     -40.263 -46.772  11.596  1.00  0.00    -0.350 N 
HETATM   10  C   UNL     1     -39.483 -46.760  12.832  1.00  0.00     0.126 C 
HETATM   11  C   UNL     1     -39.910 -45.722  10.636  1.00  0.00     0.126 C 
HETATM   12  C   UNL     1     -39.549 -45.399  13.518  1.00  0.00     0.020 C 
HETATM   13  C   UNL     1     -39.169 -44.272  12.562  1.00  0.00     0.003 C 
HETATM   14  C   UNL     1     -40.004 -44.340  11.286  1.00  0.00     0.020 C 
ENDBRANCH   5   7
ENDBRANCH   1   5
BRANCH   2  15
HETATM   15  C   UNL     1     -41.976 -52.538  12.084  1.00  0.00     0.253 C 
BRANCH  15  16
HETATM   16  N   UNL     1     -42.590 -53.458  13.018  1.00  0.00    -0.271 N 
HETATM   17  N   UNL     1     -41.820 -54.117  13.912  1.00  0.00    -0.285 N 
HETATM   18  C   UNL     1     -42.741 -54.708  14.680  1.00  0.00     0.093 A 
ATOM     19  HN  UNL     1     -40.802 -54.154  13.982  1.00  0.00     0.188 HD
HETATM   20  C   UNL     1     -42.404 -55.536  15.853  1.00  0.00     0.090 C 
HETATM   21  N   UNL     1     -44.033 -54.465  14.312  1.00  0.00    -0.334 N 
HETATM   22  C   UNL     1     -43.923 -53.668  13.271  1.00  0.00     0.096 A 
ATOM     23  HN  UNL     1     -44.887 -54.819  14.744  1.00  0.00     0.168 HD
HETATM   24  C   UNL     1     -45.048 -53.068  12.516  1.00  0.00     0.091 C 
ENDBRANCH  15  16
ENDBRANCH   2  15
TORSDOF 4
ENDMDL
MODEL 8
REMARK VINA RESULT:      -5.3      2.300      2.948
REMARK  4 active torsions:
REMARK  status: ('A' for Active; 'I' for Inactive)
REMARK    1  A    between atoms: C_2  and  N_3 
REMARK    2  A    between atoms: C_2  and  C_16 
REMARK       I    between atoms: N_3  and  C_4 
REMARK    3  A    between atoms: C_4  and  C_6 
REMARK    4  A    between atoms: C_6  and  N_7 
REMARK       I    between atoms: C_16  and  N_18 
ROOT
HETATM    1  N   UNL     1     -42.373 -50.564  12.367  1.00  0.00    -0.347 N 
HETATM    2  C   UNL     1     -41.551 -49.601  11.828  1.00  0.00     0.238 C 
HETATM    3  O   UNL     1     -40.340 -49.578  12.066  1.00  0.00    -0.272 OA
HETATM    4  H   UNL     1     -43.355 -50.589  12.082  1.00  0.00     0.163 HD
ENDROOT
BRANCH   1   5
HETATM    5  C   UNL     1     -41.831 -51.673  13.160  1.00  0.00     0.172 C 
HETATM    6  C   UNL     1     -41.679 -52.912  12.278  1.00  0.00     0.042 C 
BRANCH   5   7
HETATM    7  C   UNL     1     -42.634 -52.018  14.451  1.00  0.00     0.242 C 
HETATM    8  O   UNL     1     -42.066 -52.039  15.548  1.00  0.00    -0.271 OA
HETATM    9  N   UNL     1     -44.013 -52.186  14.355  1.00  0.00    -0.350 N 
HETATM   10  C   UNL     1     -44.777 -52.347  13.119  1.00  0.00     0.126 C 
HETATM   11  C   UNL     1     -44.802 -52.306  15.584  1.00  0.00     0.126 C 
HETATM   12  C   UNL     1     -45.956 -51.380  13.064  1.00  0.00     0.020 C 
HETATM   13  C   UNL     1     -46.821 -51.482  14.317  1.00  0.00     0.003 C 
HETATM   14  C   UNL     1     -45.972 -51.321  15.576  1.00  0.00     0.020 C 
ENDBRANCH   5   7
ENDBRANCH   1   5
BRANCH   2  15
HETATM   15  C   UNL     1     -42.178 -48.471  11.037  1.00  0.00     0.253 C 
BRANCH  15  16
HETATM   16  N   UNL     1     -41.540 -47.180  11.187  1.00  0.00    -0.271 N 
HETATM   17  N   UNL     1     -40.572 -46.808  10.319  1.00  0.00    -0.285 N 
HETATM   18  C   UNL     1     -40.369 -45.534  10.671  1.00  0.00     0.093 A 
ATOM     19  HN  UNL     1     -40.117 -47.355   9.588  1.00  0.00     0.188 HD
HETATM   20  C   UNL     1     -39.410 -44.649   9.983  1.00  0.00     0.090 C 
HETATM   21  N   UNL     1     -41.141 -45.097  11.709  1.00  0.00    -0.334 N 
HETATM   22  C   UNL     1     -41.881 -46.141  12.016  1.00  0.00     0.096 A 
ATOM     23  HN  UNL     1     -41.144 -44.175  12.145  1.00  0.00     0.168 HD
HETATM   24  C   UNL     1     -42.932 -46.181  13.060  1.00  0.00     0.091 C 
ENDBRANCH  15  16
ENDBRANCH   2  15
TORSDOF 4
ENDMDL
MODEL 9
REMARK VINA RESULT:      -5.3      2.533      3.832
REMARK  4 active torsions:
REMARK  status: ('A' for Active; 'I' for Inactive)
REMARK    1  A    between atoms: C_2  and  N_3 
REMARK    2  A    between atoms: C_2  and  C_16 
REMARK       I    between atoms: N_3  and  C_4 
REMARK    3  A    between atoms: C_4  and  C_6 
REMARK    4  A    between atoms: C_6  and  N_7 
REMARK       I    between atoms: C_16  and  N_18 
ROOT
HETATM    1  N   UNL     1     -42.047 -50.061  13.226  1.00  0.00    -0.347 N 
HETATM    2  C   UNL     1     -41.205 -49.789  12.171  1.00  0.00     0.238 C 
HETATM    3  O   UNL     1     -40.694 -50.692  11.504  1.00  0.00    -0.272 OA
HETATM    4  H   UNL     1     -42.507 -49.281  13.702  1.00  0.00     0.163 HD
ENDROOT
BRANCH   1   5
HETATM    5  C   UNL     1     -42.463 -51.433  13.536  1.00  0.00     0.172 C 
HETATM    6  C   UNL     1     -43.968 -51.579  13.316  1.00  0.00     0.042 C 
BRANCH   5   7
HETATM    7  C   UNL     1     -42.067 -51.939  14.956  1.00  0.00     0.242 C 
HETATM    8  O   UNL     1     -42.823 -51.752  15.915  1.00  0.00    -0.271 OA
HETATM    9  N   UNL     1     -40.907 -52.699  15.096  1.00  0.00    -0.350 N 
HETATM   10  C   UNL     1     -39.854 -52.854  14.094  1.00  0.00     0.126 C 
HETATM   11  C   UNL     1     -40.634 -53.348  16.381  1.00  0.00     0.126 C 
HETATM   12  C   UNL     1     -39.522 -54.324  13.861  1.00  0.00     0.020 C 
HETATM   13  C   UNL     1     -39.209 -55.042  15.171  1.00  0.00     0.003 C 
HETATM   14  C   UNL     1     -40.334 -54.835  16.183  1.00  0.00     0.020 C 
ENDBRANCH   5   7
ENDBRANCH   1   5
BRANCH   2  15
HETATM   15  C   UNL     1     -40.799 -48.351  11.918  1.00  0.00     0.253 C 
BRANCH  15  16
HETATM   16  N   UNL     1     -41.466 -47.705  10.808  1.00  0.00    -0.271 N 
HETATM   17  N   UNL     1     -42.394 -48.385  10.099  1.00  0.00    -0.285 N 
HETATM   18  C   UNL     1     -42.886 -47.427   9.307  1.00  0.00     0.093 A 
ATOM     19  HN  UNL     1     -42.652 -49.371  10.153  1.00  0.00     0.188 HD
HETATM   20  C   UNL     1     -43.980 -47.656   8.345  1.00  0.00     0.090 C 
HETATM   21  N   UNL     1     -42.313 -46.198   9.473  1.00  0.00    -0.334 N 
HETATM   22  C   UNL     1     -41.429 -46.386  10.429  1.00  0.00     0.096 A 
ATOM     23  HN  UNL     1     -42.523 -45.334   8.972  1.00  0.00     0.168 HD
HETATM   24  C   UNL     1     -40.560 -45.343  11.023  1.00  0.00     0.091 C 
ENDBRANCH  15  16
ENDBRANCH   2  15
TORSDOF 4
ENDMDL
