MODEL 1
REMARK VINA RESULT:      -6.7      0.000      0.000
REMARK  6 active torsions:
REMARK  status: ('A' for Active; 'I' for Inactive)
REMARK    1  A    between atoms: C_2  and  C_4 
REMARK    2  A    between atoms: C_8  and  C_9 
REMARK    3  A    between atoms: C_9  and  C_10 
REMARK    4  A    between atoms: C_10  and  N_11 
REMARK       I    between atoms: N_11  and  C_12 
REMARK    5  A    between atoms: C_12  and  C_14 
REMARK    6  A    between atoms: C_14  and  O_15 
ROOT
HETATM    1  C   UNL     1     -42.414 -51.020  12.951  1.00  0.00     0.130 C 
ENDROOT
BRANCH   1   2
HETATM    2  C   UNL     1     -42.182 -49.513  13.045  1.00  0.00     0.106 C 
BRANCH   2   3
HETATM    3  C   UNL     1     -42.339 -48.846  11.729  1.00  0.00     0.149 A 
HETATM    4  O   UNL     1     -41.223 -48.799  10.944  1.00  0.00    -0.223 OA
HETATM    5  N   UNL     1     -41.601 -48.185   9.753  1.00  0.00    -0.247 N 
HETATM    6  C   UNL     1     -42.903 -47.922   9.934  1.00  0.00     0.107 A 
ATOM      7  HN  UNL     1     -41.025 -47.983   8.936  1.00  0.00     0.196 HD
HETATM    8  N   UNL     1     -43.400 -48.312  11.158  1.00  0.00    -0.327 N 
ATOM      9  HN  UNL     1     -44.346 -48.214  11.527  1.00  0.00     0.169 HD
BRANCH   6  10
HETATM   10  C   UNL     1     -43.717 -47.264   8.864  1.00  0.00     0.047 C 
HETATM   11  C   UNL     1     -43.538 -47.931   7.500  1.00  0.00     0.017 C 
HETATM   12  C   UNL     1     -45.198 -47.194   9.233  1.00  0.00     0.017 C 
ENDBRANCH   6  10
ENDBRANCH   2   3
ENDBRANCH   1   2
BRANCH   1  13
HETATM   13  N   UNL     1     -43.829 -51.373  12.982  1.00  0.00    -0.358 N 
HETATM   14  C   UNL     1     -44.272 -52.608  13.414  1.00  0.00     0.252 C 
HETATM   15  O   UNL     1     -43.496 -53.474  13.810  1.00  0.00    -0.270 OA
HETATM   16  H   UNL     1     -44.527 -50.653  12.819  1.00  0.00     0.162 HD
BRANCH  14  17
HETATM   17  C   UNL     1     -45.822 -52.794  13.379  1.00  0.00     0.138 C 
HETATM   18  C   UNL     1     -46.572 -51.527  13.831  1.00  0.00     0.048 C 
HETATM   19  C   UNL     1     -46.424 -51.247  15.328  1.00  0.00     0.004 C 
HETATM   20  C   UNL     1     -46.774 -52.461  16.185  1.00  0.00     0.000 C 
HETATM   21  C   UNL     1     -46.055 -53.725  15.727  1.00  0.00     0.004 C 
HETATM   22  C   UNL     1     -46.271 -53.984  14.240  1.00  0.00     0.048 C 
BRANCH  17  23
HETATM   23  O   UNL     1     -46.190 -53.092  12.023  1.00  0.00    -0.380 OA
HETATM   24  H   UNL     1     -45.711 -53.904  11.773  1.00  0.00     0.211 HD
ENDBRANCH  17  23
ENDBRANCH  14  17
ENDBRANCH   1  13
TORSDOF 6
ENDMDL
MODEL 2
REMARK VINA RESULT:      -6.5      3.692      6.281
REMARK  6 active torsions:
REMARK  status: ('A' for Active; 'I' for Inactive)
REMARK    1  A    between atoms: C_2  and  C_4 
REMARK    2  A    between atoms: C_8  and  C_9 
REMARK    3  A    between atoms: C_9  and  C_10 
REMARK    4  A    between atoms: C_10  and  N_11 
REMARK       I    between atoms: N_11  and  C_12 
REMARK    5  A    between atoms: C_12  and  C_14 
REMARK    6  A    between atoms: C_14  and  O_15 
ROOT
HETATM    1  C   UNL     1     -41.655 -54.946  15.375  1.00  0.00     0.130 C 
ENDROOT
BRANCH   1   2
HETATM    2  C   UNL     1     -42.981 -54.919  16.133  1.00  0.00     0.106 C 
BRANCH   2   3
HETATM    3  C   UNL     1     -44.100 -54.455  15.274  1.00  0.00     0.149 A 
HETATM    4  O   UNL     1     -44.587 -55.364  14.382  1.00  0.00    -0.223 OA
HETATM    5  N   UNL     1     -45.648 -54.747  13.725  1.00  0.00    -0.247 N 
HETATM    6  C   UNL     1     -45.696 -53.529  14.282  1.00  0.00     0.107 A 
ATOM      7  HN  UNL     1     -46.246 -55.130  12.993  1.00  0.00     0.196 HD
HETATM    8  N   UNL     1     -44.742 -53.304  15.249  1.00  0.00    -0.327 N 
ATOM      9  HN  UNL     1     -44.575 -52.464  15.803  1.00  0.00     0.169 HD
BRANCH   6  10
HETATM   10  C   UNL     1     -46.728 -52.527  13.866  1.00  0.00     0.047 C 
HETATM   11  C   UNL     1     -46.837 -51.358  14.845  1.00  0.00     0.017 C 
HETATM   12  C   UNL     1     -46.487 -52.013  12.446  1.00  0.00     0.017 C 
ENDBRANCH   6  10
ENDBRANCH   2   3
ENDBRANCH   1   2
BRANCH   1  13
HETATM   13  N   UNL     1     -41.703 -54.180  14.135  1.00  0.00    -0.358 N 
HETATM   14  C   UNL     1     -40.750 -53.230  13.818  1.00  0.00     0.252 C 
HETATM   15  O   UNL     1     -39.802 -52.989  14.560  1.00  0.00    -0.270 OA
HETATM   16  H   UNL     1     -42.366 -54.440  13.412  1.00  0.00     0.162 HD
BRANCH  14  17
HETATM   17  C   UNL     1     -40.970 -52.519  12.444  1.00  0.00     0.138 C 
HETATM   18  C   UNL     1     -40.136 -51.231  12.314  1.00  0.00     0.048 C 
HETATM   19  C   UNL     1     -40.633 -50.103  13.221  1.00  0.00     0.004 C 
HETATM   20  C   UNL     1     -42.128 -49.841  13.059  1.00  0.00     0.000 C 
HETATM   21  C   UNL     1     -42.958 -51.117  13.160  1.00  0.00     0.004 C 
HETATM   22  C   UNL     1     -42.451 -52.192  12.206  1.00  0.00     0.048 C 
BRANCH  17  23
HETATM   23  O   UNL     1     -40.569 -53.437  11.415  1.00  0.00    -0.380 OA
HETATM   24  H   UNL     1     -41.380 -53.875  11.097  1.00  0.00     0.211 HD
ENDBRANCH  17  23
ENDBRANCH  14  17
ENDBRANCH   1  13
TORSDOF 6
ENDMDL
MODEL 3
REMARK VINA RESULT:      -6.5      3.440      4.127
REMARK  6 active torsions:
REMARK  status: ('A' for Active; 'I' for Inactive)
REMARK    1  A    between atoms: C_2  and  C_4 
REMARK    2  A    between atoms: C_8  and  C_9 
REMARK    3  A    between atoms: C_9  and  C_10 
REMARK    4  A    between atoms: C_10  and  N_11 
REMARK       I    between atoms: N_11  and  C_12 
REMARK    5  A    between atoms: C_12  and  C_14 
REMARK    6  A    between atoms: C_14  and  O_15 
ROOT
HETATM    1  C   UNL     1     -41.821 -53.790  14.922  1.00  0.00     0.130 C 
ENDROOT
BRANCH   1   2
HETATM    2  C   UNL     1     -40.645 -54.012  13.972  1.00  0.00     0.106 C 
BRANCH   2   3
HETATM    3  C   UNL     1     -40.396 -52.828  13.113  1.00  0.00     0.149 A 
HETATM    4  O   UNL     1     -41.194 -52.706  12.014  1.00  0.00    -0.223 OA
HETATM    5  N   UNL     1     -40.829 -51.517  11.388  1.00  0.00    -0.247 N 
HETATM    6  C   UNL     1     -39.850 -51.039  12.168  1.00  0.00     0.107 A 
ATOM      7  HN  UNL     1     -41.216 -51.107  10.538  1.00  0.00     0.196 HD
HETATM    8  N   UNL     1     -39.544 -51.832  13.252  1.00  0.00    -0.327 N 
ATOM      9  HN  UNL     1     -38.840 -51.685  13.976  1.00  0.00     0.169 HD
BRANCH   6  10
HETATM   10  C   UNL     1     -39.175 -49.739  11.856  1.00  0.00     0.047 C 
HETATM   11  C   UNL     1     -39.224 -48.758  13.028  1.00  0.00     0.017 C 
HETATM   12  C   UNL     1     -37.734 -49.939  11.388  1.00  0.00     0.017 C 
ENDBRANCH   6  10
ENDBRANCH   2   3
ENDBRANCH   1   2
BRANCH   1  13
HETATM   13  N   UNL     1     -43.104 -53.767  14.229  1.00  0.00    -0.358 N 
HETATM   14  C   UNL     1     -44.277 -54.176  14.835  1.00  0.00     0.252 C 
HETATM   15  O   UNL     1     -44.304 -54.569  15.998  1.00  0.00    -0.270 OA
HETATM   16  H   UNL     1     -43.177 -53.308  13.326  1.00  0.00     0.162 HD
BRANCH  14  17
HETATM   17  C   UNL     1     -45.548 -54.073  13.933  1.00  0.00     0.138 C 
HETATM   18  C   UNL     1     -45.424 -52.960  12.876  1.00  0.00     0.048 C 
HETATM   19  C   UNL     1     -45.475 -51.555  13.480  1.00  0.00     0.004 C 
HETATM   20  C   UNL     1     -46.685 -51.355  14.388  1.00  0.00     0.000 C 
HETATM   21  C   UNL     1     -46.829 -52.468  15.421  1.00  0.00     0.004 C 
HETATM   22  C   UNL     1     -46.817 -53.845  14.766  1.00  0.00     0.048 C 
BRANCH  17  23
HETATM   23  O   UNL     1     -45.704 -55.334  13.263  1.00  0.00    -0.380 OA
HETATM   24  H   UNL     1     -46.594 -55.664  13.487  1.00  0.00     0.211 HD
ENDBRANCH  17  23
ENDBRANCH  14  17
ENDBRANCH   1  13
TORSDOF 6
ENDMDL
MODEL 4
REMARK VINA RESULT:      -6.5      2.965      3.831
REMARK  6 active torsions:
REMARK  status: ('A' for Active; 'I' for Inactive)
REMARK    1  A    between atoms: C_2  and  C_4 
REMARK    2  A    between atoms: C_8  and  C_9 
REMARK    3  A    between atoms: C_9  and  C_10 
REMARK    4  A    between atoms: C_10  and  N_11 
REMARK       I    between atoms: N_11  and  C_12 
REMARK    5  A    between atoms: C_12  and  C_14 
REMARK    6  A    between atoms: C_14  and  O_15 
ROOT
HETATM    1  C   UNL     1     -40.038 -49.605  12.970  1.00  0.00     0.130 C 
ENDROOT
BRANCH   1   2
HETATM    2  C   UNL     1     -39.930 -48.833  11.655  1.00  0.00     0.106 C 
BRANCH   2   3
HETATM    3  C   UNL     1     -41.265 -48.525  11.083  1.00  0.00     0.149 A 
HETATM    4  O   UNL     1     -42.331 -48.719  11.912  1.00  0.00    -0.223 OA
HETATM    5  N   UNL     1     -43.462 -48.327  11.201  1.00  0.00    -0.247 N 
HETATM    6  C   UNL     1     -42.970 -47.937  10.017  1.00  0.00     0.107 A 
ATOM      7  HN  UNL     1     -44.435 -48.334  11.508  1.00  0.00     0.196 HD
HETATM    8  N   UNL     1     -41.602 -48.052   9.900  1.00  0.00    -0.327 N 
ATOM      9  HN  UNL     1     -41.005 -47.828   9.104  1.00  0.00     0.169 HD
BRANCH   6  10
HETATM   10  C   UNL     1     -43.868 -47.414   8.939  1.00  0.00     0.047 C 
HETATM   11  C   UNL     1     -43.947 -45.887   8.932  1.00  0.00     0.017 C 
HETATM   12  C   UNL     1     -43.468 -47.934   7.559  1.00  0.00     0.017 C 
ENDBRANCH   6  10
ENDBRANCH   2   3
ENDBRANCH   1   2
BRANCH   1  13
HETATM   13  N   UNL     1     -40.059 -51.050  12.771  1.00  0.00    -0.358 N 
HETATM   14  C   UNL     1     -41.094 -51.842  13.231  1.00  0.00     0.252 C 
HETATM   15  O   UNL     1     -42.060 -51.369  13.822  1.00  0.00    -0.270 OA
HETATM   16  H   UNL     1     -39.374 -51.480  12.157  1.00  0.00     0.162 HD
BRANCH  14  17
HETATM   17  C   UNL     1     -40.938 -53.364  12.917  1.00  0.00     0.138 C 
HETATM   18  C   UNL     1     -42.236 -54.150  13.182  1.00  0.00     0.048 C 
HETATM   19  C   UNL     1     -42.567 -54.271  14.671  1.00  0.00     0.004 C 
HETATM   20  C   UNL     1     -41.393 -54.805  15.487  1.00  0.00     0.000 C 
HETATM   21  C   UNL     1     -40.099 -54.048  15.210  1.00  0.00     0.004 C 
HETATM   22  C   UNL     1     -39.790 -53.994  13.718  1.00  0.00     0.048 C 
BRANCH  17  23
HETATM   23  O   UNL     1     -40.598 -53.485  11.527  1.00  0.00    -0.380 OA
HETATM   24  H   UNL     1     -41.423 -53.353  11.022  1.00  0.00     0.211 HD
ENDBRANCH  17  23
ENDBRANCH  14  17
ENDBRANCH   1  13
TORSDOF 6
ENDMDL
MODEL 5
REMARK VINA RESULT:      -6.5      3.007      3.953
REMARK  6 active torsions:
REMARK  status: ('A' for Active; 'I' for Inactive)
REMARK    1  A    between atoms: C_2  and  C_4 
REMARK    2  A    between atoms: C_8  and  C_9 
REMARK    3  A    between atoms: C_9  and  C_10 
REMARK    4  A    between atoms: C_10  and  N_11 
REMARK       I    between atoms: N_11  and  C_12 
REMARK    5  A    between atoms: C_12  and  C_14 
REMARK    6  A    between atoms: C_14  and  O_15 
ROOT
HETATM    1  C   UNL     1     -42.158 -54.251  13.971  1.00  0.00     0.130 C 
ENDROOT
BRANCH   1   2
HETATM    2  C   UNL     1     -40.869 -54.239  13.149  1.00  0.00     0.106 C 
BRANCH   2   3
HETATM    3  C   UNL     1     -40.539 -52.877  12.659  1.00  0.00     0.149 A 
HETATM    4  O   UNL     1     -41.308 -52.405  11.635  1.00  0.00    -0.223 OA
HETATM    5  N   UNL     1     -40.867 -51.112  11.370  1.00  0.00    -0.247 N 
HETATM    6  C   UNL     1     -39.877 -50.930  12.256  1.00  0.00     0.107 A 
ATOM      7  HN  UNL     1     -41.213 -50.458  10.669  1.00  0.00     0.196 HD
HETATM    8  N   UNL     1     -39.636 -52.012  13.075  1.00  0.00    -0.327 N 
ATOM      9  HN  UNL     1     -38.939 -52.115  13.812  1.00  0.00     0.169 HD
BRANCH   6  10
HETATM   10  C   UNL     1     -39.127 -49.637  12.324  1.00  0.00     0.047 C 
HETATM   11  C   UNL     1     -37.765 -49.712  11.633  1.00  0.00     0.017 C 
HETATM   12  C   UNL     1     -39.943 -48.470  11.768  1.00  0.00     0.017 C 
ENDBRANCH   6  10
ENDBRANCH   2   3
ENDBRANCH   1   2
BRANCH   1  13
HETATM   13  N   UNL     1     -42.851 -52.968  13.944  1.00  0.00    -0.358 N 
HETATM   14  C   UNL     1     -44.024 -52.778  13.238  1.00  0.00     0.252 C 
HETATM   15  O   UNL     1     -44.554 -53.686  12.605  1.00  0.00    -0.270 OA
HETATM   16  H   UNL     1     -42.554 -52.226  14.570  1.00  0.00     0.162 HD
BRANCH  14  17
HETATM   17  C   UNL     1     -44.618 -51.337  13.336  1.00  0.00     0.138 C 
HETATM   18  C   UNL     1     -44.527 -50.764  14.763  1.00  0.00     0.048 C 
HETATM   19  C   UNL     1     -45.475 -51.454  15.746  1.00  0.00     0.004 C 
HETATM   20  C   UNL     1     -46.912 -51.500  15.233  1.00  0.00     0.000 C 
HETATM   21  C   UNL     1     -47.007 -52.042  13.811  1.00  0.00     0.004 C 
HETATM   22  C   UNL     1     -46.078 -51.292  12.863  1.00  0.00     0.048 C 
BRANCH  17  23
HETATM   23  O   UNL     1     -43.861 -50.497  12.450  1.00  0.00    -0.380 OA
HETATM   24  H   UNL     1     -42.932 -50.543  12.742  1.00  0.00     0.211 HD
ENDBRANCH  17  23
ENDBRANCH  14  17
ENDBRANCH   1  13
TORSDOF 6
ENDMDL
MODEL 6
REMARK VINA RESULT:      -6.4      2.265      6.196
REMARK  6 active torsions:
REMARK  status: ('A' for Active; 'I' for Inactive)
REMARK    1  A    between atoms: C_2  and  C_4 
REMARK    2  A    between atoms: C_8  and  C_9 
REMARK    3  A    between atoms: C_9  and  C_10 
REMARK    4  A    between atoms: C_10  and  N_11 
REMARK       I    between atoms: N_11  and  C_12 
REMARK    5  A    between atoms: C_12  and  C_14 
REMARK    6  A    between atoms: C_14  and  O_15 
ROOT
HETATM    1  C   UNL     1     -40.508 -51.405  11.917  1.00  0.00     0.130 C 
ENDROOT
BRANCH   1   2
HETATM    2  C   UNL     1     -41.371 -52.642  12.160  1.00  0.00     0.106 C 
BRANCH   2   3
HETATM    3  C   UNL     1     -42.714 -52.285  12.682  1.00  0.00     0.149 A 
HETATM    4  O   UNL     1     -42.759 -51.243  13.561  1.00  0.00    -0.223 OA
HETATM    5  N   UNL     1     -44.100 -51.049  13.879  1.00  0.00    -0.247 N 
HETATM    6  C   UNL     1     -44.732 -51.989  13.164  1.00  0.00     0.107 A 
ATOM      7  HN  UNL     1     -44.506 -50.355  14.507  1.00  0.00     0.196 HD
HETATM    8  N   UNL     1     -43.902 -52.788  12.408  1.00  0.00    -0.327 N 
ATOM      9  HN  UNL     1     -44.144 -53.566  11.795  1.00  0.00     0.169 HD
BRANCH   6  10
HETATM   10  C   UNL     1     -46.223 -52.122  13.203  1.00  0.00     0.047 C 
HETATM   11  C   UNL     1     -46.844 -51.393  14.395  1.00  0.00     0.017 C 
HETATM   12  C   UNL     1     -46.873 -51.663  11.899  1.00  0.00     0.017 C 
ENDBRANCH   6  10
ENDBRANCH   2   3
ENDBRANCH   1   2
BRANCH   1  13
HETATM   13  N   UNL     1     -41.273 -50.285  11.379  1.00  0.00    -0.358 N 
HETATM   14  C   UNL     1     -40.746 -49.011  11.281  1.00  0.00     0.252 C 
HETATM   15  O   UNL     1     -39.597 -48.756  11.630  1.00  0.00    -0.270 OA
HETATM   16  H   UNL     1     -42.167 -50.460  10.930  1.00  0.00     0.162 HD
BRANCH  14  17
HETATM   17  C   UNL     1     -41.717 -47.949  10.675  1.00  0.00     0.138 C 
HETATM   18  C   UNL     1     -41.137 -46.524  10.741  1.00  0.00     0.048 C 
HETATM   19  C   UNL     1     -41.075 -45.969  12.166  1.00  0.00     0.004 C 
HETATM   20  C   UNL     1     -42.412 -46.082  12.893  1.00  0.00     0.000 C 
HETATM   21  C   UNL     1     -43.005 -47.484  12.810  1.00  0.00     0.004 C 
HETATM   22  C   UNL     1     -43.087 -47.972  11.368  1.00  0.00     0.048 C 
BRANCH  17  23
HETATM   23  O   UNL     1     -41.934 -48.298   9.299  1.00  0.00    -0.380 OA
HETATM   24  H   UNL     1     -41.098 -48.675   8.968  1.00  0.00     0.211 HD
ENDBRANCH  17  23
ENDBRANCH  14  17
ENDBRANCH   1  13
TORSDOF 6
ENDMDL
MODEL 7
REMARK VINA RESULT:      -6.3      2.809      4.225
REMARK  6 active torsions:
REMARK  status: ('A' for Active; 'I' for Inactive)
REMARK    1  A    between atoms: C_2  and  C_4 
REMARK    2  A    between atoms: C_8  and  C_9 
REMARK    3  A    between atoms: C_9  and  C_10 
REMARK    4  A    between atoms: C_10  and  N_11 
REMARK       I    between atoms: N_11  and  C_12 
REMARK    5  A    between atoms: C_12  and  C_14 
REMARK    6  A    between atoms: C_14  and  O_15 
ROOT
HETATM    1  C   UNL     1     -43.220 -49.190  13.444  1.00  0.00     0.130 C 
ENDROOT
BRANCH   1   2
HETATM    2  C   UNL     1     -42.338 -48.187  12.702  1.00  0.00     0.106 C 
BRANCH   2   3
HETATM    3  C   UNL     1     -41.076 -48.806  12.225  1.00  0.00     0.149 A 
HETATM    4  O   UNL     1     -41.121 -49.387  10.992  1.00  0.00    -0.223 OA
HETATM    5  N   UNL     1     -39.837 -49.853  10.725  1.00  0.00    -0.247 N 
HETATM    6  C   UNL     1     -39.144 -49.510  11.819  1.00  0.00     0.107 A 
ATOM      7  HN  UNL     1     -39.503 -50.340   9.893  1.00  0.00     0.196 HD
HETATM    8  N   UNL     1     -39.883 -48.860  12.784  1.00  0.00    -0.327 N 
ATOM      9  HN  UNL     1     -39.584 -48.511  13.694  1.00  0.00     0.169 HD
BRANCH   6  10
HETATM   10  C   UNL     1     -37.684 -49.816  11.940  1.00  0.00     0.047 C 
HETATM   11  C   UNL     1     -37.409 -51.003  12.863  1.00  0.00     0.017 C 
HETATM   12  C   UNL     1     -37.031 -50.039  10.576  1.00  0.00     0.017 C 
ENDBRANCH   6  10
ENDBRANCH   2   3
ENDBRANCH   1   2
BRANCH   1  13
HETATM   13  N   UNL     1     -43.224 -50.506  12.813  1.00  0.00    -0.358 N 
HETATM   14  C   UNL     1     -42.828 -51.647  13.485  1.00  0.00     0.252 C 
HETATM   15  O   UNL     1     -42.464 -51.617  14.657  1.00  0.00    -0.270 OA
HETATM   16  H   UNL     1     -43.661 -50.623  11.904  1.00  0.00     0.162 HD
BRANCH  14  17
HETATM   17  C   UNL     1     -42.908 -52.960  12.643  1.00  0.00     0.138 C 
HETATM   18  C   UNL     1     -44.361 -53.367  12.333  1.00  0.00     0.048 C 
HETATM   19  C   UNL     1     -45.120 -53.858  13.568  1.00  0.00     0.004 C 
HETATM   20  C   UNL     1     -44.364 -54.949  14.321  1.00  0.00     0.000 C 
HETATM   21  C   UNL     1     -42.916 -54.563  14.608  1.00  0.00     0.004 C 
HETATM   22  C   UNL     1     -42.192 -54.125  13.340  1.00  0.00     0.048 C 
BRANCH  17  23
HETATM   23  O   UNL     1     -42.219 -52.721  11.405  1.00  0.00    -0.380 OA
HETATM   24  H   UNL     1     -41.731 -51.883  11.511  1.00  0.00     0.211 HD
ENDBRANCH  17  23
ENDBRANCH  14  17
ENDBRANCH   1  13
TORSDOF 6
ENDMDL
MODEL 8
REMARK VINA RESULT:      -6.2      2.073      2.886
REMARK  6 active torsions:
REMARK  status: ('A' for Active; 'I' for Inactive)
REMARK    1  A    between atoms: C_2  and  C_4 
REMARK    2  A    between atoms: C_8  and  C_9 
REMARK    3  A    between atoms: C_9  and  C_10 
REMARK    4  A    between atoms: C_10  and  N_11 
REMARK       I    between atoms: N_11  and  C_12 
REMARK    5  A    between atoms: C_12  and  C_14 
REMARK    6  A    between atoms: C_14  and  O_15 
ROOT
HETATM    1  C   UNL     1     -42.106 -54.090  13.084  1.00  0.00     0.130 C 
ENDROOT
BRANCH   1   2
HETATM    2  C   UNL     1     -40.817 -53.386  12.660  1.00  0.00     0.106 C 
BRANCH   2   3
HETATM    3  C   UNL     1     -41.026 -51.932  12.448  1.00  0.00     0.149 A 
HETATM    4  O   UNL     1     -41.328 -51.201  13.560  1.00  0.00    -0.223 OA
HETATM    5  N   UNL     1     -41.430 -49.875  13.148  1.00  0.00    -0.247 N 
HETATM    6  C   UNL     1     -41.182 -49.935  11.833  1.00  0.00     0.107 A 
ATOM      7  HN  UNL     1     -41.643 -49.053  13.713  1.00  0.00     0.196 HD
HETATM    8  N   UNL     1     -40.932 -51.202  11.354  1.00  0.00    -0.327 N 
ATOM      9  HN  UNL     1     -40.726 -51.499  10.400  1.00  0.00     0.169 HD
BRANCH   6  10
HETATM   10  C   UNL     1     -41.176 -48.698  10.988  1.00  0.00     0.047 C 
HETATM   11  C   UNL     1     -42.569 -48.088  10.834  1.00  0.00     0.017 C 
HETATM   12  C   UNL     1     -40.191 -47.653  11.511  1.00  0.00     0.017 C 
ENDBRANCH   6  10
ENDBRANCH   2   3
ENDBRANCH   1   2
BRANCH   1  13
HETATM   13  N   UNL     1     -43.277 -53.228  12.973  1.00  0.00    -0.358 N 
HETATM   14  C   UNL     1     -44.546 -53.662  13.306  1.00  0.00     0.252 C 
HETATM   15  O   UNL     1     -44.754 -54.796  13.729  1.00  0.00    -0.270 OA
HETATM   16  H   UNL     1     -43.154 -52.239  12.782  1.00  0.00     0.162 HD
BRANCH  14  17
HETATM   17  C   UNL     1     -45.670 -52.593  13.125  1.00  0.00     0.138 C 
HETATM   18  C   UNL     1     -45.138 -51.156  13.278  1.00  0.00     0.048 C 
HETATM   19  C   UNL     1     -44.747 -50.813  14.717  1.00  0.00     0.004 C 
HETATM   20  C   UNL     1     -45.861 -51.125  15.713  1.00  0.00     0.000 C 
HETATM   21  C   UNL     1     -46.410 -52.538  15.550  1.00  0.00     0.004 C 
HETATM   22  C   UNL     1     -46.827 -52.814  14.109  1.00  0.00     0.048 C 
BRANCH  17  23
HETATM   23  O   UNL     1     -46.206 -52.751  11.802  1.00  0.00    -0.380 OA
HETATM   24  H   UNL     1     -46.814 -52.003  11.653  1.00  0.00     0.211 HD
ENDBRANCH  17  23
ENDBRANCH  14  17
ENDBRANCH   1  13
TORSDOF 6
ENDMDL
MODEL 9
REMARK VINA RESULT:      -6.2      2.746      6.210
REMARK  6 active torsions:
REMARK  status: ('A' for Active; 'I' for Inactive)
REMARK    1  A    between atoms: C_2  and  C_4 
REMARK    2  A    between atoms: C_8  and  C_9 
REMARK    3  A    between atoms: C_9  and  C_10 
REMARK    4  A    between atoms: C_10  and  N_11 
REMARK       I    between atoms: N_11  and  C_12 
REMARK    5  A    between atoms: C_12  and  C_14 
REMARK    6  A    between atoms: C_14  and  O_15 
ROOT
HETATM    1  C   UNL     1     -40.687 -53.525  12.754  1.00  0.00     0.130 C 
ENDROOT
BRANCH   1   2
HETATM    2  C   UNL     1     -41.930 -54.223  13.303  1.00  0.00     0.106 C 
BRANCH   2   3
HETATM    3  C   UNL     1     -43.085 -53.296  13.406  1.00  0.00     0.149 A 
HETATM    4  O   UNL     1     -43.786 -53.081  12.255  1.00  0.00    -0.223 OA
HETATM    5  N   UNL     1     -44.839 -52.234  12.584  1.00  0.00    -0.247 N 
HETATM    6  C   UNL     1     -44.673 -52.019  13.896  1.00  0.00     0.107 A 
ATOM      7  HN  UNL     1     -45.567 -51.863  11.972  1.00  0.00     0.196 HD
HETATM    8  N   UNL     1     -43.584 -52.659  14.446  1.00  0.00    -0.327 N 
ATOM      9  HN  UNL     1     -43.250 -52.644  15.410  1.00  0.00     0.169 HD
BRANCH   6  10
HETATM   10  C   UNL     1     -45.622 -51.156  14.668  1.00  0.00     0.047 C 
HETATM   11  C   UNL     1     -46.935 -51.871  14.988  1.00  0.00     0.017 C 
HETATM   12  C   UNL     1     -44.988 -50.607  15.945  1.00  0.00     0.017 C 
ENDBRANCH   6  10
ENDBRANCH   2   3
ENDBRANCH   1   2
BRANCH   1  13
HETATM   13  N   UNL     1     -40.975 -52.191  12.238  1.00  0.00    -0.358 N 
HETATM   14  C   UNL     1     -40.016 -51.197  12.188  1.00  0.00     0.252 C 
HETATM   15  O   UNL     1     -38.863 -51.388  12.563  1.00  0.00    -0.270 OA
HETATM   16  H   UNL     1     -41.858 -52.017  11.769  1.00  0.00     0.162 HD
BRANCH  14  17
HETATM   17  C   UNL     1     -40.516 -49.840  11.598  1.00  0.00     0.138 C 
HETATM   18  C   UNL     1     -39.640 -48.653  12.043  1.00  0.00     0.048 C 
HETATM   19  C   UNL     1     -39.801 -48.315  13.527  1.00  0.00     0.004 C 
HETATM   20  C   UNL     1     -41.263 -48.135  13.927  1.00  0.00     0.000 C 
HETATM   21  C   UNL     1     -42.141 -49.294  13.467  1.00  0.00     0.004 C 
HETATM   22  C   UNL     1     -41.978 -49.561  11.975  1.00  0.00     0.048 C 
BRANCH  17  23
HETATM   23  O   UNL     1     -40.461 -49.945  10.167  1.00  0.00    -0.380 OA
HETATM   24  H   UNL     1     -39.522 -50.059   9.928  1.00  0.00     0.211 HD
ENDBRANCH  17  23
ENDBRANCH  14  17
ENDBRANCH   1  13
TORSDOF 6
ENDMDL
