MODEL 1
REMARK VINA RESULT:      -5.5      0.000      0.000
REMARK  5 active torsions:
REMARK  status: ('A' for Active; 'I' for Inactive)
REMARK    1  A    between atoms: C_2  and  C_3 
REMARK    2  A    between atoms: C_2  and  N_16 
REMARK    3  A    between atoms: C_3  and  N_4 
REMARK       I    between atoms: N_4  and  C_5 
REMARK    4  A    between atoms: C_5  and  C_7 
REMARK    5  A    between atoms: C_7  and  C_8 
ROOT
HETATM    1  N   UNL     1     -41.971 -53.026  14.116  1.00  0.00    -0.359 N 
HETATM    2  C   UNL     1     -40.886 -52.784  13.301  1.00  0.00     0.222 C 
HETATM    3  O   UNL     1     -40.506 -53.574  12.439  1.00  0.00    -0.273 OA
HETATM    4  H   UNL     1     -42.213 -52.365  14.844  1.00  0.00     0.162 HD
ENDROOT
BRANCH   2   5
HETATM    5  C   UNL     1     -40.201 -51.452  13.536  1.00  0.00     0.146 C 
BRANCH   5   6
HETATM    6  C   UNL     1     -40.536 -50.362  12.573  1.00  0.00     0.006 A 
HETATM    7  C   UNL     1     -39.608 -49.739  11.680  1.00  0.00     0.038 A 
HETATM    8  C   UNL     1     -38.160 -50.002  11.504  1.00  0.00     0.071 C 
HETATM    9  N   UNL     1     -40.199 -48.812  10.922  1.00  0.00    -0.265 N 
HETATM   10  O   UNL     1     -41.516 -48.785  11.321  1.00  0.00    -0.242 OA
ATOM     11  HN  UNL     1     -39.763 -48.242  10.197  1.00  0.00     0.194 HD
HETATM   12  C   UNL     1     -41.721 -49.703  12.305  1.00  0.00     0.081 A 
HETATM   13  C   UNL     1     -43.101 -49.754  12.828  1.00  0.00     0.079 C 
ENDBRANCH   5   6
ENDBRANCH   2   5
BRANCH   1  14
HETATM   14  C   UNL     1     -42.765 -54.242  14.000  1.00  0.00     0.158 C 
BRANCH  14  15
HETATM   15  C   UNL     1     -44.233 -54.088  14.500  1.00  0.00     0.236 C 
HETATM   16  C   UNL     1     -45.072 -55.258  13.954  1.00  0.00     0.044 C 
BRANCH  15  17
HETATM   17  N   UNL     1     -44.807 -52.786  14.084  1.00  0.00     0.094 N 
HETATM   18  C   UNL     1     -45.702 -52.209  15.104  1.00  0.00     0.273 C 
HETATM   19  C   UNL     1     -46.746 -51.394  14.350  1.00  0.00     0.032 C 
HETATM   20  C   UNL     1     -46.372 -51.534  12.889  1.00  0.00     0.032 C 
HETATM   21  C   UNL     1     -45.595 -52.836  12.846  1.00  0.00     0.273 C 
ENDBRANCH  15  17
ENDBRANCH  14  15
ENDBRANCH   1  14
TORSDOF 5
ENDMDL
MODEL 2
REMARK VINA RESULT:      -5.5      3.229      4.706
REMARK  5 active torsions:
REMARK  status: ('A' for Active; 'I' for Inactive)
REMARK    1  A    between atoms: C_2  and  C_3 
REMARK    2  A    between atoms: C_2  and  N_16 
REMARK    3  A    between atoms: C_3  and  N_4 
REMARK       I    between atoms: N_4  and  C_5 
REMARK    4  A    between atoms: C_5  and  C_7 
REMARK    5  A    between atoms: C_7  and  C_8 
ROOT
HETATM    1  N   UNL     1     -42.073 -50.052  11.704  1.00  0.00    -0.359 N 
HETATM    2  C   UNL     1     -42.298 -48.694  11.611  1.00  0.00     0.222 C 
HETATM    3  O   UNL     1     -42.631 -48.003  12.570  1.00  0.00    -0.273 OA
HETATM    4  H   UNL     1     -41.849 -50.584  10.872  1.00  0.00     0.162 HD
ENDROOT
BRANCH   2   5
HETATM    5  C   UNL     1     -42.083 -48.110  10.228  1.00  0.00     0.146 C 
BRANCH   5   6
HETATM    6  C   UNL     1     -42.700 -46.775   9.976  1.00  0.00     0.006 A 
HETATM    7  C   UNL     1     -43.948 -46.557   9.311  1.00  0.00     0.038 A 
HETATM    8  C   UNL     1     -44.883 -47.550   8.731  1.00  0.00     0.071 C 
HETATM    9  N   UNL     1     -44.256 -45.259   9.250  1.00  0.00    -0.265 N 
HETATM   10  O   UNL     1     -43.206 -44.596   9.845  1.00  0.00    -0.242 OA
ATOM     11  HN  UNL     1     -45.095 -44.845   8.846  1.00  0.00     0.194 HD
HETATM   12  C   UNL     1     -42.277 -45.494  10.276  1.00  0.00     0.081 A 
HETATM   13  C   UNL     1     -41.090 -44.896  10.919  1.00  0.00     0.079 C 
ENDBRANCH   5   6
ENDBRANCH   2   5
BRANCH   1  14
HETATM   14  C   UNL     1     -42.200 -50.767  12.966  1.00  0.00     0.158 C 
BRANCH  14  15
HETATM   15  C   UNL     1     -43.621 -51.356  13.218  1.00  0.00     0.236 C 
HETATM   16  C   UNL     1     -44.209 -50.718  14.490  1.00  0.00     0.044 C 
BRANCH  15  17
HETATM   17  N   UNL     1     -43.576 -52.834  13.339  1.00  0.00     0.094 N 
HETATM   18  C   UNL     1     -44.770 -53.487  12.773  1.00  0.00     0.273 C 
HETATM   19  C   UNL     1     -44.985 -54.763  13.577  1.00  0.00     0.032 C 
HETATM   20  C   UNL     1     -43.853 -54.788  14.583  1.00  0.00     0.032 C 
HETATM   21  C   UNL     1     -43.468 -53.327  14.718  1.00  0.00     0.273 C 
ENDBRANCH  15  17
ENDBRANCH  14  15
ENDBRANCH   1  14
TORSDOF 5
ENDMDL
MODEL 3
REMARK VINA RESULT:      -5.4      2.868      4.119
REMARK  5 active torsions:
REMARK  status: ('A' for Active; 'I' for Inactive)
REMARK    1  A    between atoms: C_2  and  C_3 
REMARK    2  A    between atoms: C_2  and  N_16 
REMARK    3  A    between atoms: C_3  and  N_4 
REMARK       I    between atoms: N_4  and  C_5 
REMARK    4  A    between atoms: C_5  and  C_7 
REMARK    5  A    between atoms: C_7  and  C_8 
ROOT
HETATM    1  N   UNL     1     -42.572 -49.842  12.304  1.00  0.00    -0.359 N 
HETATM    2  C   UNL     1     -41.591 -48.931  11.972  1.00  0.00     0.222 C 
HETATM    3  O   UNL     1     -40.736 -48.548  12.767  1.00  0.00    -0.273 OA
HETATM    4  H   UNL     1     -43.283 -50.088  11.626  1.00  0.00     0.162 HD
ENDROOT
BRANCH   2   5
HETATM    5  C   UNL     1     -41.634 -48.450  10.535  1.00  0.00     0.146 C 
BRANCH   5   6
HETATM    6  C   UNL     1     -42.083 -47.041  10.327  1.00  0.00     0.006 A 
HETATM    7  C   UNL     1     -43.418 -46.643   9.999  1.00  0.00     0.038 A 
HETATM    8  C   UNL     1     -44.618 -47.484   9.787  1.00  0.00     0.071 C 
HETATM    9  N   UNL     1     -43.525 -45.316   9.896  1.00  0.00    -0.265 N 
HETATM   10  O   UNL     1     -42.262 -44.818  10.125  1.00  0.00    -0.242 OA
ATOM     11  HN  UNL     1     -44.369 -44.782   9.691  1.00  0.00     0.194 HD
HETATM   12  C   UNL     1     -41.400 -45.841  10.379  1.00  0.00     0.081 A 
HETATM   13  C   UNL     1     -40.004 -45.428  10.623  1.00  0.00     0.079 C 
ENDBRANCH   5   6
ENDBRANCH   2   5
BRANCH   1  14
HETATM   14  C   UNL     1     -42.655 -50.432  13.633  1.00  0.00     0.158 C 
BRANCH  14  15
HETATM   15  C   UNL     1     -42.964 -51.960  13.626  1.00  0.00     0.236 C 
HETATM   16  C   UNL     1     -42.532 -52.552  12.272  1.00  0.00     0.044 C 
BRANCH  15  17
HETATM   17  N   UNL     1     -44.403 -52.217  13.881  1.00  0.00     0.094 N 
HETATM   18  C   UNL     1     -45.139 -52.583  12.658  1.00  0.00     0.273 C 
HETATM   19  C   UNL     1     -46.567 -52.086  12.849  1.00  0.00     0.032 C 
HETATM   20  C   UNL     1     -46.581 -51.458  14.228  1.00  0.00     0.032 C 
HETATM   21  C   UNL     1     -45.130 -51.081  14.459  1.00  0.00     0.273 C 
ENDBRANCH  15  17
ENDBRANCH  14  15
ENDBRANCH   1  14
TORSDOF 5
ENDMDL
MODEL 4
REMARK VINA RESULT:      -5.3      0.949      2.037
REMARK  5 active torsions:
REMARK  status: ('A' for Active; 'I' for Inactive)
REMARK    1  A    between atoms: C_2  and  C_3 
REMARK    2  A    between atoms: C_2  and  N_16 
REMARK    3  A    between atoms: C_3  and  N_4 
REMARK       I    between atoms: N_4  and  C_5 
REMARK    4  A    between atoms: C_5  and  C_7 
REMARK    5  A    between atoms: C_7  and  C_8 
ROOT
HETATM    1  N   UNL     1     -42.067 -53.099  14.169  1.00  0.00    -0.359 N 
HETATM    2  C   UNL     1     -40.769 -53.008  13.712  1.00  0.00     0.222 C 
HETATM    3  O   UNL     1     -40.217 -53.906  13.081  1.00  0.00    -0.273 OA
HETATM    4  H   UNL     1     -42.459 -52.350  14.727  1.00  0.00     0.162 HD
ENDROOT
BRANCH   2   5
HETATM    5  C   UNL     1     -40.074 -51.699  14.034  1.00  0.00     0.146 C 
BRANCH   5   6
HETATM    6  C   UNL     1     -39.685 -50.858  12.865  1.00  0.00     0.006 A 
HETATM    7  C   UNL     1     -40.587 -50.073  12.078  1.00  0.00     0.038 A 
HETATM    8  C   UNL     1     -42.053 -49.916  12.217  1.00  0.00     0.071 C 
HETATM    9  N   UNL     1     -39.949 -49.409  11.111  1.00  0.00    -0.265 N 
HETATM   10  O   UNL     1     -38.623 -49.765  11.223  1.00  0.00    -0.242 OA
ATOM     11  HN  UNL     1     -40.359 -48.770  10.431  1.00  0.00     0.194 HD
HETATM   12  C   UNL     1     -38.462 -50.629  12.263  1.00  0.00     0.081 A 
HETATM   13  C   UNL     1     -37.077 -51.097  12.470  1.00  0.00     0.079 C 
ENDBRANCH   5   6
ENDBRANCH   2   5
BRANCH   1  14
HETATM   14  C   UNL     1     -42.891 -54.273  13.916  1.00  0.00     0.158 C 
BRANCH  14  15
HETATM   15  C   UNL     1     -44.354 -54.142  14.438  1.00  0.00     0.236 C 
HETATM   16  C   UNL     1     -45.205 -55.272  13.828  1.00  0.00     0.044 C 
BRANCH  15  17
HETATM   17  N   UNL     1     -44.924 -52.813  14.108  1.00  0.00     0.094 N 
HETATM   18  C   UNL     1     -45.782 -52.282  15.182  1.00  0.00     0.273 C 
HETATM   19  C   UNL     1     -46.837 -51.418  14.503  1.00  0.00     0.032 C 
HETATM   20  C   UNL     1     -46.506 -51.483  13.026  1.00  0.00     0.032 C 
HETATM   21  C   UNL     1     -45.747 -52.790  12.893  1.00  0.00     0.273 C 
ENDBRANCH  15  17
ENDBRANCH  14  15
ENDBRANCH   1  14
TORSDOF 5
ENDMDL
MODEL 5
REMARK VINA RESULT:      -5.3      1.814      2.166
REMARK  5 active torsions:
REMARK  status: ('A' for Active; 'I' for Inactive)
REMARK    1  A    between atoms: C_2  and  C_3 
REMARK    2  A    between atoms: C_2  and  N_16 
REMARK    3  A    between atoms: C_3  and  N_4 
REMARK       I    between atoms: N_4  and  C_5 
REMARK    4  A    between atoms: C_5  and  C_7 
REMARK    5  A    between atoms: C_7  and  C_8 
ROOT
HETATM    1  N   UNL     1     -42.415 -51.781  12.047  1.00  0.00    -0.359 N 
HETATM    2  C   UNL     1     -41.042 -51.683  11.970  1.00  0.00     0.222 C 
HETATM    3  O   UNL     1     -40.289 -52.625  12.204  1.00  0.00    -0.273 OA
HETATM    4  H   UNL     1     -42.989 -50.960  11.892  1.00  0.00     0.162 HD
ENDROOT
BRANCH   2   5
HETATM    5  C   UNL     1     -40.526 -50.319  11.554  1.00  0.00     0.146 C 
BRANCH   5   6
HETATM    6  C   UNL     1     -39.626 -49.632  12.527  1.00  0.00     0.006 A 
HETATM    7  C   UNL     1     -38.215 -49.462  12.364  1.00  0.00     0.038 A 
HETATM    8  C   UNL     1     -37.342 -49.907  11.252  1.00  0.00     0.071 C 
HETATM    9  N   UNL     1     -37.677 -48.791  13.385  1.00  0.00    -0.265 N 
HETATM   10  O   UNL     1     -38.715 -48.533  14.253  1.00  0.00    -0.242 OA
ATOM     11  HN  UNL     1     -36.700 -48.524  13.499  1.00  0.00     0.194 HD
HETATM   12  C   UNL     1     -39.876 -49.035  13.748  1.00  0.00     0.081 A 
HETATM   13  C   UNL     1     -41.062 -48.833  14.604  1.00  0.00     0.079 C 
ENDBRANCH   5   6
ENDBRANCH   2   5
BRANCH   1  14
HETATM   14  C   UNL     1     -43.079 -53.029  12.398  1.00  0.00     0.158 C 
BRANCH  14  15
HETATM   15  C   UNL     1     -43.489 -53.125  13.899  1.00  0.00     0.236 C 
HETATM   16  C   UNL     1     -43.135 -54.528  14.424  1.00  0.00     0.044 C 
BRANCH  15  17
HETATM   17  N   UNL     1     -44.933 -52.840  14.080  1.00  0.00     0.094 N 
HETATM   18  C   UNL     1     -45.654 -52.723  12.799  1.00  0.00     0.273 C 
HETATM   19  C   UNL     1     -46.798 -51.745  13.037  1.00  0.00     0.032 C 
HETATM   20  C   UNL     1     -46.684 -51.355  14.496  1.00  0.00     0.032 C 
HETATM   21  C   UNL     1     -45.221 -51.602  14.813  1.00  0.00     0.273 C 
ENDBRANCH  15  17
ENDBRANCH  14  15
ENDBRANCH   1  14
TORSDOF 5
ENDMDL
MODEL 6
REMARK VINA RESULT:      -5.3      3.085      6.765
REMARK  5 active torsions:
REMARK  status: ('A' for Active; 'I' for Inactive)
REMARK    1  A    between atoms: C_2  and  C_3 
REMARK    2  A    between atoms: C_2  and  N_16 
REMARK    3  A    between atoms: C_3  and  N_4 
REMARK       I    between atoms: N_4  and  C_5 
REMARK    4  A    between atoms: C_5  and  C_7 
REMARK    5  A    between atoms: C_7  and  C_8 
ROOT
HETATM    1  N   UNL     1     -42.335 -50.535  12.010  1.00  0.00    -0.359 N 
HETATM    2  C   UNL     1     -42.971 -51.310  12.957  1.00  0.00     0.222 C 
HETATM    3  O   UNL     1     -43.371 -50.864  14.030  1.00  0.00    -0.273 OA
HETATM    4  H   UNL     1     -41.981 -50.962  11.163  1.00  0.00     0.162 HD
ENDROOT
BRANCH   2   5
HETATM    5  C   UNL     1     -43.158 -52.763  12.564  1.00  0.00     0.146 C 
BRANCH   5   6
HETATM    6  C   UNL     1     -44.200 -53.519  13.320  1.00  0.00     0.006 A 
HETATM    7  C   UNL     1     -45.612 -53.337  13.178  1.00  0.00     0.038 A 
HETATM    8  C   UNL     1     -46.351 -52.400  12.300  1.00  0.00     0.071 C 
HETATM    9  N   UNL     1     -46.298 -54.168  13.967  1.00  0.00    -0.265 N 
HETATM   10  O   UNL     1     -45.354 -54.889  14.664  1.00  0.00    -0.242 OA
ATOM     11  HN  UNL     1     -47.312 -54.251  14.039  1.00  0.00     0.194 HD
HETATM   12  C   UNL     1     -44.105 -54.504  14.283  1.00  0.00     0.081 A 
HETATM   13  C   UNL     1     -43.004 -55.200  14.979  1.00  0.00     0.079 C 
ENDBRANCH   5   6
ENDBRANCH   2   5
BRANCH   1  14
HETATM   14  C   UNL     1     -42.106 -49.110  12.211  1.00  0.00     0.158 C 
BRANCH  14  15
HETATM   15  C   UNL     1     -41.673 -48.353  10.920  1.00  0.00     0.236 C 
HETATM   16  C   UNL     1     -40.400 -47.541  11.220  1.00  0.00     0.044 C 
BRANCH  15  17
HETATM   17  N   UNL     1     -42.758 -47.472  10.424  1.00  0.00     0.094 N 
HETATM   18  C   UNL     1     -43.097 -47.728   9.012  1.00  0.00     0.273 C 
HETATM   19  C   UNL     1     -43.576 -46.401   8.437  1.00  0.00     0.032 C 
HETATM   20  C   UNL     1     -43.504 -45.424   9.592  1.00  0.00     0.032 C 
HETATM   21  C   UNL     1     -42.462 -46.037  10.508  1.00  0.00     0.273 C 
ENDBRANCH  15  17
ENDBRANCH  14  15
ENDBRANCH   1  14
TORSDOF 5
ENDMDL
MODEL 7
REMARK VINA RESULT:      -5.2      2.080      6.266
REMARK  5 active torsions:
REMARK  status: ('A' for Active; 'I' for Inactive)
REMARK    1  A    between atoms: C_2  and  C_3 
REMARK    2  A    between atoms: C_2  and  N_16 
REMARK    3  A    between atoms: C_3  and  N_4 
REMARK       I    between atoms: N_4  and  C_5 
REMARK    4  A    between atoms: C_5  and  C_7 
REMARK    5  A    between atoms: C_7  and  C_8 
ROOT
HETATM    1  N   UNL     1     -42.785 -52.343  12.167  1.00  0.00    -0.359 N 
HETATM    2  C   UNL     1     -43.101 -53.487  12.870  1.00  0.00     0.222 C 
HETATM    3  O   UNL     1     -42.262 -54.169  13.452  1.00  0.00    -0.273 OA
HETATM    4  H   UNL     1     -43.509 -51.845  11.663  1.00  0.00     0.162 HD
ENDROOT
BRANCH   2   5
HETATM    5  C   UNL     1     -44.578 -53.833  12.885  1.00  0.00     0.146 C 
BRANCH   5   6
HETATM    6  C   UNL     1     -45.483 -52.822  13.507  1.00  0.00     0.006 A 
HETATM    7  C   UNL     1     -45.547 -52.525  14.905  1.00  0.00     0.038 A 
HETATM    8  C   UNL     1     -44.778 -53.120  16.023  1.00  0.00     0.071 C 
HETATM    9  N   UNL     1     -46.434 -51.561  15.164  1.00  0.00    -0.265 N 
HETATM   10  O   UNL     1     -46.991 -51.227  13.950  1.00  0.00    -0.242 OA
ATOM     11  HN  UNL     1     -46.654 -51.156  16.074  1.00  0.00     0.194 HD
HETATM   12  C   UNL     1     -46.430 -51.977  12.962  1.00  0.00     0.081 A 
HETATM   13  C   UNL     1     -46.964 -51.718  11.610  1.00  0.00     0.079 C 
ENDBRANCH   5   6
ENDBRANCH   2   5
BRANCH   1  14
HETATM   14  C   UNL     1     -41.418 -51.847  12.079  1.00  0.00     0.158 C 
BRANCH  14  15
HETATM   15  C   UNL     1     -41.123 -50.642  13.022  1.00  0.00     0.236 C 
HETATM   16  C   UNL     1     -42.019 -49.457  12.615  1.00  0.00     0.044 C 
BRANCH  15  17
HETATM   17  N   UNL     1     -39.690 -50.263  12.976  1.00  0.00     0.094 N 
HETATM   18  C   UNL     1     -39.281 -49.751  11.655  1.00  0.00     0.273 C 
HETATM   19  C   UNL     1     -37.812 -50.118  11.487  1.00  0.00     0.032 C 
HETATM   20  C   UNL     1     -37.435 -50.827  12.771  1.00  0.00     0.032 C 
HETATM   21  C   UNL     1     -38.761 -51.358  13.283  1.00  0.00     0.273 C 
ENDBRANCH  15  17
ENDBRANCH  14  15
ENDBRANCH   1  14
TORSDOF 5
ENDMDL
MODEL 8
REMARK VINA RESULT:      -5.1      3.139      6.172
REMARK  5 active torsions:
REMARK  status: ('A' for Active; 'I' for Inactive)
REMARK    1  A    between atoms: C_2  and  C_3 
REMARK    2  A    between atoms: C_2  and  N_16 
REMARK    3  A    between atoms: C_3  and  N_4 
REMARK       I    between atoms: N_4  and  C_5 
REMARK    4  A    between atoms: C_5  and  C_7 
REMARK    5  A    between atoms: C_7  and  C_8 
ROOT
HETATM    1  N   UNL     1     -42.540 -49.440  12.114  1.00  0.00    -0.359 N 
HETATM    2  C   UNL     1     -42.323 -50.745  12.507  1.00  0.00     0.222 C 
HETATM    3  O   UNL     1     -41.477 -51.468  11.988  1.00  0.00    -0.273 OA
HETATM    4  H   UNL     1     -43.284 -48.902  12.541  1.00  0.00     0.162 HD
ENDROOT
BRANCH   2   5
HETATM    5  C   UNL     1     -43.201 -51.217  13.649  1.00  0.00     0.146 C 
BRANCH   5   6
HETATM    6  C   UNL     1     -44.054 -52.410  13.372  1.00  0.00     0.006 A 
HETATM    7  C   UNL     1     -43.636 -53.771  13.512  1.00  0.00     0.038 A 
HETATM    8  C   UNL     1     -42.322 -54.305  13.938  1.00  0.00     0.071 C 
HETATM    9  N   UNL     1     -44.620 -54.622  13.214  1.00  0.00    -0.265 N 
HETATM   10  O   UNL     1     -45.693 -53.842  12.843  1.00  0.00    -0.242 OA
ATOM     11  HN  UNL     1     -44.585 -55.641  13.253  1.00  0.00     0.194 HD
HETATM   12  C   UNL     1     -45.359 -52.525  12.933  1.00  0.00     0.081 A 
HETATM   13  C   UNL     1     -46.431 -51.588  12.541  1.00  0.00     0.079 C 
ENDBRANCH   5   6
ENDBRANCH   2   5
BRANCH   1  14
HETATM   14  C   UNL     1     -41.759 -48.816  11.055  1.00  0.00     0.158 C 
BRANCH  14  15
HETATM   15  C   UNL     1     -42.165 -47.341  10.757  1.00  0.00     0.236 C 
HETATM   16  C   UNL     1     -42.608 -46.670  12.071  1.00  0.00     0.044 C 
BRANCH  15  17
HETATM   17  N   UNL     1     -43.242 -47.275   9.740  1.00  0.00     0.094 N 
HETATM   18  C   UNL     1     -43.445 -45.913   9.215  1.00  0.00     0.273 C 
HETATM   19  C   UNL     1     -44.919 -45.810   8.842  1.00  0.00     0.032 C 
HETATM   20  C   UNL     1     -45.500 -47.171   9.162  1.00  0.00     0.032 C 
HETATM   21  C   UNL     1     -44.557 -47.718  10.218  1.00  0.00     0.273 C 
ENDBRANCH  15  17
ENDBRANCH  14  15
ENDBRANCH   1  14
TORSDOF 5
ENDMDL
MODEL 9
REMARK VINA RESULT:      -5.1      2.709      6.338
REMARK  5 active torsions:
REMARK  status: ('A' for Active; 'I' for Inactive)
REMARK    1  A    between atoms: C_2  and  C_3 
REMARK    2  A    between atoms: C_2  and  N_16 
REMARK    3  A    between atoms: C_3  and  N_4 
REMARK       I    between atoms: N_4  and  C_5 
REMARK    4  A    between atoms: C_5  and  C_7 
REMARK    5  A    between atoms: C_7  and  C_8 
ROOT
HETATM    1  N   UNL     1     -42.911 -49.638  12.330  1.00  0.00    -0.359 N 
HETATM    2  C   UNL     1     -43.130 -49.552  13.689  1.00  0.00     0.222 C 
HETATM    3  O   UNL     1     -43.118 -48.488  14.303  1.00  0.00    -0.273 OA
HETATM    4  H   UNL     1     -42.882 -50.546  11.881  1.00  0.00     0.162 HD
ENDROOT
BRANCH   2   5
HETATM    5  C   UNL     1     -43.408 -50.877  14.372  1.00  0.00     0.146 C 
BRANCH   5   6
HETATM    6  C   UNL     1     -43.937 -51.966  13.500  1.00  0.00     0.006 A 
HETATM    7  C   UNL     1     -43.154 -53.023  12.936  1.00  0.00     0.038 A 
HETATM    8  C   UNL     1     -41.701 -53.280  13.065  1.00  0.00     0.071 C 
HETATM    9  N   UNL     1     -43.903 -53.862  12.217  1.00  0.00    -0.265 N 
HETATM   10  O   UNL     1     -45.184 -53.361  12.267  1.00  0.00    -0.242 OA
ATOM     11  HN  UNL     1     -43.590 -54.702  11.730  1.00  0.00     0.194 HD
HETATM   12  C   UNL     1     -45.209 -52.231  13.027  1.00  0.00     0.081 A 
HETATM   13  C   UNL     1     -46.534 -51.590  13.141  1.00  0.00     0.079 C 
ENDBRANCH   5   6
ENDBRANCH   2   5
BRANCH   1  14
HETATM   14  C   UNL     1     -42.663 -48.458  11.514  1.00  0.00     0.158 C 
BRANCH  14  15
HETATM   15  C   UNL     1     -41.301 -48.487  10.759  1.00  0.00     0.236 C 
HETATM   16  C   UNL     1     -40.508 -49.729  11.206  1.00  0.00     0.044 C 
BRANCH  15  17
HETATM   17  N   UNL     1     -40.524 -47.247  11.003  1.00  0.00     0.094 N 
HETATM   18  C   UNL     1     -40.147 -47.084  12.419  1.00  0.00     0.273 C 
HETATM   19  C   UNL     1     -40.082 -45.584  12.677  1.00  0.00     0.032 C 
HETATM   20  C   UNL     1     -40.416 -44.942  11.347  1.00  0.00     0.032 C 
HETATM   21  C   UNL     1     -41.223 -46.010  10.633  1.00  0.00     0.273 C 
ENDBRANCH  15  17
ENDBRANCH  14  15
ENDBRANCH   1  14
TORSDOF 5
ENDMDL
