MODEL 1
REMARK VINA RESULT:      -5.7      0.000      0.000
REMARK  5 active torsions:
REMARK  status: ('A' for Active; 'I' for Inactive)
REMARK    1  A    between atoms: C_2  and  C_4 
REMARK    2  A    between atoms: C_4  and  C_5 
REMARK    3  A    between atoms: C_5  and  C_6 
REMARK       I    between atoms: C_6  and  N_8 
REMARK    4  A    between atoms: N_8  and  C_9 
REMARK    5  A    between atoms: C_12  and  N_16 
ROOT
HETATM    1  C   UNL     1     -41.958 -50.522  12.152  1.00  0.00     0.107 A 
HETATM    2  C   UNL     1     -42.327 -50.723  13.474  1.00  0.00     0.051 A 
HETATM    3  C   UNL     1     -41.946 -51.907  14.103  1.00  0.00     0.034 A 
HETATM    4  C   UNL     1     -41.231 -52.892  13.417  1.00  0.00     0.046 A 
HETATM    5  C   UNL     1     -40.876 -52.543  12.108  1.00  0.00     0.119 A 
HETATM    6  N   UNL     1     -41.183 -51.380  11.473  1.00  0.00    -0.350 N 
ATOM      7  HN  UNL     1     -40.844 -51.172  10.534  1.00  0.00     0.166 HD
ENDROOT
BRANCH   1   8
HETATM    8  N   UNL     1     -42.370 -49.389  11.450  1.00  0.00    -0.313 N 
HETATM    9  C   UNL     1     -41.473 -48.433  11.032  1.00  0.00     0.223 C 
HETATM   10  O   UNL     1     -40.275 -48.429  11.318  1.00  0.00    -0.273 OA
HETATM   11  H   UNL     1     -43.309 -49.089  11.674  1.00  0.00     0.170 HD
BRANCH   9  12
HETATM   12  C   UNL     1     -42.105 -47.330  10.211  1.00  0.00     0.103 C 
BRANCH  12  13
HETATM   13  C   UNL     1     -43.637 -47.392  10.278  1.00  0.00     0.013 C 
BRANCH  13  14
HETATM   14  C   UNL     1     -44.342 -47.203   8.916  1.00  0.00    -0.022 C 
HETATM   15  C   UNL     1     -43.575 -47.859   7.769  1.00  0.00     0.009 C 
HETATM   16  C   UNL     1     -45.769 -47.744   8.982  1.00  0.00     0.009 C 
ENDBRANCH  13  14
ENDBRANCH  12  13
ENDBRANCH   9  12
ENDBRANCH   1   8
BRANCH   4  17
HETATM   17  N   UNL     1     -40.896 -54.084  14.027  1.00  0.00    -0.376 N 
HETATM   18  C   UNL     1     -41.731 -54.724  15.056  1.00  0.00     0.149 C 
HETATM   19  C   UNL     1     -41.029 -54.692  16.420  1.00  0.00     0.187 C 
HETATM   20  O   UNL     1     -39.725 -55.288  16.350  1.00  0.00    -0.388 OA
HETATM   21  C   UNL     1     -38.901 -54.575  15.411  1.00  0.00     0.187 C 
HETATM   22  C   UNL     1     -39.507 -54.586  13.995  1.00  0.00     0.149 C 
ENDBRANCH   4  17
TORSDOF 5
ENDMDL
MODEL 2
REMARK VINA RESULT:      -5.6      1.871      2.396
REMARK  5 active torsions:
REMARK  status: ('A' for Active; 'I' for Inactive)
REMARK    1  A    between atoms: C_2  and  C_4 
REMARK    2  A    between atoms: C_4  and  C_5 
REMARK    3  A    between atoms: C_5  and  C_6 
REMARK       I    between atoms: C_6  and  N_8 
REMARK    4  A    between atoms: N_8  and  C_9 
REMARK    5  A    between atoms: C_12  and  N_16 
ROOT
HETATM    1  C   UNL     1     -40.991 -49.516  11.062  1.00  0.00     0.107 A 
HETATM    2  C   UNL     1     -39.632 -49.425  11.322  1.00  0.00     0.051 A 
HETATM    3  C   UNL     1     -39.071 -50.290  12.260  1.00  0.00     0.034 A 
HETATM    4  C   UNL     1     -39.858 -51.213  12.953  1.00  0.00     0.046 A 
HETATM    5  C   UNL     1     -41.202 -51.239  12.559  1.00  0.00     0.119 A 
HETATM    6  N   UNL     1     -41.779 -50.450  11.614  1.00  0.00    -0.350 N 
ATOM      7  HN  UNL     1     -42.755 -50.561  11.341  1.00  0.00     0.166 HD
ENDROOT
BRANCH   1   8
HETATM    8  N   UNL     1     -41.621 -48.631  10.185  1.00  0.00    -0.313 N 
HETATM    9  C   UNL     1     -42.748 -47.931  10.551  1.00  0.00     0.223 C 
HETATM   10  O   UNL     1     -43.352 -48.090  11.613  1.00  0.00    -0.273 OA
HETATM   11  H   UNL     1     -41.515 -48.878   9.211  1.00  0.00     0.170 HD
BRANCH   9  12
HETATM   12  C   UNL     1     -43.226 -46.960   9.495  1.00  0.00     0.103 C 
BRANCH  12  13
HETATM   13  C   UNL     1     -44.146 -47.650   8.479  1.00  0.00     0.013 C 
BRANCH  13  14
HETATM   14  C   UNL     1     -45.609 -47.812   8.952  1.00  0.00    -0.022 C 
HETATM   15  C   UNL     1     -46.352 -46.479   9.010  1.00  0.00     0.009 C 
HETATM   16  C   UNL     1     -46.349 -48.797   8.047  1.00  0.00     0.009 C 
ENDBRANCH  13  14
ENDBRANCH  12  13
ENDBRANCH   9  12
ENDBRANCH   1   8
BRANCH   4  17
HETATM   17  N   UNL     1     -39.309 -52.036  13.915  1.00  0.00    -0.376 N 
HETATM   18  C   UNL     1     -39.455 -53.500  13.901  1.00  0.00     0.149 C 
HETATM   19  C   UNL     1     -40.331 -53.968  15.071  1.00  0.00     0.187 C 
HETATM   20  O   UNL     1     -39.817 -53.499  16.327  1.00  0.00    -0.388 OA
HETATM   21  C   UNL     1     -39.784 -52.061  16.346  1.00  0.00     0.187 C 
HETATM   22  C   UNL     1     -38.892 -51.495  15.225  1.00  0.00     0.149 C 
ENDBRANCH   4  17
TORSDOF 5
ENDMDL
MODEL 3
REMARK VINA RESULT:      -5.6      3.459      4.960
REMARK  5 active torsions:
REMARK  status: ('A' for Active; 'I' for Inactive)
REMARK    1  A    between atoms: C_2  and  C_4 
REMARK    2  A    between atoms: C_4  and  C_5 
REMARK    3  A    between atoms: C_5  and  C_6 
REMARK       I    between atoms: C_6  and  N_8 
REMARK    4  A    between atoms: N_8  and  C_9 
REMARK    5  A    between atoms: C_12  and  N_16 
ROOT
HETATM    1  C   UNL     1     -41.408 -52.439  12.135  1.00  0.00     0.107 A 
HETATM    2  C   UNL     1     -40.896 -53.277  13.114  1.00  0.00     0.051 A 
HETATM    3  C   UNL     1     -41.781 -54.061  13.854  1.00  0.00     0.034 A 
HETATM    4  C   UNL     1     -43.160 -53.990  13.642  1.00  0.00     0.046 A 
HETATM    5  C   UNL     1     -43.540 -53.147  12.590  1.00  0.00     0.119 A 
HETATM    6  N   UNL     1     -42.708 -52.404  11.811  1.00  0.00    -0.350 N 
ATOM      7  HN  UNL     1     -43.053 -51.852  11.026  1.00  0.00     0.166 HD
ENDROOT
BRANCH   1   8
HETATM    8  N   UNL     1     -40.579 -51.581  11.412  1.00  0.00    -0.313 N 
HETATM    9  C   UNL     1     -40.554 -50.226  11.654  1.00  0.00     0.223 C 
HETATM   10  O   UNL     1     -41.311 -49.644  12.431  1.00  0.00    -0.273 OA
HETATM   11  H   UNL     1     -40.388 -51.895  10.470  1.00  0.00     0.170 HD
BRANCH   9  12
HETATM   12  C   UNL     1     -39.527 -49.483  10.829  1.00  0.00     0.103 C 
BRANCH  12  13
HETATM   13  C   UNL     1     -38.300 -49.109  11.670  1.00  0.00     0.013 C 
BRANCH  13  14
HETATM   14  C   UNL     1     -38.099 -49.986  12.928  1.00  0.00    -0.022 C 
HETATM   15  C   UNL     1     -37.102 -51.119  12.692  1.00  0.00     0.009 C 
HETATM   16  C   UNL     1     -37.654 -49.121  14.107  1.00  0.00     0.009 C 
ENDBRANCH  13  14
ENDBRANCH  12  13
ENDBRANCH   9  12
ENDBRANCH   1   8
BRANCH   4  17
HETATM   17  N   UNL     1     -44.037 -54.731  14.407  1.00  0.00    -0.376 N 
HETATM   18  C   UNL     1     -45.369 -55.139  13.935  1.00  0.00     0.149 C 
HETATM   19  C   UNL     1     -46.468 -54.414  14.723  1.00  0.00     0.187 C 
HETATM   20  O   UNL     1     -46.320 -54.623  16.136  1.00  0.00    -0.388 OA
HETATM   21  C   UNL     1     -45.049 -54.119  16.583  1.00  0.00     0.187 C 
HETATM   22  C   UNL     1     -43.875 -54.819  15.872  1.00  0.00     0.149 C 
ENDBRANCH   4  17
TORSDOF 5
ENDMDL
MODEL 4
REMARK VINA RESULT:      -5.6      2.556      8.178
REMARK  5 active torsions:
REMARK  status: ('A' for Active; 'I' for Inactive)
REMARK    1  A    between atoms: C_2  and  C_4 
REMARK    2  A    between atoms: C_4  and  C_5 
REMARK    3  A    between atoms: C_5  and  C_6 
REMARK       I    between atoms: C_6  and  N_8 
REMARK    4  A    between atoms: N_8  and  C_9 
REMARK    5  A    between atoms: C_12  and  N_16 
ROOT
HETATM    1  C   UNL     1     -40.471 -49.819  11.611  1.00  0.00     0.107 A 
HETATM    2  C   UNL     1     -39.557 -48.862  12.024  1.00  0.00     0.051 A 
HETATM    3  C   UNL     1     -39.770 -47.533  11.662  1.00  0.00     0.034 A 
HETATM    4  C   UNL     1     -40.862 -47.165  10.873  1.00  0.00     0.046 A 
HETATM    5  C   UNL     1     -41.737 -48.216  10.569  1.00  0.00     0.119 A 
HETATM    6  N   UNL     1     -41.594 -49.516  10.944  1.00  0.00    -0.350 N 
ATOM      7  HN  UNL     1     -42.301 -50.219  10.730  1.00  0.00     0.166 HD
ENDROOT
BRANCH   1   8
HETATM    8  N   UNL     1     -40.275 -51.173  11.883  1.00  0.00    -0.313 N 
HETATM    9  C   UNL     1     -41.289 -51.968  12.365  1.00  0.00     0.223 C 
HETATM   10  O   UNL     1     -42.402 -51.555  12.693  1.00  0.00    -0.273 OA
HETATM   11  H   UNL     1     -39.328 -51.402  12.154  1.00  0.00     0.170 HD
BRANCH   9  12
HETATM   12  C   UNL     1     -40.900 -53.422  12.511  1.00  0.00     0.103 C 
BRANCH  12  13
HETATM   13  C   UNL     1     -41.985 -54.218  13.250  1.00  0.00     0.013 C 
BRANCH  13  14
HETATM   14  C   UNL     1     -41.796 -54.280  14.783  1.00  0.00    -0.022 C 
HETATM   15  C   UNL     1     -42.719 -55.304  15.441  1.00  0.00     0.009 C 
HETATM   16  C   UNL     1     -40.337 -54.582  15.122  1.00  0.00     0.009 C 
ENDBRANCH  13  14
ENDBRANCH  12  13
ENDBRANCH   9  12
ENDBRANCH   1   8
BRANCH   4  17
HETATM   17  N   UNL     1     -41.045 -45.856  10.476  1.00  0.00    -0.376 N 
HETATM   18  C   UNL     1     -39.944 -44.886  10.371  1.00  0.00     0.149 C 
HETATM   19  C   UNL     1     -40.080 -43.794  11.440  1.00  0.00     0.187 C 
HETATM   20  O   UNL     1     -41.362 -43.150  11.368  1.00  0.00    -0.388 OA
HETATM   21  C   UNL     1     -42.413 -44.109  11.577  1.00  0.00     0.187 C 
HETATM   22  C   UNL     1     -42.382 -45.230  10.521  1.00  0.00     0.149 C 
ENDBRANCH   4  17
TORSDOF 5
ENDMDL
MODEL 5
REMARK VINA RESULT:      -5.6      2.820      7.913
REMARK  5 active torsions:
REMARK  status: ('A' for Active; 'I' for Inactive)
REMARK    1  A    between atoms: C_2  and  C_4 
REMARK    2  A    between atoms: C_4  and  C_5 
REMARK    3  A    between atoms: C_5  and  C_6 
REMARK       I    between atoms: C_6  and  N_8 
REMARK    4  A    between atoms: N_8  and  C_9 
REMARK    5  A    between atoms: C_12  and  N_16 
ROOT
HETATM    1  C   UNL     1     -41.484 -49.879  11.575  1.00  0.00     0.107 A 
HETATM    2  C   UNL     1     -40.251 -49.251  11.672  1.00  0.00     0.051 A 
HETATM    3  C   UNL     1     -40.171 -47.887  11.398  1.00  0.00     0.034 A 
HETATM    4  C   UNL     1     -41.298 -47.162  11.002  1.00  0.00     0.046 A 
HETATM    5  C   UNL     1     -42.488 -47.901  10.996  1.00  0.00     0.119 A 
HETATM    6  N   UNL     1     -42.619 -49.219  11.305  1.00  0.00    -0.350 N 
ATOM      7  HN  UNL     1     -43.529 -49.679  11.330  1.00  0.00     0.166 HD
ENDROOT
BRANCH   1   8
HETATM    8  N   UNL     1     -41.613 -51.254  11.770  1.00  0.00    -0.313 N 
HETATM    9  C   UNL     1     -42.322 -51.770  12.830  1.00  0.00     0.223 C 
HETATM   10  O   UNL     1     -42.806 -51.095  13.739  1.00  0.00    -0.273 OA
HETATM   11  H   UNL     1     -40.832 -51.791  11.420  1.00  0.00     0.170 HD
BRANCH   9  12
HETATM   12  C   UNL     1     -42.420 -53.280  12.815  1.00  0.00     0.103 C 
BRANCH  12  13
HETATM   13  C   UNL     1     -43.881 -53.744  12.744  1.00  0.00     0.013 C 
BRANCH  13  14
HETATM   14  C   UNL     1     -44.422 -54.346  14.061  1.00  0.00    -0.022 C 
HETATM   15  C   UNL     1     -45.595 -55.295  13.826  1.00  0.00     0.009 C 
HETATM   16  C   UNL     1     -43.300 -55.060  14.813  1.00  0.00     0.009 C 
ENDBRANCH  13  14
ENDBRANCH  12  13
ENDBRANCH   9  12
ENDBRANCH   1   8
BRANCH   4  17
HETATM   17  N   UNL     1     -41.207 -45.822  10.685  1.00  0.00    -0.376 N 
HETATM   18  C   UNL     1     -39.931 -45.091  10.636  1.00  0.00     0.149 C 
HETATM   19  C   UNL     1     -39.854 -44.060  11.770  1.00  0.00     0.187 C 
HETATM   20  O   UNL     1     -40.977 -43.166  11.739  1.00  0.00    -0.388 OA
HETATM   21  C   UNL     1     -42.203 -43.903  11.893  1.00  0.00     0.187 C 
HETATM   22  C   UNL     1     -42.390 -44.942  10.772  1.00  0.00     0.149 C 
ENDBRANCH   4  17
TORSDOF 5
ENDMDL
MODEL 6
REMARK VINA RESULT:      -5.4      2.948      7.645
REMARK  5 active torsions:
REMARK  status: ('A' for Active; 'I' for Inactive)
REMARK    1  A    between atoms: C_2  and  C_4 
REMARK    2  A    between atoms: C_4  and  C_5 
REMARK    3  A    between atoms: C_5  and  C_6 
REMARK       I    between atoms: C_6  and  N_8 
REMARK    4  A    between atoms: N_8  and  C_9 
REMARK    5  A    between atoms: C_12  and  N_16 
ROOT
HETATM    1  C   UNL     1     -42.284 -50.097  12.196  1.00  0.00     0.107 A 
HETATM    2  C   UNL     1     -42.991 -49.208  12.991  1.00  0.00     0.051 A 
HETATM    3  C   UNL     1     -42.638 -47.860  12.966  1.00  0.00     0.034 A 
HETATM    4  C   UNL     1     -41.574 -47.406  12.182  1.00  0.00     0.046 A 
HETATM    5  C   UNL     1     -40.979 -48.395  11.388  1.00  0.00     0.119 A 
HETATM    6  N   UNL     1     -41.325 -49.709  11.344  1.00  0.00    -0.350 N 
ATOM      7  HN  UNL     1     -40.880 -50.363  10.700  1.00  0.00     0.166 HD
ENDROOT
BRANCH   1   8
HETATM    8  N   UNL     1     -42.546 -51.467  12.233  1.00  0.00    -0.313 N 
HETATM    9  C   UNL     1     -41.669 -52.355  12.811  1.00  0.00     0.223 C 
HETATM   10  O   UNL     1     -40.556 -52.054  13.243  1.00  0.00    -0.273 OA
HETATM   11  H   UNL     1     -43.109 -51.795  11.460  1.00  0.00     0.170 HD
BRANCH   9  12
HETATM   12  C   UNL     1     -42.175 -53.780  12.828  1.00  0.00     0.103 C 
BRANCH  12  13
HETATM   13  C   UNL     1     -43.709 -53.827  12.813  1.00  0.00     0.013 C 
BRANCH  13  14
HETATM   14  C   UNL     1     -44.341 -54.389  14.108  1.00  0.00    -0.022 C 
HETATM   15  C   UNL     1     -45.536 -55.297  13.824  1.00  0.00     0.009 C 
HETATM   16  C   UNL     1     -43.288 -55.135  14.927  1.00  0.00     0.009 C 
ENDBRANCH  13  14
ENDBRANCH  12  13
ENDBRANCH   9  12
ENDBRANCH   1   8
BRANCH   4  17
HETATM   17  N   UNL     1     -41.195 -46.079  12.194  1.00  0.00    -0.376 N 
HETATM   18  C   UNL     1     -42.150 -44.972  12.357  1.00  0.00     0.149 C 
HETATM   19  C   UNL     1     -42.256 -44.153  11.064  1.00  0.00     0.187 C 
HETATM   20  O   UNL     1     -40.968 -43.684  10.637  1.00  0.00    -0.388 OA
HETATM   21  C   UNL     1     -40.090 -44.796  10.387  1.00  0.00     0.187 C 
HETATM   22  C   UNL     1     -39.889 -45.660  11.647  1.00  0.00     0.149 C 
ENDBRANCH   4  17
TORSDOF 5
ENDMDL
MODEL 7
REMARK VINA RESULT:      -5.2      2.227      3.119
REMARK  5 active torsions:
REMARK  status: ('A' for Active; 'I' for Inactive)
REMARK    1  A    between atoms: C_2  and  C_4 
REMARK    2  A    between atoms: C_4  and  C_5 
REMARK    3  A    between atoms: C_5  and  C_6 
REMARK       I    between atoms: C_6  and  N_8 
REMARK    4  A    between atoms: N_8  and  C_9 
REMARK    5  A    between atoms: C_12  and  N_16 
ROOT
HETATM    1  C   UNL     1     -40.631 -49.432  11.272  1.00  0.00     0.107 A 
HETATM    2  C   UNL     1     -39.364 -49.686  11.775  1.00  0.00     0.051 A 
HETATM    3  C   UNL     1     -39.149 -50.866  12.485  1.00  0.00     0.034 A 
HETATM    4  C   UNL     1     -40.190 -51.768  12.719  1.00  0.00     0.046 A 
HETATM    5  C   UNL     1     -41.404 -51.421  12.112  1.00  0.00     0.119 A 
HETATM    6  N   UNL     1     -41.643 -50.306  11.370  1.00  0.00    -0.350 N 
ATOM      7  HN  UNL     1     -42.541 -50.145  10.913  1.00  0.00     0.166 HD
ENDROOT
BRANCH   1   8
HETATM    8  N   UNL     1     -40.923 -48.237  10.614  1.00  0.00    -0.313 N 
HETATM    9  C   UNL     1     -42.023 -47.479  10.946  1.00  0.00     0.223 C 
HETATM   10  O   UNL     1     -42.886 -47.822  11.756  1.00  0.00    -0.273 OA
HETATM   11  H   UNL     1     -40.605 -48.211   9.655  1.00  0.00     0.170 HD
BRANCH   9  12
HETATM   12  C   UNL     1     -42.115 -46.179  10.180  1.00  0.00     0.103 C 
BRANCH  12  13
HETATM   13  C   UNL     1     -41.906 -44.971  11.104  1.00  0.00     0.013 C 
BRANCH  13  14
HETATM   14  C   UNL     1     -40.425 -44.584  11.321  1.00  0.00    -0.022 C 
HETATM   15  C   UNL     1     -39.566 -44.859  10.089  1.00  0.00     0.009 C 
HETATM   16  C   UNL     1     -40.320 -43.114  11.727  1.00  0.00     0.009 C 
ENDBRANCH  13  14
ENDBRANCH  12  13
ENDBRANCH   9  12
ENDBRANCH   1   8
BRANCH   4  17
HETATM   17  N   UNL     1     -39.986 -52.913  13.462  1.00  0.00    -0.376 N 
HETATM   18  C   UNL     1     -40.815 -54.121  13.324  1.00  0.00     0.149 C 
HETATM   19  C   UNL     1     -41.655 -54.349  14.587  1.00  0.00     0.187 C 
HETATM   20  O   UNL     1     -40.828 -54.405  15.760  1.00  0.00    -0.388 OA
HETATM   21  C   UNL     1     -40.110 -53.170  15.922  1.00  0.00     0.187 C 
HETATM   22  C   UNL     1     -39.203 -52.873  14.714  1.00  0.00     0.149 C 
ENDBRANCH   4  17
TORSDOF 5
ENDMDL
MODEL 8
REMARK VINA RESULT:      -5.1      3.918      5.868
REMARK  5 active torsions:
REMARK  status: ('A' for Active; 'I' for Inactive)
REMARK    1  A    between atoms: C_2  and  C_4 
REMARK    2  A    between atoms: C_4  and  C_5 
REMARK    3  A    between atoms: C_5  and  C_6 
REMARK       I    between atoms: C_6  and  N_8 
REMARK    4  A    between atoms: N_8  and  C_9 
REMARK    5  A    between atoms: C_12  and  N_16 
ROOT
HETATM    1  C   UNL     1     -40.861 -52.083  12.978  1.00  0.00     0.107 A 
HETATM    2  C   UNL     1     -41.118 -53.446  12.968  1.00  0.00     0.051 A 
HETATM    3  C   UNL     1     -42.443 -53.877  12.957  1.00  0.00     0.034 A 
HETATM    4  C   UNL     1     -43.500 -52.965  12.986  1.00  0.00     0.046 A 
HETATM    5  C   UNL     1     -43.106 -51.621  12.939  1.00  0.00     0.119 A 
HETATM    6  N   UNL     1     -41.828 -51.158  12.898  1.00  0.00    -0.350 N 
ATOM      7  HN  UNL     1     -41.617 -50.164  12.812  1.00  0.00     0.166 HD
ENDROOT
BRANCH   1   8
HETATM    8  N   UNL     1     -39.557 -51.593  13.059  1.00  0.00    -0.313 N 
HETATM    9  C   UNL     1     -39.117 -50.573  12.247  1.00  0.00     0.223 C 
HETATM   10  O   UNL     1     -39.773 -50.082  11.327  1.00  0.00    -0.273 OA
HETATM   11  H   UNL     1     -38.880 -52.280  13.361  1.00  0.00     0.170 HD
BRANCH   9  12
HETATM   12  C   UNL     1     -37.704 -50.126  12.550  1.00  0.00     0.103 C 
BRANCH  12  13
HETATM   13  C   UNL     1     -37.692 -48.779  13.286  1.00  0.00     0.013 C 
BRANCH  13  14
HETATM   14  C   UNL     1     -37.529 -48.893  14.819  1.00  0.00    -0.022 C 
HETATM   15  C   UNL     1     -36.929 -50.232  15.242  1.00  0.00     0.009 C 
HETATM   16  C   UNL     1     -36.679 -47.737  15.345  1.00  0.00     0.009 C 
ENDBRANCH  13  14
ENDBRANCH  12  13
ENDBRANCH   9  12
ENDBRANCH   1   8
BRANCH   4  17
HETATM   17  N   UNL     1     -44.811 -53.395  13.023  1.00  0.00    -0.376 N 
HETATM   18  C   UNL     1     -45.957 -52.502  12.790  1.00  0.00     0.149 C 
HETATM   19  C   UNL     1     -46.768 -52.315  14.080  1.00  0.00     0.187 C 
HETATM   20  O   UNL     1     -47.181 -53.578  14.624  1.00  0.00    -0.388 OA
HETATM   21  C   UNL     1     -46.033 -54.386  14.935  1.00  0.00     0.187 C 
HETATM   22  C   UNL     1     -45.173 -54.663  13.688  1.00  0.00     0.149 C 
ENDBRANCH   4  17
TORSDOF 5
ENDMDL
MODEL 9
REMARK VINA RESULT:      -5.0      3.833      5.746
REMARK  5 active torsions:
REMARK  status: ('A' for Active; 'I' for Inactive)
REMARK    1  A    between atoms: C_2  and  C_4 
REMARK    2  A    between atoms: C_4  and  C_5 
REMARK    3  A    between atoms: C_5  and  C_6 
REMARK       I    between atoms: C_6  and  N_8 
REMARK    4  A    between atoms: N_8  and  C_9 
REMARK    5  A    between atoms: C_12  and  N_16 
ROOT
HETATM    1  C   UNL     1     -41.442 -51.836  12.372  1.00  0.00     0.107 A 
HETATM    2  C   UNL     1     -41.199 -50.552  11.909  1.00  0.00     0.051 A 
HETATM    3  C   UNL     1     -40.022 -49.913  12.295  1.00  0.00     0.034 A 
HETATM    4  C   UNL     1     -39.113 -50.531  13.157  1.00  0.00     0.046 A 
HETATM    5  C   UNL     1     -39.451 -51.845  13.508  1.00  0.00     0.119 A 
HETATM    6  N   UNL     1     -40.561 -52.524  13.113  1.00  0.00    -0.350 N 
ATOM      7  HN  UNL     1     -40.715 -53.499  13.367  1.00  0.00     0.166 HD
ENDROOT
BRANCH   1   8
HETATM    8  N   UNL     1     -42.634 -52.499  12.076  1.00  0.00    -0.313 N 
HETATM    9  C   UNL     1     -43.520 -52.867  13.062  1.00  0.00     0.223 C 
HETATM   10  O   UNL     1     -43.308 -52.747  14.270  1.00  0.00    -0.273 OA
HETATM   11  H   UNL     1     -42.585 -53.076  11.247  1.00  0.00     0.170 HD
BRANCH   9  12
HETATM   12  C   UNL     1     -44.790 -53.493  12.531  1.00  0.00     0.103 C 
BRANCH  12  13
HETATM   13  C   UNL     1     -45.964 -52.507  12.587  1.00  0.00     0.013 C 
BRANCH  13  14
HETATM   14  C   UNL     1     -46.807 -52.593  13.880  1.00  0.00    -0.022 C 
HETATM   15  C   UNL     1     -46.553 -53.885  14.654  1.00  0.00     0.009 C 
HETATM   16  C   UNL     1     -46.535 -51.378  14.767  1.00  0.00     0.009 C 
ENDBRANCH  13  14
ENDBRANCH  12  13
ENDBRANCH   9  12
ENDBRANCH   1   8
BRANCH   4  17
HETATM   17  N   UNL     1     -37.972 -49.878  13.576  1.00  0.00    -0.376 N 
HETATM   18  C   UNL     1     -37.131 -50.358  14.684  1.00  0.00     0.149 C 
HETATM   19  C   UNL     1     -37.216 -49.401  15.881  1.00  0.00     0.187 C 
HETATM   20  O   UNL     1     -36.876 -48.059  15.501  1.00  0.00    -0.388 OA
HETATM   21  C   UNL     1     -37.781 -47.584  14.489  1.00  0.00     0.187 C 
HETATM   22  C   UNL     1     -37.738 -48.463  13.225  1.00  0.00     0.149 C 
ENDBRANCH   4  17
TORSDOF 5
ENDMDL
