MODEL 1
REMARK VINA RESULT:      -6.1      0.000      0.000
REMARK  6 active torsions:
REMARK  status: ('A' for Active; 'I' for Inactive)
REMARK    1  A    between atoms: O_2  and  C_3 
REMARK    2  A    between atoms: C_3  and  C_4 
REMARK    3  A    between atoms: C_4  and  N_5 
REMARK    4  A    between atoms: C_6  and  S_7 
REMARK    5  A    between atoms: S_7  and  C_8 
REMARK    6  A    between atoms: C_8  and  C_9 
REMARK       I    between atoms: C_9  and  N_11 
ROOT
HETATM    1  N   UNL     1     -41.316 -52.515  13.656  1.00  0.00    -0.324 N 
HETATM    2  C   UNL     1     -41.518 -51.895  12.446  1.00  0.00     0.148 A 
HETATM    3  N   UNL     1     -42.623 -52.297  11.863  1.00  0.00    -0.335 N 
ATOM      4  HN  UNL     1     -42.993 -51.996  10.961  1.00  0.00     0.168 HD
HETATM    5  C   UNL     1     -43.175 -53.209  12.726  1.00  0.00     0.061 A 
HETATM    6  C   UNL     1     -44.358 -53.953  12.603  1.00  0.00     0.032 A 
HETATM    7  C   UNL     1     -44.718 -54.832  13.633  1.00  0.00     0.002 A 
HETATM    8  C   UNL     1     -43.921 -54.962  14.770  1.00  0.00     0.002 A 
HETATM    9  C   UNL     1     -42.743 -54.223  14.915  1.00  0.00     0.032 A 
HETATM   10  C   UNL     1     -42.390 -53.360  13.867  1.00  0.00     0.063 A 
ENDROOT
BRANCH   2  11
HETATM   11  S   UNL     1     -40.425 -50.732  11.766  1.00  0.00    -0.084 SA
BRANCH  11  12
HETATM   12  C   UNL     1     -41.038 -49.191  12.527  1.00  0.00     0.185 C 
BRANCH  12  13
HETATM   13  C   UNL     1     -42.392 -48.768  11.963  1.00  0.00     0.237 C 
HETATM   14  O   UNL     1     -43.469 -49.115  12.459  1.00  0.00    -0.272 OA
HETATM   15  N   UNL     1     -42.362 -47.876  10.895  1.00  0.00    -0.268 N 
HETATM   16  C   UNL     1     -43.581 -47.518  10.201  1.00  0.00     0.156 A 
HETATM   17  C   UNL     1     -41.354 -46.944  10.604  1.00  0.00     0.325 A 
HETATM   18  C   UNL     1     -43.248 -46.256   9.422  1.00  0.00     0.145 A 
HETATM   19  N   UNL     1     -41.864 -46.020   9.709  1.00  0.00    -0.341 N 
HETATM   20  H   UNL     1     -41.314 -45.223   9.414  1.00  0.00     0.164 HD
HETATM   21  O   UNL     1     -40.213 -46.907  11.032  1.00  0.00    -0.247 OA
ENDBRANCH  12  13
ENDBRANCH  11  12
ENDBRANCH   2  11
BRANCH   1  22
HETATM   22  C   UNL     1     -40.241 -52.312  14.608  1.00  0.00     0.157 C 
BRANCH  22  23
HETATM   23  C   UNL     1     -38.883 -52.808  14.115  1.00  0.00     0.187 C 
BRANCH  23  24
HETATM   24  O   UNL     1     -38.998 -54.190  13.766  1.00  0.00    -0.394 OA
HETATM   25  C   UNL     1     -38.998 -55.026  14.917  1.00  0.00     0.201 C 
ENDBRANCH  23  24
ENDBRANCH  22  23
ENDBRANCH   1  22
TORSDOF 6
ENDMDL
MODEL 2
REMARK VINA RESULT:      -6.0      2.587      6.586
REMARK  6 active torsions:
REMARK  status: ('A' for Active; 'I' for Inactive)
REMARK    1  A    between atoms: O_2  and  C_3 
REMARK    2  A    between atoms: C_3  and  C_4 
REMARK    3  A    between atoms: C_4  and  N_5 
REMARK    4  A    between atoms: C_6  and  S_7 
REMARK    5  A    between atoms: S_7  and  C_8 
REMARK    6  A    between atoms: C_8  and  C_9 
REMARK       I    between atoms: C_9  and  N_11 
ROOT
HETATM    1  N   UNL     1     -40.110 -49.174  11.933  1.00  0.00    -0.324 N 
HETATM    2  C   UNL     1     -41.111 -50.115  11.889  1.00  0.00     0.148 A 
HETATM    3  N   UNL     1     -42.222 -49.631  11.384  1.00  0.00    -0.335 N 
ATOM      4  HN  UNL     1     -43.106 -50.121  11.250  1.00  0.00     0.168 HD
HETATM    5  C   UNL     1     -41.939 -48.325  11.075  1.00  0.00     0.061 A 
HETATM    6  C   UNL     1     -42.765 -47.341  10.512  1.00  0.00     0.032 A 
HETATM    7  C   UNL     1     -42.241 -46.061  10.286  1.00  0.00     0.002 A 
HETATM    8  C   UNL     1     -40.915 -45.768  10.604  1.00  0.00     0.002 A 
HETATM    9  C   UNL     1     -40.073 -46.737  11.158  1.00  0.00     0.032 A 
HETATM   10  C   UNL     1     -40.620 -48.008  11.393  1.00  0.00     0.063 A 
ENDROOT
BRANCH   2  11
HETATM   11  S   UNL     1     -40.927 -51.744  12.454  1.00  0.00    -0.084 SA
BRANCH  11  12
HETATM   12  C   UNL     1     -42.669 -52.275  12.559  1.00  0.00     0.185 C 
BRANCH  12  13
HETATM   13  C   UNL     1     -43.096 -52.567  13.995  1.00  0.00     0.237 C 
HETATM   14  O   UNL     1     -42.524 -52.091  14.981  1.00  0.00    -0.272 OA
HETATM   15  N   UNL     1     -44.245 -53.337  14.151  1.00  0.00    -0.268 N 
HETATM   16  C   UNL     1     -44.659 -53.785  15.465  1.00  0.00     0.156 A 
HETATM   17  C   UNL     1     -45.315 -53.446  13.249  1.00  0.00     0.325 A 
HETATM   18  C   UNL     1     -46.112 -54.202  15.310  1.00  0.00     0.145 A 
HETATM   19  N   UNL     1     -46.394 -53.992  13.921  1.00  0.00    -0.341 N 
HETATM   20  H   UNL     1     -47.291 -54.100  13.465  1.00  0.00     0.164 HD
HETATM   21  O   UNL     1     -45.344 -53.134  12.071  1.00  0.00    -0.247 OA
ENDBRANCH  12  13
ENDBRANCH  11  12
ENDBRANCH   2  11
BRANCH   1  22
HETATM   22  C   UNL     1     -38.740 -49.332  12.382  1.00  0.00     0.157 C 
BRANCH  22  23
HETATM   23  C   UNL     1     -37.794 -49.846  11.298  1.00  0.00     0.187 C 
BRANCH  23  24
HETATM   24  O   UNL     1     -37.241 -51.094  11.726  1.00  0.00    -0.394 OA
HETATM   25  C   UNL     1     -37.247 -51.215  13.143  1.00  0.00     0.201 C 
ENDBRANCH  23  24
ENDBRANCH  22  23
ENDBRANCH   1  22
TORSDOF 6
ENDMDL
MODEL 3
REMARK VINA RESULT:      -5.9      1.876      2.517
REMARK  6 active torsions:
REMARK  status: ('A' for Active; 'I' for Inactive)
REMARK    1  A    between atoms: O_2  and  C_3 
REMARK    2  A    between atoms: C_3  and  C_4 
REMARK    3  A    between atoms: C_4  and  N_5 
REMARK    4  A    between atoms: C_6  and  S_7 
REMARK    5  A    between atoms: S_7  and  C_8 
REMARK    6  A    between atoms: C_8  and  C_9 
REMARK       I    between atoms: C_9  and  N_11 
ROOT
HETATM    1  N   UNL     1     -42.322 -51.952  13.098  1.00  0.00    -0.324 N 
HETATM    2  C   UNL     1     -41.992 -50.964  13.995  1.00  0.00     0.148 A 
HETATM    3  N   UNL     1     -43.048 -50.474  14.602  1.00  0.00    -0.335 N 
ATOM      4  HN  UNL     1     -43.072 -49.733  15.302  1.00  0.00     0.168 HD
HETATM    5  C   UNL     1     -44.113 -51.173  14.092  1.00  0.00     0.061 A 
HETATM    6  C   UNL     1     -45.480 -51.058  14.385  1.00  0.00     0.032 A 
HETATM    7  C   UNL     1     -46.390 -51.895  13.726  1.00  0.00     0.002 A 
HETATM    8  C   UNL     1     -45.947 -52.839  12.800  1.00  0.00     0.002 A 
HETATM    9  C   UNL     1     -44.588 -52.975  12.500  1.00  0.00     0.032 A 
HETATM   10  C   UNL     1     -43.693 -52.116  13.157  1.00  0.00     0.063 A 
ENDROOT
BRANCH   2  11
HETATM   11  S   UNL     1     -40.369 -50.419  14.274  1.00  0.00    -0.084 SA
BRANCH  11  12
HETATM   12  C   UNL     1     -40.410 -48.778  13.476  1.00  0.00     0.185 C 
BRANCH  12  13
HETATM   13  C   UNL     1     -40.693 -48.873  11.979  1.00  0.00     0.237 C 
HETATM   14  O   UNL     1     -40.107 -49.662  11.229  1.00  0.00    -0.272 OA
HETATM   15  N   UNL     1     -41.730 -48.079  11.498  1.00  0.00    -0.268 N 
HETATM   16  C   UNL     1     -41.990 -47.992  10.075  1.00  0.00     0.156 A 
HETATM   17  C   UNL     1     -42.843 -47.620  12.218  1.00  0.00     0.325 A 
HETATM   18  C   UNL     1     -43.392 -47.418   9.956  1.00  0.00     0.145 A 
HETATM   19  N   UNL     1     -43.799 -47.196  11.311  1.00  0.00    -0.341 N 
HETATM   20  H   UNL     1     -44.709 -46.881  11.624  1.00  0.00     0.164 HD
HETATM   21  O   UNL     1     -42.996 -47.577  13.426  1.00  0.00    -0.247 OA
ENDBRANCH  12  13
ENDBRANCH  11  12
ENDBRANCH   2  11
BRANCH   1  22
HETATM   22  C   UNL     1     -41.441 -52.753  12.271  1.00  0.00     0.157 C 
BRANCH  22  23
HETATM   23  C   UNL     1     -40.925 -54.013  12.965  1.00  0.00     0.187 C 
BRANCH  23  24
HETATM   24  O   UNL     1     -39.542 -53.829  13.282  1.00  0.00    -0.394 OA
HETATM   25  C   UNL     1     -39.236 -54.292  14.592  1.00  0.00     0.201 C 
ENDBRANCH  23  24
ENDBRANCH  22  23
ENDBRANCH   1  22
TORSDOF 6
ENDMDL
MODEL 4
REMARK VINA RESULT:      -5.7      1.284      1.921
REMARK  6 active torsions:
REMARK  status: ('A' for Active; 'I' for Inactive)
REMARK    1  A    between atoms: O_2  and  C_3 
REMARK    2  A    between atoms: C_3  and  C_4 
REMARK    3  A    between atoms: C_4  and  N_5 
REMARK    4  A    between atoms: C_6  and  S_7 
REMARK    5  A    between atoms: S_7  and  C_8 
REMARK    6  A    between atoms: C_8  and  C_9 
REMARK       I    between atoms: C_9  and  N_11 
ROOT
HETATM    1  N   UNL     1     -41.573 -52.598  13.619  1.00  0.00    -0.324 N 
HETATM    2  C   UNL     1     -41.848 -51.957  12.435  1.00  0.00     0.148 A 
HETATM    3  N   UNL     1     -42.968 -52.378  11.893  1.00  0.00    -0.335 N 
ATOM      4  HN  UNL     1     -43.387 -52.067  11.017  1.00  0.00     0.168 HD
HETATM    5  C   UNL     1     -43.453 -53.325  12.758  1.00  0.00     0.061 A 
HETATM    6  C   UNL     1     -44.619 -54.100  12.672  1.00  0.00     0.032 A 
HETATM    7  C   UNL     1     -44.906 -55.013  13.696  1.00  0.00     0.002 A 
HETATM    8  C   UNL     1     -44.054 -55.145  14.792  1.00  0.00     0.002 A 
HETATM    9  C   UNL     1     -42.892 -54.375  14.901  1.00  0.00     0.032 A 
HETATM   10  C   UNL     1     -42.612 -53.479  13.858  1.00  0.00     0.063 A 
ENDROOT
BRANCH   2  11
HETATM   11  S   UNL     1     -40.822 -50.747  11.733  1.00  0.00    -0.084 SA
BRANCH  11  12
HETATM   12  C   UNL     1     -41.410 -49.249  12.593  1.00  0.00     0.185 C 
BRANCH  12  13
HETATM   13  C   UNL     1     -40.393 -48.113  12.531  1.00  0.00     0.237 C 
HETATM   14  O   UNL     1     -39.300 -48.152  13.106  1.00  0.00    -0.272 OA
HETATM   15  N   UNL     1     -40.716 -47.043  11.702  1.00  0.00    -0.268 N 
HETATM   16  C   UNL     1     -39.886 -45.855  11.677  1.00  0.00     0.156 A 
HETATM   17  C   UNL     1     -41.542 -47.075  10.569  1.00  0.00     0.325 A 
HETATM   18  C   UNL     1     -40.274 -45.120  10.404  1.00  0.00     0.145 A 
HETATM   19  N   UNL     1     -41.310 -45.926   9.831  1.00  0.00    -0.341 N 
HETATM   20  H   UNL     1     -41.763 -45.780   8.938  1.00  0.00     0.164 HD
HETATM   21  O   UNL     1     -42.342 -47.933  10.241  1.00  0.00    -0.247 OA
ENDBRANCH  12  13
ENDBRANCH  11  12
ENDBRANCH   2  11
BRANCH   1  22
HETATM   22  C   UNL     1     -40.461 -52.385  14.525  1.00  0.00     0.157 C 
BRANCH  22  23
HETATM   23  C   UNL     1     -39.241 -53.249  14.214  1.00  0.00     0.187 C 
BRANCH  23  24
HETATM   24  O   UNL     1     -38.294 -52.461  13.486  1.00  0.00    -0.394 OA
HETATM   25  C   UNL     1     -38.037 -51.219  14.131  1.00  0.00     0.201 C 
ENDBRANCH  23  24
ENDBRANCH  22  23
ENDBRANCH   1  22
TORSDOF 6
ENDMDL
MODEL 5
REMARK VINA RESULT:      -5.6      3.985      5.936
REMARK  6 active torsions:
REMARK  status: ('A' for Active; 'I' for Inactive)
REMARK    1  A    between atoms: O_2  and  C_3 
REMARK    2  A    between atoms: C_3  and  C_4 
REMARK    3  A    between atoms: C_4  and  N_5 
REMARK    4  A    between atoms: C_6  and  S_7 
REMARK    5  A    between atoms: S_7  and  C_8 
REMARK    6  A    between atoms: C_8  and  C_9 
REMARK       I    between atoms: C_9  and  N_11 
ROOT
HETATM    1  N   UNL     1     -40.599 -54.595  14.691  1.00  0.00    -0.324 N 
HETATM    2  C   UNL     1     -41.957 -54.500  14.500  1.00  0.00     0.148 A 
HETATM    3  N   UNL     1     -42.633 -55.087  15.461  1.00  0.00    -0.335 N 
ATOM      4  HN  UNL     1     -43.647 -55.161  15.549  1.00  0.00     0.168 HD
HETATM    5  C   UNL     1     -41.685 -55.578  16.321  1.00  0.00     0.061 A 
HETATM    6  C   UNL     1     -41.848 -56.296  17.516  1.00  0.00     0.032 A 
HETATM    7  C   UNL     1     -40.711 -56.694  18.231  1.00  0.00     0.002 A 
HETATM    8  C   UNL     1     -39.433 -56.374  17.772  1.00  0.00     0.002 A 
HETATM    9  C   UNL     1     -39.250 -55.652  16.589  1.00  0.00     0.032 A 
HETATM   10  C   UNL     1     -40.399 -55.276  15.878  1.00  0.00     0.063 A 
ENDROOT
BRANCH   2  11
HETATM   11  S   UNL     1     -42.686 -53.713  13.138  1.00  0.00    -0.084 SA
BRANCH  11  12
HETATM   12  C   UNL     1     -44.399 -54.329  13.254  1.00  0.00     0.185 C 
BRANCH  12  13
HETATM   13  C   UNL     1     -45.423 -53.199  13.181  1.00  0.00     0.237 C 
HETATM   14  O   UNL     1     -45.931 -52.815  12.122  1.00  0.00    -0.272 OA
HETATM   15  N   UNL     1     -45.843 -52.670  14.398  1.00  0.00    -0.268 N 
HETATM   16  C   UNL     1     -46.707 -51.508  14.436  1.00  0.00     0.156 A 
HETATM   17  C   UNL     1     -45.867 -53.325  15.638  1.00  0.00     0.325 A 
HETATM   18  C   UNL     1     -47.286 -51.480  15.841  1.00  0.00     0.145 A 
HETATM   19  N   UNL     1     -46.681 -52.603  16.494  1.00  0.00    -0.341 N 
HETATM   20  H   UNL     1     -46.883 -52.938  17.427  1.00  0.00     0.164 HD
HETATM   21  O   UNL     1     -45.292 -54.349  15.963  1.00  0.00    -0.247 OA
ENDBRANCH  12  13
ENDBRANCH  11  12
ENDBRANCH   2  11
BRANCH   1  22
HETATM   22  C   UNL     1     -39.531 -54.046  13.878  1.00  0.00     0.157 C 
BRANCH  22  23
HETATM   23  C   UNL     1     -39.125 -52.627  14.274  1.00  0.00     0.187 C 
BRANCH  23  24
HETATM   24  O   UNL     1     -38.695 -51.929  13.101  1.00  0.00    -0.394 OA
HETATM   25  C   UNL     1     -39.757 -51.190  12.509  1.00  0.00     0.201 C 
ENDBRANCH  23  24
ENDBRANCH  22  23
ENDBRANCH   1  22
TORSDOF 6
ENDMDL
MODEL 6
REMARK VINA RESULT:      -5.6      2.177      6.197
REMARK  6 active torsions:
REMARK  status: ('A' for Active; 'I' for Inactive)
REMARK    1  A    between atoms: O_2  and  C_3 
REMARK    2  A    between atoms: C_3  and  C_4 
REMARK    3  A    between atoms: C_4  and  N_5 
REMARK    4  A    between atoms: C_6  and  S_7 
REMARK    5  A    between atoms: S_7  and  C_8 
REMARK    6  A    between atoms: C_8  and  C_9 
REMARK       I    between atoms: C_9  and  N_11 
ROOT
HETATM    1  N   UNL     1     -39.759 -48.939  11.961  1.00  0.00    -0.324 N 
HETATM    2  C   UNL     1     -40.572 -50.043  11.869  1.00  0.00     0.148 A 
HETATM    3  N   UNL     1     -41.710 -49.771  11.272  1.00  0.00    -0.335 N 
ATOM      4  HN  UNL     1     -42.481 -50.413  11.087  1.00  0.00     0.168 HD
HETATM    5  C   UNL     1     -41.638 -48.440  10.951  1.00  0.00     0.061 A 
HETATM    6  C   UNL     1     -42.580 -47.626  10.304  1.00  0.00     0.032 A 
HETATM    7  C   UNL     1     -42.274 -46.276  10.083  1.00  0.00     0.002 A 
HETATM    8  C   UNL     1     -41.049 -45.748  10.489  1.00  0.00     0.002 A 
HETATM    9  C   UNL     1     -40.094 -46.545  11.127  1.00  0.00     0.032 A 
HETATM   10  C   UNL     1     -40.424 -47.890  11.355  1.00  0.00     0.063 A 
ENDROOT
BRANCH   2  11
HETATM   11  S   UNL     1     -40.147 -51.607  12.489  1.00  0.00    -0.084 SA
BRANCH  11  12
HETATM   12  C   UNL     1     -41.357 -51.786  13.843  1.00  0.00     0.185 C 
BRANCH  12  13
HETATM   13  C   UNL     1     -42.397 -52.864  13.547  1.00  0.00     0.237 C 
HETATM   14  O   UNL     1     -42.227 -54.058  13.815  1.00  0.00    -0.272 OA
HETATM   15  N   UNL     1     -43.613 -52.421  13.036  1.00  0.00    -0.268 N 
HETATM   16  C   UNL     1     -44.615 -53.370  12.596  1.00  0.00     0.156 A 
HETATM   17  C   UNL     1     -44.198 -51.160  13.228  1.00  0.00     0.325 A 
HETATM   18  C   UNL     1     -45.911 -52.581  12.516  1.00  0.00     0.145 A 
HETATM   19  N   UNL     1     -45.536 -51.248  12.883  1.00  0.00    -0.341 N 
HETATM   20  H   UNL     1     -46.158 -50.458  13.006  1.00  0.00     0.164 HD
HETATM   21  O   UNL     1     -43.672 -50.135  13.623  1.00  0.00    -0.247 OA
ENDBRANCH  12  13
ENDBRANCH  11  12
ENDBRANCH   2  11
BRANCH   1  22
HETATM   22  C   UNL     1     -38.421 -48.845  12.512  1.00  0.00     0.157 C 
BRANCH  22  23
HETATM   23  C   UNL     1     -38.393 -48.555  14.012  1.00  0.00     0.187 C 
BRANCH  23  24
HETATM   24  O   UNL     1     -38.374 -47.138  14.206  1.00  0.00    -0.394 OA
HETATM   25  C   UNL     1     -39.520 -46.688  14.919  1.00  0.00     0.201 C 
ENDBRANCH  23  24
ENDBRANCH  22  23
ENDBRANCH   1  22
TORSDOF 6
ENDMDL
MODEL 7
REMARK VINA RESULT:      -5.6      2.253      3.461
REMARK  6 active torsions:
REMARK  status: ('A' for Active; 'I' for Inactive)
REMARK    1  A    between atoms: O_2  and  C_3 
REMARK    2  A    between atoms: C_3  and  C_4 
REMARK    3  A    between atoms: C_4  and  N_5 
REMARK    4  A    between atoms: C_6  and  S_7 
REMARK    5  A    between atoms: S_7  and  C_8 
REMARK    6  A    between atoms: C_8  and  C_9 
REMARK       I    between atoms: C_9  and  N_11 
ROOT
HETATM    1  N   UNL     1     -38.668 -51.008  13.358  1.00  0.00    -0.324 N 
HETATM    2  C   UNL     1     -39.265 -50.336  12.319  1.00  0.00     0.148 A 
HETATM    3  N   UNL     1     -40.302 -50.984  11.841  1.00  0.00    -0.335 N 
ATOM      4  HN  UNL     1     -40.908 -50.702  11.070  1.00  0.00     0.168 HD
HETATM    5  C   UNL     1     -40.397 -52.122  12.601  1.00  0.00     0.061 A 
HETATM    6  C   UNL     1     -41.322 -53.173  12.523  1.00  0.00     0.032 A 
HETATM    7  C   UNL     1     -41.214 -54.242  13.423  1.00  0.00     0.002 A 
HETATM    8  C   UNL     1     -40.210 -54.260  14.390  1.00  0.00     0.002 A 
HETATM    9  C   UNL     1     -39.284 -53.217  14.490  1.00  0.00     0.032 A 
HETATM   10  C   UNL     1     -39.397 -52.163  13.570  1.00  0.00     0.063 A 
ENDROOT
BRANCH   2  11
HETATM   11  S   UNL     1     -38.698 -48.817  11.702  1.00  0.00    -0.084 SA
BRANCH  11  12
HETATM   12  C   UNL     1     -40.008 -47.691  12.289  1.00  0.00     0.185 C 
BRANCH  12  13
HETATM   13  C   UNL     1     -40.525 -46.779  11.180  1.00  0.00     0.237 C 
HETATM   14  O   UNL     1     -39.795 -46.015  10.539  1.00  0.00    -0.272 OA
HETATM   15  N   UNL     1     -41.869 -46.917  10.846  1.00  0.00    -0.268 N 
HETATM   16  C   UNL     1     -42.490 -46.009   9.904  1.00  0.00     0.156 A 
HETATM   17  C   UNL     1     -42.662 -48.065  11.000  1.00  0.00     0.325 A 
HETATM   18  C   UNL     1     -43.776 -46.693   9.471  1.00  0.00     0.145 A 
HETATM   19  N   UNL     1     -43.798 -47.912  10.224  1.00  0.00    -0.341 N 
HETATM   20  H   UNL     1     -44.478 -48.658  10.145  1.00  0.00     0.164 HD
HETATM   21  O   UNL     1     -42.441 -49.050  11.682  1.00  0.00    -0.247 OA
ENDBRANCH  12  13
ENDBRANCH  11  12
ENDBRANCH   2  11
BRANCH   1  22
HETATM   22  C   UNL     1     -37.532 -50.603  14.163  1.00  0.00     0.157 C 
BRANCH  22  23
HETATM   23  C   UNL     1     -37.921 -49.971  15.499  1.00  0.00     0.187 C 
BRANCH  23  24
HETATM   24  O   UNL     1     -38.252 -48.598  15.278  1.00  0.00    -0.394 OA
HETATM   25  C   UNL     1     -37.092 -47.805  15.053  1.00  0.00     0.201 C 
ENDBRANCH  23  24
ENDBRANCH  22  23
ENDBRANCH   1  22
TORSDOF 6
ENDMDL
MODEL 8
REMARK VINA RESULT:      -5.6      1.315      2.045
REMARK  6 active torsions:
REMARK  status: ('A' for Active; 'I' for Inactive)
REMARK    1  A    between atoms: O_2  and  C_3 
REMARK    2  A    between atoms: C_3  and  C_4 
REMARK    3  A    between atoms: C_4  and  N_5 
REMARK    4  A    between atoms: C_6  and  S_7 
REMARK    5  A    between atoms: S_7  and  C_8 
REMARK    6  A    between atoms: C_8  and  C_9 
REMARK       I    between atoms: C_9  and  N_11 
ROOT
HETATM    1  N   UNL     1     -41.052 -53.312  14.338  1.00  0.00    -0.324 N 
HETATM    2  C   UNL     1     -40.933 -52.344  13.370  1.00  0.00     0.148 A 
HETATM    3  N   UNL     1     -41.998 -52.276  12.604  1.00  0.00    -0.335 N 
ATOM      4  HN  UNL     1     -42.155 -51.649  11.815  1.00  0.00     0.168 HD
HETATM    5  C   UNL     1     -42.854 -53.229  13.093  1.00  0.00     0.061 A 
HETATM    6  C   UNL     1     -44.136 -53.589  12.651  1.00  0.00     0.032 A 
HETATM    7  C   UNL     1     -44.826 -54.607  13.323  1.00  0.00     0.002 A 
HETATM    8  C   UNL     1     -44.255 -55.249  14.422  1.00  0.00     0.002 A 
HETATM    9  C   UNL     1     -42.983 -54.898  14.883  1.00  0.00     0.032 A 
HETATM   10  C   UNL     1     -42.300 -53.888  14.188  1.00  0.00     0.063 A 
ENDROOT
BRANCH   2  11
HETATM   11  S   UNL     1     -39.529 -51.344  13.175  1.00  0.00    -0.084 SA
BRANCH  11  12
HETATM   12  C   UNL     1     -40.238 -49.688  13.461  1.00  0.00     0.185 C 
BRANCH  12  13
HETATM   13  C   UNL     1     -40.119 -48.790  12.231  1.00  0.00     0.237 C 
HETATM   14  O   UNL     1     -39.056 -48.606  11.629  1.00  0.00    -0.272 OA
HETATM   15  N   UNL     1     -41.307 -48.249  11.748  1.00  0.00    -0.268 N 
HETATM   16  C   UNL     1     -41.290 -47.279  10.673  1.00  0.00     0.156 A 
HETATM   17  C   UNL     1     -42.596 -48.786  11.888  1.00  0.00     0.325 A 
HETATM   18  C   UNL     1     -42.712 -47.243  10.138  1.00  0.00     0.145 A 
HETATM   19  N   UNL     1     -43.426 -48.165  10.971  1.00  0.00    -0.341 N 
HETATM   20  H   UNL     1     -44.391 -48.451  10.865  1.00  0.00     0.164 HD
HETATM   21  O   UNL     1     -42.976 -49.646  12.664  1.00  0.00    -0.247 OA
ENDBRANCH  12  13
ENDBRANCH  11  12
ENDBRANCH   2  11
BRANCH   1  22
HETATM   22  C   UNL     1     -40.115 -53.661  15.387  1.00  0.00     0.157 C 
BRANCH  22  23
HETATM   23  C   UNL     1     -39.029 -54.640  14.941  1.00  0.00     0.187 C 
BRANCH  23  24
HETATM   24  O   UNL     1     -39.205 -55.872  15.645  1.00  0.00    -0.394 OA
HETATM   25  C   UNL     1     -39.684 -55.660  16.968  1.00  0.00     0.201 C 
ENDBRANCH  23  24
ENDBRANCH  22  23
ENDBRANCH   1  22
TORSDOF 6
ENDMDL
MODEL 9
REMARK VINA RESULT:      -5.5      4.408      6.017
REMARK  6 active torsions:
REMARK  status: ('A' for Active; 'I' for Inactive)
REMARK    1  A    between atoms: O_2  and  C_3 
REMARK    2  A    between atoms: C_3  and  C_4 
REMARK    3  A    between atoms: C_4  and  N_5 
REMARK    4  A    between atoms: C_6  and  S_7 
REMARK    5  A    between atoms: S_7  and  C_8 
REMARK    6  A    between atoms: C_8  and  C_9 
REMARK       I    between atoms: C_9  and  N_11 
ROOT
HETATM    1  N   UNL     1     -39.171 -46.956  13.403  1.00  0.00    -0.324 N 
HETATM    2  C   UNL     1     -40.118 -47.114  12.419  1.00  0.00     0.148 A 
HETATM    3  N   UNL     1     -40.146 -48.342  11.952  1.00  0.00    -0.335 N 
ATOM      4  HN  UNL     1     -40.751 -48.711  11.219  1.00  0.00     0.168 HD
HETATM    5  C   UNL     1     -39.188 -49.019  12.662  1.00  0.00     0.061 A 
HETATM    6  C   UNL     1     -38.792 -50.362  12.572  1.00  0.00     0.032 A 
HETATM    7  C   UNL     1     -37.777 -50.830  13.417  1.00  0.00     0.002 A 
HETATM    8  C   UNL     1     -37.174 -49.980  14.344  1.00  0.00     0.002 A 
HETATM    9  C   UNL     1     -37.560 -48.641  14.455  1.00  0.00     0.032 A 
HETATM   10  C   UNL     1     -38.567 -48.186  13.590  1.00  0.00     0.063 A 
ENDROOT
BRANCH   2  11
HETATM   11  S   UNL     1     -41.140 -45.833  11.851  1.00  0.00    -0.084 SA
BRANCH  11  12
HETATM   12  C   UNL     1     -41.768 -46.551  10.296  1.00  0.00     0.185 C 
BRANCH  12  13
HETATM   13  C   UNL     1     -43.043 -47.364  10.510  1.00  0.00     0.237 C 
HETATM   14  O   UNL     1     -43.162 -48.213  11.400  1.00  0.00    -0.272 OA
HETATM   15  N   UNL     1     -44.126 -47.034   9.700  1.00  0.00    -0.268 N 
HETATM   16  C   UNL     1     -45.335 -47.831   9.728  1.00  0.00     0.156 A 
HETATM   17  C   UNL     1     -44.385 -45.789   9.107  1.00  0.00     0.325 A 
HETATM   18  C   UNL     1     -46.403 -46.966   9.080  1.00  0.00     0.145 A 
HETATM   19  N   UNL     1     -45.711 -45.768   8.708  1.00  0.00    -0.341 N 
HETATM   20  H   UNL     1     -46.121 -44.933   8.309  1.00  0.00     0.164 HD
HETATM   21  O   UNL     1     -43.619 -44.856   8.943  1.00  0.00    -0.247 OA
ENDBRANCH  12  13
ENDBRANCH  11  12
ENDBRANCH   2  11
BRANCH   1  22
HETATM   22  C   UNL     1     -38.866 -45.772  14.182  1.00  0.00     0.157 C 
BRANCH  22  23
HETATM   23  C   UNL     1     -39.761 -45.595  15.407  1.00  0.00     0.187 C 
BRANCH  23  24
HETATM   24  O   UNL     1     -39.655 -44.242  15.860  1.00  0.00    -0.394 OA
HETATM   25  C   UNL     1     -39.640 -44.163  17.281  1.00  0.00     0.201 C 
ENDBRANCH  23  24
ENDBRANCH  22  23
ENDBRANCH   1  22
TORSDOF 6
ENDMDL
