MODEL 1
REMARK VINA RESULT:      -6.2      0.000      0.000
REMARK  5 active torsions:
REMARK  status: ('A' for Active; 'I' for Inactive)
REMARK    1  A    between atoms: C_2  and  C_3 
REMARK    2  A    between atoms: C_2  and  C_17 
REMARK    3  A    between atoms: C_3  and  N_4 
REMARK       I    between atoms: N_4  and  C_5 
REMARK       I    between atoms: C_5  and  N_7 
REMARK    4  A    between atoms: N_7  and  C_8 
REMARK    5  A    between atoms: C_17  and  N_18 
ROOT
HETATM    1  C   UNL     1     -40.817 -48.345  11.312  1.00  0.00     0.110 A 
HETATM    2  C   UNL     1     -41.302 -47.591  12.359  1.00  0.00     0.071 A 
HETATM    3  C   UNL     1     -42.518 -46.929  12.175  1.00  0.00     0.049 A 
HETATM    4  C   UNL     1     -43.115 -46.210  13.267  1.00  0.00     0.099 C 
HETATM    5  N   UNL     1     -43.606 -45.644  14.147  1.00  0.00    -0.191 NA
HETATM    6  C   UNL     1     -43.181 -46.987  10.951  1.00  0.00     0.040 A 
HETATM    7  C   UNL     1     -42.593 -47.720   9.946  1.00  0.00     0.091 A 
HETATM    8  N   UNL     1     -41.444 -48.397  10.112  1.00  0.00    -0.352 N 
ATOM      9  HN  UNL     1     -41.049 -48.943   9.346  1.00  0.00     0.166 HD
ENDROOT
BRANCH   1  10
HETATM   10  N   UNL     1     -39.672 -49.122  11.516  1.00  0.00    -0.295 N 
HETATM   11  C   UNL     1     -39.613 -50.489  11.624  1.00  0.00     0.321 C 
HETATM   12  N   UNL     1     -40.800 -51.140  11.569  1.00  0.00    -0.342 N 
HETATM   13  O   UNL     1     -38.535 -51.038  11.845  1.00  0.00    -0.247 OA
HETATM   14  H   UNL     1     -41.593 -50.584  11.259  1.00  0.00     0.164 HD
HETATM   15  H   UNL     1     -38.795 -48.668  11.718  1.00  0.00     0.172 HD
BRANCH  12  16
HETATM   16  C   UNL     1     -41.014 -52.546  11.792  1.00  0.00     0.130 C 
BRANCH  16  17
HETATM   17  C   UNL     1     -41.796 -52.849  13.077  1.00  0.00     0.028 C 
HETATM   18  C   UNL     1     -41.122 -54.015  13.805  1.00  0.00     0.013 C 
BRANCH  17  19
HETATM   19  C   UNL     1     -43.337 -53.008  12.902  1.00  0.00     0.278 C 
BRANCH  19  20
HETATM   20  N   UNL     1     -44.206 -53.433  14.020  1.00  0.00     0.092 N 
HETATM   21  C   UNL     1     -45.617 -53.565  13.555  1.00  0.00     0.302 C 
HETATM   22  C   UNL     1     -46.378 -52.224  13.334  1.00  0.00     0.302 C 
HETATM   23  N   UNL     1     -46.308 -51.260  14.450  1.00  0.00     0.087 N 
HETATM   24  C   UNL     1     -47.232 -51.612  15.528  1.00  0.00     0.310 C 
HETATM   25  C   UNL     1     -44.919 -51.164  14.940  1.00  0.00     0.302 C 
HETATM   26  C   UNL     1     -44.231 -52.528  15.185  1.00  0.00     0.302 C 
ENDBRANCH  19  20
ENDBRANCH  17  19
ENDBRANCH  16  17
ENDBRANCH  12  16
ENDBRANCH   1  10
TORSDOF 5
ENDMDL
MODEL 2
REMARK VINA RESULT:      -6.2      2.233      6.486
REMARK  5 active torsions:
REMARK  status: ('A' for Active; 'I' for Inactive)
REMARK    1  A    between atoms: C_2  and  C_3 
REMARK    2  A    between atoms: C_2  and  C_17 
REMARK    3  A    between atoms: C_3  and  N_4 
REMARK       I    between atoms: N_4  and  C_5 
REMARK       I    between atoms: C_5  and  N_7 
REMARK    4  A    between atoms: N_7  and  C_8 
REMARK    5  A    between atoms: C_17  and  N_18 
ROOT
HETATM    1  C   UNL     1     -42.263 -54.068  13.666  1.00  0.00     0.110 A 
HETATM    2  C   UNL     1     -42.962 -54.134  14.852  1.00  0.00     0.071 A 
HETATM    3  C   UNL     1     -44.352 -54.006  14.795  1.00  0.00     0.049 A 
HETATM    4  C   UNL     1     -45.135 -54.164  15.989  1.00  0.00     0.099 C 
HETATM    5  N   UNL     1     -45.771 -54.307  16.945  1.00  0.00    -0.191 NA
HETATM    6  C   UNL     1     -44.994 -53.761  13.583  1.00  0.00     0.040 A 
HETATM    7  C   UNL     1     -44.208 -53.657  12.459  1.00  0.00     0.091 A 
HETATM    8  N   UNL     1     -42.873 -53.815  12.484  1.00  0.00    -0.352 N 
ATOM      9  HN  UNL     1     -42.327 -53.746  11.625  1.00  0.00     0.166 HD
ENDROOT
BRANCH   1  10
HETATM   10  N   UNL     1     -40.887 -54.325  13.681  1.00  0.00    -0.295 N 
HETATM   11  C   UNL     1     -39.876 -53.396  13.703  1.00  0.00     0.321 C 
HETATM   12  N   UNL     1     -40.262 -52.098  13.661  1.00  0.00    -0.342 N 
HETATM   13  O   UNL     1     -38.705 -53.769  13.673  1.00  0.00    -0.247 OA
HETATM   14  H   UNL     1     -41.253 -51.928  13.815  1.00  0.00     0.164 HD
HETATM   15  H   UNL     1     -40.558 -55.269  13.555  1.00  0.00     0.172 HD
BRANCH  12  16
HETATM   16  C   UNL     1     -39.398 -50.954  13.537  1.00  0.00     0.130 C 
BRANCH  16  17
HETATM   17  C   UNL     1     -39.092 -50.573  12.082  1.00  0.00     0.028 C 
HETATM   18  C   UNL     1     -37.681 -49.985  12.009  1.00  0.00     0.013 C 
BRANCH  17  19
HETATM   19  C   UNL     1     -40.182 -49.716  11.371  1.00  0.00     0.278 C 
BRANCH  19  20
HETATM   20  N   UNL     1     -41.030 -48.762  12.119  1.00  0.00     0.092 N 
HETATM   21  C   UNL     1     -42.324 -48.555  11.406  1.00  0.00     0.302 C 
HETATM   22  C   UNL     1     -42.253 -47.658  10.136  1.00  0.00     0.302 C 
HETATM   23  N   UNL     1     -41.564 -46.364  10.306  1.00  0.00     0.087 N 
HETATM   24  C   UNL     1     -42.422 -45.376  10.960  1.00  0.00     0.310 C 
HETATM   25  C   UNL     1     -40.305 -46.563  11.051  1.00  0.00     0.302 C 
HETATM   26  C   UNL     1     -40.447 -47.424  12.329  1.00  0.00     0.302 C 
ENDBRANCH  19  20
ENDBRANCH  17  19
ENDBRANCH  16  17
ENDBRANCH  12  16
ENDBRANCH   1  10
TORSDOF 5
ENDMDL
MODEL 3
REMARK VINA RESULT:      -6.1      2.054      6.630
REMARK  5 active torsions:
REMARK  status: ('A' for Active; 'I' for Inactive)
REMARK    1  A    between atoms: C_2  and  C_3 
REMARK    2  A    between atoms: C_2  and  C_17 
REMARK    3  A    between atoms: C_3  and  N_4 
REMARK       I    between atoms: N_4  and  C_5 
REMARK       I    between atoms: C_5  and  N_7 
REMARK    4  A    between atoms: N_7  and  C_8 
REMARK    5  A    between atoms: C_17  and  N_18 
ROOT
HETATM    1  C   UNL     1     -44.009 -52.501  12.959  1.00  0.00     0.110 A 
HETATM    2  C   UNL     1     -44.147 -51.912  14.198  1.00  0.00     0.071 A 
HETATM    3  C   UNL     1     -45.420 -51.479  14.574  1.00  0.00     0.049 A 
HETATM    4  C   UNL     1     -45.635 -50.947  15.892  1.00  0.00     0.099 C 
HETATM    5  N   UNL     1     -45.816 -50.534  16.957  1.00  0.00    -0.191 NA
HETATM    6  C   UNL     1     -46.496 -51.589  13.697  1.00  0.00     0.040 A 
HETATM    7  C   UNL     1     -46.252 -52.141  12.461  1.00  0.00     0.091 A 
HETATM    8  N   UNL     1     -45.044 -52.600  12.091  1.00  0.00    -0.352 N 
ATOM      9  HN  UNL     1     -44.908 -53.018  11.171  1.00  0.00     0.166 HD
ENDROOT
BRANCH   1  10
HETATM   10  N   UNL     1     -42.774 -53.061  12.614  1.00  0.00    -0.295 N 
HETATM   11  C   UNL     1     -41.679 -52.398  12.118  1.00  0.00     0.321 C 
HETATM   12  N   UNL     1     -41.837 -51.069  11.904  1.00  0.00    -0.342 N 
HETATM   13  O   UNL     1     -40.668 -53.030  11.818  1.00  0.00    -0.247 OA
HETATM   14  H   UNL     1     -42.672 -50.655  12.308  1.00  0.00     0.164 HD
HETATM   15  H   UNL     1     -42.669 -54.063  12.611  1.00  0.00     0.172 HD
BRANCH  12  16
HETATM   16  C   UNL     1     -40.892 -50.190  11.268  1.00  0.00     0.130 C 
BRANCH  16  17
HETATM   17  C   UNL     1     -40.742 -48.837  11.978  1.00  0.00     0.028 C 
HETATM   18  C   UNL     1     -40.663 -49.074  13.488  1.00  0.00     0.013 C 
BRANCH  17  19
HETATM   19  C   UNL     1     -41.767 -47.741  11.554  1.00  0.00     0.278 C 
BRANCH  19  20
HETATM   20  N   UNL     1     -41.404 -46.663  10.608  1.00  0.00     0.092 N 
HETATM   21  C   UNL     1     -40.043 -46.141  10.919  1.00  0.00     0.302 C 
HETATM   22  C   UNL     1     -39.948 -45.219  12.170  1.00  0.00     0.302 C 
HETATM   23  N   UNL     1     -40.931 -44.118  12.226  1.00  0.00     0.087 N 
HETATM   24  C   UNL     1     -40.540 -43.000  11.368  1.00  0.00     0.310 C 
HETATM   25  C   UNL     1     -42.271 -44.627  11.874  1.00  0.00     0.302 C 
HETATM   26  C   UNL     1     -42.309 -45.499  10.596  1.00  0.00     0.302 C 
ENDBRANCH  19  20
ENDBRANCH  17  19
ENDBRANCH  16  17
ENDBRANCH  12  16
ENDBRANCH   1  10
TORSDOF 5
ENDMDL
MODEL 4
REMARK VINA RESULT:      -5.9      1.863      6.315
REMARK  5 active torsions:
REMARK  status: ('A' for Active; 'I' for Inactive)
REMARK    1  A    between atoms: C_2  and  C_3 
REMARK    2  A    between atoms: C_2  and  C_17 
REMARK    3  A    between atoms: C_3  and  N_4 
REMARK       I    between atoms: N_4  and  C_5 
REMARK       I    between atoms: C_5  and  N_7 
REMARK    4  A    between atoms: N_7  and  C_8 
REMARK    5  A    between atoms: C_17  and  N_18 
ROOT
HETATM    1  C   UNL     1     -44.341 -53.268  13.759  1.00  0.00     0.110 A 
HETATM    2  C   UNL     1     -45.160 -53.028  12.678  1.00  0.00     0.071 A 
HETATM    3  C   UNL     1     -46.173 -52.078  12.827  1.00  0.00     0.049 A 
HETATM    4  C   UNL     1     -46.992 -51.721  11.701  1.00  0.00     0.099 C 
HETATM    5  N   UNL     1     -47.642 -51.419  10.794  1.00  0.00    -0.191 NA
HETATM    6  C   UNL     1     -46.376 -51.442  14.049  1.00  0.00     0.040 A 
HETATM    7  C   UNL     1     -45.543 -51.785  15.088  1.00  0.00     0.091 A 
HETATM    8  N   UNL     1     -44.537 -52.668  14.958  1.00  0.00    -0.352 N 
ATOM      9  HN  UNL     1     -43.931 -52.883  15.749  1.00  0.00     0.166 HD
ENDROOT
BRANCH   1  10
HETATM   10  N   UNL     1     -43.240 -54.116  13.595  1.00  0.00    -0.295 N 
HETATM   11  C   UNL     1     -41.991 -53.765  13.146  1.00  0.00     0.321 C 
HETATM   12  N   UNL     1     -41.831 -52.468  12.788  1.00  0.00    -0.342 N 
HETATM   13  O   UNL     1     -41.126 -54.629  13.013  1.00  0.00    -0.247 OA
HETATM   14  H   UNL     1     -42.581 -51.840  13.065  1.00  0.00     0.164 HD
HETATM   15  H   UNL     1     -43.361 -55.111  13.700  1.00  0.00     0.172 HD
BRANCH  12  16
HETATM   16  C   UNL     1     -40.669 -51.891  12.166  1.00  0.00     0.130 C 
BRANCH  16  17
HETATM   17  C   UNL     1     -40.529 -50.383  12.410  1.00  0.00     0.028 C 
HETATM   18  C   UNL     1     -40.363 -50.135  13.912  1.00  0.00     0.013 C 
BRANCH  17  19
HETATM   19  C   UNL     1     -41.612 -49.491  11.730  1.00  0.00     0.278 C 
BRANCH  19  20
HETATM   20  N   UNL     1     -41.250 -48.430  10.764  1.00  0.00     0.092 N 
HETATM   21  C   UNL     1     -40.439 -47.376  11.438  1.00  0.00     0.302 C 
HETATM   22  C   UNL     1     -41.234 -46.408  12.363  1.00  0.00     0.302 C 
HETATM   23  N   UNL     1     -42.443 -45.805  11.767  1.00  0.00     0.087 N 
HETATM   24  C   UNL     1     -42.110 -44.690  10.881  1.00  0.00     0.310 C 
HETATM   25  C   UNL     1     -43.221 -46.842  11.062  1.00  0.00     0.302 C 
HETATM   26  C   UNL     1     -42.385 -47.742  10.122  1.00  0.00     0.302 C 
ENDBRANCH  19  20
ENDBRANCH  17  19
ENDBRANCH  16  17
ENDBRANCH  12  16
ENDBRANCH   1  10
TORSDOF 5
ENDMDL
MODEL 5
REMARK VINA RESULT:      -5.8      2.694      6.445
REMARK  5 active torsions:
REMARK  status: ('A' for Active; 'I' for Inactive)
REMARK    1  A    between atoms: C_2  and  C_3 
REMARK    2  A    between atoms: C_2  and  C_17 
REMARK    3  A    between atoms: C_3  and  N_4 
REMARK       I    between atoms: N_4  and  C_5 
REMARK       I    between atoms: C_5  and  N_7 
REMARK    4  A    between atoms: N_7  and  C_8 
REMARK    5  A    between atoms: C_17  and  N_18 
ROOT
HETATM    1  C   UNL     1     -44.016 -52.301  13.014  1.00  0.00     0.110 A 
HETATM    2  C   UNL     1     -44.239 -51.750  14.257  1.00  0.00     0.071 A 
HETATM    3  C   UNL     1     -45.559 -51.477  14.621  1.00  0.00     0.049 A 
HETATM    4  C   UNL     1     -45.853 -50.993  15.941  1.00  0.00     0.099 C 
HETATM    5  N   UNL     1     -46.096 -50.619  17.008  1.00  0.00    -0.191 NA
HETATM    6  C   UNL     1     -46.604 -51.703  13.727  1.00  0.00     0.040 A 
HETATM    7  C   UNL     1     -46.279 -52.205  12.488  1.00  0.00     0.091 A 
HETATM    8  N   UNL     1     -45.020 -52.512  12.130  1.00  0.00    -0.352 N 
ATOM      9  HN  UNL     1     -44.823 -52.897  11.206  1.00  0.00     0.166 HD
ENDROOT
BRANCH   1  10
HETATM   10  N   UNL     1     -42.718 -52.705  12.680  1.00  0.00    -0.295 N 
HETATM   11  C   UNL     1     -41.710 -51.912  12.188  1.00  0.00     0.321 C 
HETATM   12  N   UNL     1     -42.030 -50.614  11.968  1.00  0.00    -0.342 N 
HETATM   13  O   UNL     1     -40.626 -52.415  11.899  1.00  0.00    -0.247 OA
HETATM   14  H   UNL     1     -42.913 -50.305  12.365  1.00  0.00     0.164 HD
HETATM   15  H   UNL     1     -42.489 -53.686  12.681  1.00  0.00     0.172 HD
BRANCH  12  16
HETATM   16  C   UNL     1     -41.196 -49.626  11.336  1.00  0.00     0.130 C 
BRANCH  16  17
HETATM   17  C   UNL     1     -40.986 -48.368  12.188  1.00  0.00     0.028 C 
HETATM   18  C   UNL     1     -40.389 -47.266  11.309  1.00  0.00     0.013 C 
BRANCH  17  19
HETATM   19  C   UNL     1     -40.234 -48.589  13.535  1.00  0.00     0.278 C 
BRANCH  19  20
HETATM   20  N   UNL     1     -39.105 -49.538  13.648  1.00  0.00     0.092 N 
HETATM   21  C   UNL     1     -39.097 -50.171  14.998  1.00  0.00     0.302 C 
HETATM   22  C   UNL     1     -38.591 -49.267  16.160  1.00  0.00     0.302 C 
HETATM   23  N   UNL     1     -37.304 -48.583  15.921  1.00  0.00     0.087 N 
HETATM   24  C   UNL     1     -36.168 -49.483  16.121  1.00  0.00     0.310 C 
HETATM   25  C   UNL     1     -37.295 -47.995  14.567  1.00  0.00     0.302 C 
HETATM   26  C   UNL     1     -37.765 -48.956  13.449  1.00  0.00     0.302 C 
ENDBRANCH  19  20
ENDBRANCH  17  19
ENDBRANCH  16  17
ENDBRANCH  12  16
ENDBRANCH   1  10
TORSDOF 5
ENDMDL
MODEL 6
REMARK VINA RESULT:      -5.8      1.910      6.062
REMARK  5 active torsions:
REMARK  status: ('A' for Active; 'I' for Inactive)
REMARK    1  A    between atoms: C_2  and  C_3 
REMARK    2  A    between atoms: C_2  and  C_17 
REMARK    3  A    between atoms: C_3  and  N_4 
REMARK       I    between atoms: N_4  and  C_5 
REMARK       I    between atoms: C_5  and  N_7 
REMARK    4  A    between atoms: N_7  and  C_8 
REMARK    5  A    between atoms: C_17  and  N_18 
ROOT
HETATM    1  C   UNL     1     -44.438 -52.944  13.357  1.00  0.00     0.110 A 
HETATM    2  C   UNL     1     -45.027 -52.563  14.544  1.00  0.00     0.071 A 
HETATM    3  C   UNL     1     -46.255 -51.900  14.478  1.00  0.00     0.049 A 
HETATM    4  C   UNL     1     -46.956 -51.569  15.688  1.00  0.00     0.099 C 
HETATM    5  N   UNL     1     -47.531 -51.315  16.658  1.00  0.00    -0.191 NA
HETATM    6  C   UNL     1     -46.828 -51.587  13.248  1.00  0.00     0.040 A 
HETATM    7  C   UNL     1     -46.141 -51.959  12.116  1.00  0.00     0.091 A 
HETATM    8  N   UNL     1     -44.977 -52.632  12.155  1.00  0.00    -0.352 N 
ATOM      9  HN  UNL     1     -44.507 -52.904  11.291  1.00  0.00     0.166 HD
ENDROOT
BRANCH   1  10
HETATM   10  N   UNL     1     -43.277 -53.723  13.402  1.00  0.00    -0.295 N 
HETATM   11  C   UNL     1     -41.986 -53.271  13.522  1.00  0.00     0.321 C 
HETATM   12  N   UNL     1     -41.829 -51.926  13.557  1.00  0.00    -0.342 N 
HETATM   13  O   UNL     1     -41.055 -54.075  13.506  1.00  0.00    -0.247 OA
HETATM   14  H   UNL     1     -42.682 -51.387  13.688  1.00  0.00     0.164 HD
HETATM   15  H   UNL     1     -43.338 -54.713  13.222  1.00  0.00     0.172 HD
BRANCH  12  16
HETATM   16  C   UNL     1     -40.580 -51.212  13.542  1.00  0.00     0.130 C 
BRANCH  16  17
HETATM   17  C   UNL     1     -40.107 -50.836  12.132  1.00  0.00     0.028 C 
HETATM   18  C   UNL     1     -38.613 -50.509  12.179  1.00  0.00     0.013 C 
BRANCH  17  19
HETATM   19  C   UNL     1     -40.974 -49.768  11.397  1.00  0.00     0.278 C 
BRANCH  19  20
HETATM   20  N   UNL     1     -41.616 -48.653  12.127  1.00  0.00     0.092 N 
HETATM   21  C   UNL     1     -42.849 -48.213  11.414  1.00  0.00     0.302 C 
HETATM   22  C   UNL     1     -42.614 -47.373  10.124  1.00  0.00     0.302 C 
HETATM   23  N   UNL     1     -41.685 -46.234  10.266  1.00  0.00     0.087 N 
HETATM   24  C   UNL     1     -42.331 -45.085  10.902  1.00  0.00     0.310 C 
HETATM   25  C   UNL     1     -40.485 -46.659  11.012  1.00  0.00     0.302 C 
HETATM   26  C   UNL     1     -40.783 -47.450  12.308  1.00  0.00     0.302 C 
ENDBRANCH  19  20
ENDBRANCH  17  19
ENDBRANCH  16  17
ENDBRANCH  12  16
ENDBRANCH   1  10
TORSDOF 5
ENDMDL
MODEL 7
REMARK VINA RESULT:      -5.8      2.627      3.958
REMARK  5 active torsions:
REMARK  status: ('A' for Active; 'I' for Inactive)
REMARK    1  A    between atoms: C_2  and  C_3 
REMARK    2  A    between atoms: C_2  and  C_17 
REMARK    3  A    between atoms: C_3  and  N_4 
REMARK       I    between atoms: N_4  and  C_5 
REMARK       I    between atoms: C_5  and  N_7 
REMARK    4  A    between atoms: N_7  and  C_8 
REMARK    5  A    between atoms: C_17  and  N_18 
ROOT
HETATM    1  C   UNL     1     -40.720 -46.705  11.006  1.00  0.00     0.110 A 
HETATM    2  C   UNL     1     -41.531 -46.049  11.906  1.00  0.00     0.071 A 
HETATM    3  C   UNL     1     -41.452 -44.655  11.957  1.00  0.00     0.049 A 
HETATM    4  C   UNL     1     -42.345 -43.918  12.808  1.00  0.00     0.099 C 
HETATM    5  N   UNL     1     -43.072 -43.320  13.479  1.00  0.00    -0.191 NA
HETATM    6  C   UNL     1     -40.539 -43.966  11.163  1.00  0.00     0.040 A 
HETATM    7  C   UNL     1     -39.732 -44.710  10.334  1.00  0.00     0.091 A 
HETATM    8  N   UNL     1     -39.817 -46.049  10.239  1.00  0.00    -0.352 N 
ATOM      9  HN  UNL     1     -39.211 -46.562   9.600  1.00  0.00     0.166 HD
ENDROOT
BRANCH   1  10
HETATM   10  N   UNL     1     -40.875 -48.086  10.843  1.00  0.00    -0.295 N 
HETATM   11  C   UNL     1     -40.079 -49.072  11.371  1.00  0.00     0.321 C 
HETATM   12  N   UNL     1     -39.010 -48.651  12.088  1.00  0.00    -0.342 N 
HETATM   13  O   UNL     1     -40.313 -50.251  11.109  1.00  0.00    -0.247 OA
HETATM   14  H   UNL     1     -39.005 -47.664  12.332  1.00  0.00     0.164 HD
HETATM   15  H   UNL     1     -41.562 -48.434  10.192  1.00  0.00     0.172 HD
BRANCH  12  16
HETATM   16  C   UNL     1     -37.961 -49.479  12.624  1.00  0.00     0.130 C 
BRANCH  16  17
HETATM   17  C   UNL     1     -38.363 -50.223  13.904  1.00  0.00     0.028 C 
HETATM   18  C   UNL     1     -37.430 -49.797  15.040  1.00  0.00     0.013 C 
BRANCH  17  19
HETATM   19  C   UNL     1     -38.531 -51.766  13.757  1.00  0.00     0.278 C 
BRANCH  19  20
HETATM   20  N   UNL     1     -39.325 -52.557  14.723  1.00  0.00     0.092 N 
HETATM   21  C   UNL     1     -39.551 -53.934  14.198  1.00  0.00     0.302 C 
HETATM   22  C   UNL     1     -40.613 -54.054  13.066  1.00  0.00     0.302 C 
HETATM   23  N   UNL     1     -41.911 -53.403  13.338  1.00  0.00     0.087 N 
HETATM   24  C   UNL     1     -42.750 -54.216  14.217  1.00  0.00     0.310 C 
HETATM   25  C   UNL     1     -41.686 -52.057  13.900  1.00  0.00     0.302 C 
HETATM   26  C   UNL     1     -40.653 -52.009  15.052  1.00  0.00     0.302 C 
ENDBRANCH  19  20
ENDBRANCH  17  19
ENDBRANCH  16  17
ENDBRANCH  12  16
ENDBRANCH   1  10
TORSDOF 5
ENDMDL
MODEL 8
REMARK VINA RESULT:      -5.7      2.175      3.604
REMARK  5 active torsions:
REMARK  status: ('A' for Active; 'I' for Inactive)
REMARK    1  A    between atoms: C_2  and  C_3 
REMARK    2  A    between atoms: C_2  and  C_17 
REMARK    3  A    between atoms: C_3  and  N_4 
REMARK       I    between atoms: N_4  and  C_5 
REMARK       I    between atoms: C_5  and  N_7 
REMARK    4  A    between atoms: N_7  and  C_8 
REMARK    5  A    between atoms: C_17  and  N_18 
ROOT
HETATM    1  C   UNL     1     -42.000 -47.999  10.289  1.00  0.00     0.110 A 
HETATM    2  C   UNL     1     -41.865 -46.750  10.856  1.00  0.00     0.071 A 
HETATM    3  C   UNL     1     -42.619 -45.706  10.316  1.00  0.00     0.049 A 
HETATM    4  C   UNL     1     -42.587 -44.408  10.932  1.00  0.00     0.099 C 
HETATM    5  N   UNL     1     -42.578 -43.366  11.434  1.00  0.00    -0.191 NA
HETATM    6  C   UNL     1     -43.432 -45.916   9.205  1.00  0.00     0.040 A 
HETATM    7  C   UNL     1     -43.461 -47.184   8.673  1.00  0.00     0.091 A 
HETATM    8  N   UNL     1     -42.775 -48.214   9.199  1.00  0.00    -0.352 N 
ATOM      9  HN  UNL     1     -42.837 -49.144   8.784  1.00  0.00     0.166 HD
ENDROOT
BRANCH   1  10
HETATM   10  N   UNL     1     -41.359 -49.086  10.894  1.00  0.00    -0.295 N 
HETATM   11  C   UNL     1     -41.857 -49.882  11.896  1.00  0.00     0.321 C 
HETATM   12  N   UNL     1     -43.080 -49.543  12.370  1.00  0.00    -0.342 N 
HETATM   13  O   UNL     1     -41.161 -50.782  12.362  1.00  0.00    -0.247 OA
HETATM   14  H   UNL     1     -43.594 -48.863  11.816  1.00  0.00     0.164 HD
HETATM   15  H   UNL     1     -40.392 -49.273  10.680  1.00  0.00     0.172 HD
BRANCH  12  16
HETATM   16  C   UNL     1     -43.750 -50.132  13.499  1.00  0.00     0.130 C 
BRANCH  16  17
HETATM   17  C   UNL     1     -44.429 -51.470  13.179  1.00  0.00     0.028 C 
HETATM   18  C   UNL     1     -45.924 -51.356  13.489  1.00  0.00     0.013 C 
BRANCH  17  19
HETATM   19  C   UNL     1     -43.743 -52.731  13.785  1.00  0.00     0.278 C 
BRANCH  19  20
HETATM   20  N   UNL     1     -43.353 -52.795  15.210  1.00  0.00     0.092 N 
HETATM   21  C   UNL     1     -41.887 -52.566  15.353  1.00  0.00     0.302 C 
HETATM   22  C   UNL     1     -40.978 -53.762  14.944  1.00  0.00     0.302 C 
HETATM   23  N   UNL     1     -41.340 -55.068  15.530  1.00  0.00     0.087 N 
HETATM   24  C   UNL     1     -40.878 -55.186  16.913  1.00  0.00     0.310 C 
HETATM   25  C   UNL     1     -42.798 -55.274  15.428  1.00  0.00     0.302 C 
HETATM   26  C   UNL     1     -43.649 -54.068  15.893  1.00  0.00     0.302 C 
ENDBRANCH  19  20
ENDBRANCH  17  19
ENDBRANCH  16  17
ENDBRANCH  12  16
ENDBRANCH   1  10
TORSDOF 5
ENDMDL
MODEL 9
REMARK VINA RESULT:      -5.7      2.006      2.608
REMARK  5 active torsions:
REMARK  status: ('A' for Active; 'I' for Inactive)
REMARK    1  A    between atoms: C_2  and  C_3 
REMARK    2  A    between atoms: C_2  and  C_17 
REMARK    3  A    between atoms: C_3  and  N_4 
REMARK       I    between atoms: N_4  and  C_5 
REMARK       I    between atoms: C_5  and  N_7 
REMARK    4  A    between atoms: N_7  and  C_8 
REMARK    5  A    between atoms: C_17  and  N_18 
ROOT
HETATM    1  C   UNL     1     -43.015 -47.528  11.439  1.00  0.00     0.110 A 
HETATM    2  C   UNL     1     -44.242 -47.865  10.909  1.00  0.00     0.071 A 
HETATM    3  C   UNL     1     -44.553 -47.387   9.634  1.00  0.00     0.049 A 
HETATM    4  C   UNL     1     -45.778 -47.789   8.998  1.00  0.00     0.099 C 
HETATM    5  N   UNL     1     -46.754 -48.123   8.476  1.00  0.00    -0.191 NA
HETATM    6  C   UNL     1     -43.672 -46.550   8.954  1.00  0.00     0.040 A 
HETATM    7  C   UNL     1     -42.494 -46.224   9.585  1.00  0.00     0.091 A 
HETATM    8  N   UNL     1     -42.155 -46.703  10.795  1.00  0.00    -0.352 N 
ATOM      9  HN  UNL     1     -41.264 -46.450  11.221  1.00  0.00     0.166 HD
ENDROOT
BRANCH   1  10
HETATM   10  N   UNL     1     -42.626 -48.102  12.654  1.00  0.00    -0.295 N 
HETATM   11  C   UNL     1     -41.994 -49.308  12.830  1.00  0.00     0.321 C 
HETATM   12  N   UNL     1     -41.767 -50.028  11.706  1.00  0.00    -0.342 N 
HETATM   13  O   UNL     1     -41.748 -49.707  13.967  1.00  0.00    -0.247 OA
HETATM   14  H   UNL     1     -41.904 -49.531  10.829  1.00  0.00     0.164 HD
HETATM   15  H   UNL     1     -42.915 -47.673  13.519  1.00  0.00     0.172 HD
BRANCH  12  16
HETATM   16  C   UNL     1     -41.249 -51.370  11.642  1.00  0.00     0.130 C 
BRANCH  16  17
HETATM   17  C   UNL     1     -41.857 -52.311  12.690  1.00  0.00     0.028 C 
HETATM   18  C   UNL     1     -40.909 -53.494  12.905  1.00  0.00     0.013 C 
BRANCH  17  19
HETATM   19  C   UNL     1     -43.342 -52.717  12.444  1.00  0.00     0.278 C 
BRANCH  19  20
HETATM   20  N   UNL     1     -44.176 -53.302  13.517  1.00  0.00     0.092 N 
HETATM   21  C   UNL     1     -45.604 -53.347  13.093  1.00  0.00     0.302 C 
HETATM   22  C   UNL     1     -46.352 -51.982  13.112  1.00  0.00     0.302 C 
HETATM   23  N   UNL     1     -46.226 -51.203  14.360  1.00  0.00     0.087 N 
HETATM   24  C   UNL     1     -47.114 -51.709  15.406  1.00  0.00     0.310 C 
HETATM   25  C   UNL     1     -44.818 -51.197  14.804  1.00  0.00     0.302 C 
HETATM   26  C   UNL     1     -44.142 -52.589  14.807  1.00  0.00     0.302 C 
ENDBRANCH  19  20
ENDBRANCH  17  19
ENDBRANCH  16  17
ENDBRANCH  12  16
ENDBRANCH   1  10
TORSDOF 5
ENDMDL
