MODEL 1
REMARK VINA RESULT:      -5.7      0.000      0.000
REMARK  5 active torsions:
REMARK  status: ('A' for Active; 'I' for Inactive)
REMARK    1  A    between atoms: C_2  and  C_3 
REMARK    2  A    between atoms: C_2  and  N_11 
REMARK    3  A    between atoms: C_3  and  N_4 
REMARK    4  A    between atoms: N_11  and  C_12 
REMARK    5  A    between atoms: C_12  and  C_14 
REMARK       I    between atoms: C_14  and  N_16 
ROOT
HETATM    1  N   UNL     1     -41.214 -46.227  12.613  1.00  0.00     0.102 N 
HETATM    2  H   UNL     1     -41.998 -46.712  13.046  1.00  0.00     0.317 HD
ENDROOT
BRANCH   1   3
HETATM    3  C   UNL     1     -41.333 -46.158  11.148  1.00  0.00     0.237 C 
HETATM    4  C   UNL     1     -40.081 -45.560  10.497  1.00  0.00     0.044 C 
BRANCH   3   5
HETATM    5  C   UNL     1     -41.582 -47.557  10.538  1.00  0.00     0.183 C 
BRANCH   5   6
HETATM    6  N   UNL     1     -42.816 -47.638   9.785  1.00  0.00    -0.301 N 
HETATM    7  C   UNL     1     -44.069 -47.393  10.261  1.00  0.00     0.118 A 
HETATM    8  C   UNL     1     -44.916 -47.459   9.175  1.00  0.00    -0.028 A 
HETATM    9  C   UNL     1     -46.366 -47.178   9.138  1.00  0.00     0.051 C 
HETATM   10  C   UNL     1     -44.069 -47.833   8.106  1.00  0.00     0.115 A 
HETATM   11  N   UNL     1     -42.795 -47.979   8.481  1.00  0.00    -0.310 N 
ATOM     12  HN  UNL     1     -41.999 -48.277   7.918  1.00  0.00     0.186 HD
ENDBRANCH   5   6
ENDBRANCH   3   5
ENDBRANCH   1   3
BRANCH   1  13
HETATM   13  C   UNL     1     -39.944 -46.750  13.149  1.00  0.00     0.308 C 
HETATM   14  C   UNL     1     -39.308 -45.828  14.190  1.00  0.00     0.053 C 
BRANCH  13  15
HETATM   15  C   UNL     1     -40.165 -48.151  13.786  1.00  0.00     0.253 C 
HETATM   16  O   UNL     1     -41.201 -48.426  14.399  1.00  0.00    -0.271 OA
HETATM   17  N   UNL     1     -39.142 -49.083  13.654  1.00  0.00    -0.346 N 
HETATM   18  C   UNL     1     -37.959 -48.978  12.792  1.00  0.00     0.152 C 
HETATM   19  C   UNL     1     -39.249 -50.379  14.329  1.00  0.00     0.152 C 
HETATM   20  C   UNL     1     -37.924 -50.160  11.814  1.00  0.00     0.187 C 
HETATM   21  O   UNL     1     -37.945 -51.408  12.521  1.00  0.00    -0.388 OA
HETATM   22  C   UNL     1     -39.138 -51.525  13.318  1.00  0.00     0.187 C 
ENDBRANCH  13  15
ENDBRANCH   1  13
TORSDOF 5
ENDMDL
MODEL 2
REMARK VINA RESULT:      -5.7      2.208      3.343
REMARK  5 active torsions:
REMARK  status: ('A' for Active; 'I' for Inactive)
REMARK    1  A    between atoms: C_2  and  C_3 
REMARK    2  A    between atoms: C_2  and  N_11 
REMARK    3  A    between atoms: C_3  and  N_4 
REMARK    4  A    between atoms: N_11  and  C_12 
REMARK    5  A    between atoms: C_12  and  C_14 
REMARK       I    between atoms: C_14  and  N_16 
ROOT
HETATM    1  N   UNL     1     -40.279 -49.142  12.292  1.00  0.00     0.102 N 
HETATM    2  H   UNL     1     -40.370 -49.111  13.306  1.00  0.00     0.317 HD
ENDROOT
BRANCH   1   3
HETATM    3  C   UNL     1     -41.579 -49.065  11.607  1.00  0.00     0.237 C 
HETATM    4  C   UNL     1     -42.751 -49.240  12.578  1.00  0.00     0.044 C 
BRANCH   3   5
HETATM    5  C   UNL     1     -41.748 -47.715  10.873  1.00  0.00     0.183 C 
BRANCH   5   6
HETATM    6  N   UNL     1     -42.893 -47.690   9.986  1.00  0.00    -0.301 N 
HETATM    7  C   UNL     1     -44.176 -47.395  10.334  1.00  0.00     0.118 A 
HETATM    8  C   UNL     1     -44.899 -47.362   9.160  1.00  0.00    -0.028 A 
HETATM    9  C   UNL     1     -46.319 -46.995   8.979  1.00  0.00     0.051 C 
HETATM   10  C   UNL     1     -43.958 -47.737   8.172  1.00  0.00     0.115 A 
HETATM   11  N   UNL     1     -42.744 -47.973   8.676  1.00  0.00    -0.310 N 
ATOM     12  HN  UNL     1     -41.906 -48.292   8.189  1.00  0.00     0.186 HD
ENDBRANCH   5   6
ENDBRANCH   3   5
ENDBRANCH   1   3
BRANCH   1  13
HETATM   13  C   UNL     1     -39.391 -50.252  11.904  1.00  0.00     0.308 C 
HETATM   14  C   UNL     1     -37.981 -49.792  11.533  1.00  0.00     0.053 C 
BRANCH  13  15
HETATM   15  C   UNL     1     -39.294 -51.292  13.056  1.00  0.00     0.253 C 
HETATM   16  O   UNL     1     -38.544 -51.118  14.022  1.00  0.00    -0.271 OA
HETATM   17  N   UNL     1     -40.072 -52.440  12.950  1.00  0.00    -0.346 N 
HETATM   18  C   UNL     1     -41.148 -52.690  11.984  1.00  0.00     0.152 C 
HETATM   19  C   UNL     1     -39.936 -53.504  13.949  1.00  0.00     0.152 C 
HETATM   20  C   UNL     1     -42.458 -52.972  12.730  1.00  0.00     0.187 C 
HETATM   21  O   UNL     1     -42.303 -54.075  13.634  1.00  0.00    -0.388 OA
HETATM   22  C   UNL     1     -41.286 -53.795  14.614  1.00  0.00     0.187 C 
ENDBRANCH  13  15
ENDBRANCH   1  13
TORSDOF 5
ENDMDL
MODEL 3
REMARK VINA RESULT:      -5.6      2.525      3.375
REMARK  5 active torsions:
REMARK  status: ('A' for Active; 'I' for Inactive)
REMARK    1  A    between atoms: C_2  and  C_3 
REMARK    2  A    between atoms: C_2  and  N_11 
REMARK    3  A    between atoms: C_3  and  N_4 
REMARK    4  A    between atoms: N_11  and  C_12 
REMARK    5  A    between atoms: C_12  and  C_14 
REMARK       I    between atoms: C_14  and  N_16 
ROOT
HETATM    1  N   UNL     1     -41.797 -49.808  11.696  1.00  0.00     0.102 N 
HETATM    2  H   UNL     1     -40.923 -50.196  11.345  1.00  0.00     0.317 HD
ENDROOT
BRANCH   1   3
HETATM    3  C   UNL     1     -41.768 -48.339  11.778  1.00  0.00     0.237 C 
HETATM    4  C   UNL     1     -40.597 -47.834  12.628  1.00  0.00     0.044 C 
BRANCH   3   5
HETATM    5  C   UNL     1     -41.666 -47.700  10.374  1.00  0.00     0.183 C 
BRANCH   5   6
HETATM    6  N   UNL     1     -42.921 -47.711   9.652  1.00  0.00    -0.301 N 
HETATM    7  C   UNL     1     -44.146 -47.396  10.159  1.00  0.00     0.118 A 
HETATM    8  C   UNL     1     -45.022 -47.413   9.094  1.00  0.00    -0.028 A 
HETATM    9  C   UNL     1     -46.455 -47.051   9.093  1.00  0.00     0.051 C 
HETATM   10  C   UNL     1     -44.224 -47.835   8.005  1.00  0.00     0.115 A 
HETATM   11  N   UNL     1     -42.952 -48.053   8.349  1.00  0.00    -0.310 N 
ATOM     12  HN  UNL     1     -42.188 -48.396   7.766  1.00  0.00     0.186 HD
ENDBRANCH   5   6
ENDBRANCH   3   5
ENDBRANCH   1   3
BRANCH   1  13
HETATM   13  C   UNL     1     -42.212 -50.530  12.912  1.00  0.00     0.308 C 
HETATM   14  C   UNL     1     -43.701 -50.376  13.223  1.00  0.00     0.053 C 
BRANCH  13  15
HETATM   15  C   UNL     1     -41.879 -52.043  12.780  1.00  0.00     0.253 C 
HETATM   16  O   UNL     1     -42.210 -52.692  11.783  1.00  0.00    -0.271 OA
HETATM   17  N   UNL     1     -41.208 -52.647  13.837  1.00  0.00    -0.346 N 
HETATM   18  C   UNL     1     -40.576 -51.975  14.979  1.00  0.00     0.152 C 
HETATM   19  C   UNL     1     -40.969 -54.093  13.816  1.00  0.00     0.152 C 
HETATM   20  C   UNL     1     -39.084 -52.329  15.027  1.00  0.00     0.187 C 
HETATM   21  O   UNL     1     -38.899 -53.750  15.090  1.00  0.00    -0.388 OA
HETATM   22  C   UNL     1     -39.471 -54.393  13.937  1.00  0.00     0.187 C 
ENDBRANCH  13  15
ENDBRANCH   1  13
TORSDOF 5
ENDMDL
MODEL 4
REMARK VINA RESULT:      -5.3      2.866      6.089
REMARK  5 active torsions:
REMARK  status: ('A' for Active; 'I' for Inactive)
REMARK    1  A    between atoms: C_2  and  C_3 
REMARK    2  A    between atoms: C_2  and  N_11 
REMARK    3  A    between atoms: C_3  and  N_4 
REMARK    4  A    between atoms: N_11  and  C_12 
REMARK    5  A    between atoms: C_12  and  C_14 
REMARK       I    between atoms: C_14  and  N_16 
ROOT
HETATM    1  N   UNL     1     -42.908 -46.850  11.563  1.00  0.00     0.102 N 
HETATM    2  H   UNL     1     -43.145 -46.178  12.290  1.00  0.00     0.317 HD
ENDROOT
BRANCH   1   3
HETATM    3  C   UNL     1     -42.148 -47.998  12.083  1.00  0.00     0.237 C 
HETATM    4  C   UNL     1     -43.068 -49.125  12.564  1.00  0.00     0.044 C 
BRANCH   3   5
HETATM    5  C   UNL     1     -41.190 -48.570  11.013  1.00  0.00     0.183 C 
BRANCH   5   6
HETATM    6  N   UNL     1     -39.916 -48.990  11.557  1.00  0.00    -0.301 N 
HETATM    7  C   UNL     1     -39.426 -48.686  12.791  1.00  0.00     0.118 A 
HETATM    8  C   UNL     1     -38.254 -49.399  12.930  1.00  0.00    -0.028 A 
HETATM    9  C   UNL     1     -37.385 -49.493  14.121  1.00  0.00     0.051 C 
HETATM   10  C   UNL     1     -38.094 -50.036  11.677  1.00  0.00     0.115 A 
HETATM   11  N   UNL     1     -39.086 -49.759  10.825  1.00  0.00    -0.310 N 
ATOM     12  HN  UNL     1     -39.189 -50.058   9.855  1.00  0.00     0.186 HD
ENDBRANCH   5   6
ENDBRANCH   3   5
ENDBRANCH   1   3
BRANCH   1  13
HETATM   13  C   UNL     1     -42.333 -46.148  10.401  1.00  0.00     0.308 C 
HETATM   14  C   UNL     1     -43.202 -46.250   9.148  1.00  0.00     0.053 C 
BRANCH  13  15
HETATM   15  C   UNL     1     -42.108 -44.647  10.737  1.00  0.00     0.253 C 
HETATM   16  O   UNL     1     -43.011 -43.814  10.611  1.00  0.00    -0.271 OA
HETATM   17  N   UNL     1     -40.841 -44.270  11.168  1.00  0.00    -0.346 N 
HETATM   18  C   UNL     1     -39.741 -45.160  11.559  1.00  0.00     0.152 C 
HETATM   19  C   UNL     1     -40.540 -42.853  11.390  1.00  0.00     0.152 C 
HETATM   20  C   UNL     1     -39.323 -44.863  13.005  1.00  0.00     0.187 C 
HETATM   21  O   UNL     1     -38.958 -43.484  13.157  1.00  0.00    -0.388 OA
HETATM   22  C   UNL     1     -40.061 -42.621  12.827  1.00  0.00     0.187 C 
ENDBRANCH  13  15
ENDBRANCH   1  13
TORSDOF 5
ENDMDL
MODEL 5
REMARK VINA RESULT:      -5.2      3.966      5.650
REMARK  5 active torsions:
REMARK  status: ('A' for Active; 'I' for Inactive)
REMARK    1  A    between atoms: C_2  and  C_3 
REMARK    2  A    between atoms: C_2  and  N_11 
REMARK    3  A    between atoms: C_3  and  N_4 
REMARK    4  A    between atoms: N_11  and  C_12 
REMARK    5  A    between atoms: C_12  and  C_14 
REMARK       I    between atoms: C_14  and  N_16 
ROOT
HETATM    1  N   UNL     1     -40.754 -52.869  12.922  1.00  0.00     0.102 N 
HETATM    2  H   UNL     1     -40.293 -52.571  12.064  1.00  0.00     0.317 HD
ENDROOT
BRANCH   1   3
HETATM    3  C   UNL     1     -42.052 -52.207  13.125  1.00  0.00     0.237 C 
HETATM    4  C   UNL     1     -42.098 -50.822  12.470  1.00  0.00     0.044 C 
BRANCH   3   5
HETATM    5  C   UNL     1     -43.211 -53.056  12.556  1.00  0.00     0.183 C 
BRANCH   5   6
HETATM    6  N   UNL     1     -44.516 -52.593  12.980  1.00  0.00    -0.301 N 
HETATM    7  C   UNL     1     -44.931 -52.416  14.266  1.00  0.00     0.118 A 
HETATM    8  C   UNL     1     -46.182 -51.843  14.195  1.00  0.00    -0.028 A 
HETATM    9  C   UNL     1     -47.026 -51.366  15.310  1.00  0.00     0.051 C 
HETATM   10  C   UNL     1     -46.456 -51.797  12.808  1.00  0.00     0.115 A 
HETATM   11  N   UNL     1     -45.459 -52.288  12.066  1.00  0.00    -0.310 N 
ATOM     12  HN  UNL     1     -45.420 -52.403  11.054  1.00  0.00     0.186 HD
ENDBRANCH   5   6
ENDBRANCH   3   5
ENDBRANCH   1   3
BRANCH   1  13
HETATM   13  C   UNL     1     -39.801 -52.815  14.046  1.00  0.00     0.308 C 
HETATM   14  C   UNL     1     -39.139 -54.162  14.337  1.00  0.00     0.053 C 
BRANCH  13  15
HETATM   15  C   UNL     1     -38.694 -51.761  13.762  1.00  0.00     0.253 C 
HETATM   16  O   UNL     1     -37.836 -51.942  12.893  1.00  0.00    -0.271 OA
HETATM   17  N   UNL     1     -38.694 -50.607  14.539  1.00  0.00    -0.346 N 
HETATM   18  C   UNL     1     -39.751 -50.160  15.453  1.00  0.00     0.152 C 
HETATM   19  C   UNL     1     -37.609 -49.633  14.392  1.00  0.00     0.152 C 
HETATM   20  C   UNL     1     -40.253 -48.775  15.026  1.00  0.00     0.187 C 
HETATM   21  O   UNL     1     -39.172 -47.833  14.978  1.00  0.00    -0.388 OA
HETATM   22  C   UNL     1     -38.169 -48.252  14.035  1.00  0.00     0.187 C 
ENDBRANCH  13  15
ENDBRANCH   1  13
TORSDOF 5
ENDMDL
MODEL 6
REMARK VINA RESULT:      -5.2      4.447      6.197
REMARK  5 active torsions:
REMARK  status: ('A' for Active; 'I' for Inactive)
REMARK    1  A    between atoms: C_2  and  C_3 
REMARK    2  A    between atoms: C_2  and  N_11 
REMARK    3  A    between atoms: C_3  and  N_4 
REMARK    4  A    between atoms: N_11  and  C_12 
REMARK    5  A    between atoms: C_12  and  C_14 
REMARK       I    between atoms: C_14  and  N_16 
ROOT
HETATM    1  N   UNL     1     -42.085 -53.126  14.382  1.00  0.00     0.102 N 
HETATM    2  H   UNL     1     -42.222 -52.956  15.377  1.00  0.00     0.317 HD
ENDROOT
BRANCH   1   3
HETATM    3  C   UNL     1     -42.635 -54.420  13.950  1.00  0.00     0.237 C 
HETATM    4  C   UNL     1     -43.119 -55.262  15.136  1.00  0.00     0.044 C 
BRANCH   3   5
HETATM    5  C   UNL     1     -43.815 -54.230  12.971  1.00  0.00     0.183 C 
BRANCH   5   6
HETATM    6  N   UNL     1     -44.679 -53.125  13.329  1.00  0.00    -0.301 N 
HETATM    7  C   UNL     1     -45.648 -53.135  14.287  1.00  0.00     0.118 A 
HETATM    8  C   UNL     1     -46.120 -51.843  14.375  1.00  0.00    -0.028 A 
HETATM    9  C   UNL     1     -47.112 -51.303  15.328  1.00  0.00     0.051 C 
HETATM   10  C   UNL     1     -45.417 -51.155  13.359  1.00  0.00     0.115 A 
HETATM   11  N   UNL     1     -44.565 -51.941  12.695  1.00  0.00    -0.310 N 
ATOM     12  HN  UNL     1     -43.972 -51.703  11.900  1.00  0.00     0.186 HD
ENDBRANCH   5   6
ENDBRANCH   3   5
ENDBRANCH   1   3
BRANCH   1  13
HETATM   13  C   UNL     1     -40.684 -52.847  14.016  1.00  0.00     0.308 C 
HETATM   14  C   UNL     1     -39.919 -54.094  13.575  1.00  0.00     0.053 C 
BRANCH  13  15
HETATM   15  C   UNL     1     -40.627 -51.791  12.875  1.00  0.00     0.253 C 
HETATM   16  O   UNL     1     -41.535 -51.688  12.044  1.00  0.00    -0.271 OA
HETATM   17  N   UNL     1     -39.503 -50.976  12.813  1.00  0.00    -0.346 N 
HETATM   18  C   UNL     1     -38.455 -50.839  13.832  1.00  0.00     0.152 C 
HETATM   19  C   UNL     1     -39.343 -50.042  11.695  1.00  0.00     0.152 C 
HETATM   20  C   UNL     1     -38.365 -49.377  14.289  1.00  0.00     0.187 C 
HETATM   21  O   UNL     1     -38.125 -48.508  13.173  1.00  0.00    -0.388 OA
HETATM   22  C   UNL     1     -39.187 -48.606  12.208  1.00  0.00     0.187 C 
ENDBRANCH  13  15
ENDBRANCH   1  13
TORSDOF 5
ENDMDL
MODEL 7
REMARK VINA RESULT:      -5.2      3.760      5.729
REMARK  5 active torsions:
REMARK  status: ('A' for Active; 'I' for Inactive)
REMARK    1  A    between atoms: C_2  and  C_3 
REMARK    2  A    between atoms: C_2  and  N_11 
REMARK    3  A    between atoms: C_3  and  N_4 
REMARK    4  A    between atoms: N_11  and  C_12 
REMARK    5  A    between atoms: C_12  and  C_14 
REMARK       I    between atoms: C_14  and  N_16 
ROOT
HETATM    1  N   UNL     1     -40.462 -51.911  11.952  1.00  0.00     0.102 N 
HETATM    2  H   UNL     1     -40.706 -51.465  11.070  1.00  0.00     0.317 HD
ENDROOT
BRANCH   1   3
HETATM    3  C   UNL     1     -41.566 -52.711  12.504  1.00  0.00     0.237 C 
HETATM    4  C   UNL     1     -41.118 -54.130  12.874  1.00  0.00     0.044 C 
BRANCH   3   5
HETATM    5  C   UNL     1     -42.169 -52.044  13.761  1.00  0.00     0.183 C 
BRANCH   5   6
HETATM    6  N   UNL     1     -43.617 -52.001  13.742  1.00  0.00    -0.301 N 
HETATM    7  C   UNL     1     -44.432 -51.805  14.816  1.00  0.00     0.118 A 
HETATM    8  C   UNL     1     -45.714 -51.706  14.317  1.00  0.00    -0.028 A 
HETATM    9  C   UNL     1     -46.954 -51.400  15.059  1.00  0.00     0.051 C 
HETATM   10  C   UNL     1     -45.557 -51.941  12.931  1.00  0.00     0.115 A 
HETATM   11  N   UNL     1     -44.286 -52.158  12.582  1.00  0.00    -0.310 N 
ATOM     12  HN  UNL     1     -43.911 -52.387  11.662  1.00  0.00     0.186 HD
ENDBRANCH   5   6
ENDBRANCH   3   5
ENDBRANCH   1   3
BRANCH   1  13
HETATM   13  C   UNL     1     -39.842 -50.925  12.856  1.00  0.00     0.308 C 
HETATM   14  C   UNL     1     -38.544 -51.424  13.489  1.00  0.00     0.053 C 
BRANCH  13  15
HETATM   15  C   UNL     1     -39.554 -49.602  12.093  1.00  0.00     0.253 C 
HETATM   16  O   UNL     1     -38.547 -49.466  11.392  1.00  0.00    -0.271 OA
HETATM   17  N   UNL     1     -40.467 -48.564  12.242  1.00  0.00    -0.346 N 
HETATM   18  C   UNL     1     -41.795 -48.640  12.863  1.00  0.00     0.152 C 
HETATM   19  C   UNL     1     -40.189 -47.258  11.638  1.00  0.00     0.152 C 
HETATM   20  C   UNL     1     -42.866 -48.217  11.849  1.00  0.00     0.187 C 
HETATM   21  O   UNL     1     -42.600 -46.900  11.346  1.00  0.00    -0.388 OA
HETATM   22  C   UNL     1     -41.321 -46.851  10.689  1.00  0.00     0.187 C 
ENDBRANCH  13  15
ENDBRANCH   1  13
TORSDOF 5
ENDMDL
MODEL 8
REMARK VINA RESULT:      -5.2      4.295      6.139
REMARK  5 active torsions:
REMARK  status: ('A' for Active; 'I' for Inactive)
REMARK    1  A    between atoms: C_2  and  C_3 
REMARK    2  A    between atoms: C_2  and  N_11 
REMARK    3  A    between atoms: C_3  and  N_4 
REMARK    4  A    between atoms: N_11  and  C_12 
REMARK    5  A    between atoms: C_12  and  C_14 
REMARK       I    between atoms: C_14  and  N_16 
ROOT
HETATM    1  N   UNL     1     -40.800 -52.383  14.493  1.00  0.00     0.102 N 
HETATM    2  H   UNL     1     -41.639 -52.126  15.011  1.00  0.00     0.317 HD
ENDROOT
BRANCH   1   3
HETATM    3  C   UNL     1     -40.231 -51.251  13.744  1.00  0.00     0.237 C 
HETATM    4  C   UNL     1     -38.707 -51.175  13.891  1.00  0.00     0.044 C 
BRANCH   3   5
HETATM    5  C   UNL     1     -40.574 -51.343  12.240  1.00  0.00     0.183 C 
BRANCH   5   6
HETATM    6  N   UNL     1     -41.188 -50.138  11.722  1.00  0.00    -0.301 N 
HETATM    7  C   UNL     1     -42.225 -49.456  12.283  1.00  0.00     0.118 A 
HETATM    8  C   UNL     1     -42.389 -48.312  11.531  1.00  0.00    -0.028 A 
HETATM    9  C   UNL     1     -43.320 -47.191  11.777  1.00  0.00     0.051 C 
HETATM   10  C   UNL     1     -41.443 -48.453  10.489  1.00  0.00     0.115 A 
HETATM   11  N   UNL     1     -40.735 -49.582  10.581  1.00  0.00    -0.310 N 
ATOM     12  HN  UNL     1     -40.024 -49.938   9.942  1.00  0.00     0.186 HD
ENDBRANCH   5   6
ENDBRANCH   3   5
ENDBRANCH   1   3
BRANCH   1  13
HETATM   13  C   UNL     1     -41.042 -53.624  13.735  1.00  0.00     0.308 C 
HETATM   14  C   UNL     1     -39.860 -54.591  13.774  1.00  0.00     0.053 C 
BRANCH  13  15
HETATM   15  C   UNL     1     -42.305 -54.349  14.279  1.00  0.00     0.253 C 
HETATM   16  O   UNL     1     -42.250 -55.089  15.267  1.00  0.00    -0.271 OA
HETATM   17  N   UNL     1     -43.502 -54.149  13.601  1.00  0.00    -0.346 N 
HETATM   18  C   UNL     1     -43.767 -53.154  12.555  1.00  0.00     0.152 C 
HETATM   19  C   UNL     1     -44.698 -54.895  14.001  1.00  0.00     0.152 C 
HETATM   20  C   UNL     1     -44.918 -52.238  12.991  1.00  0.00     0.187 C 
HETATM   21  O   UNL     1     -46.093 -53.004  13.292  1.00  0.00    -0.388 OA
HETATM   22  C   UNL     1     -45.838 -53.936  14.359  1.00  0.00     0.187 C 
ENDBRANCH  13  15
ENDBRANCH   1  13
TORSDOF 5
ENDMDL
MODEL 9
REMARK VINA RESULT:      -5.2      2.011      2.243
REMARK  5 active torsions:
REMARK  status: ('A' for Active; 'I' for Inactive)
REMARK    1  A    between atoms: C_2  and  C_3 
REMARK    2  A    between atoms: C_2  and  N_11 
REMARK    3  A    between atoms: C_3  and  N_4 
REMARK    4  A    between atoms: N_11  and  C_12 
REMARK    5  A    between atoms: C_12  and  C_14 
REMARK       I    between atoms: C_14  and  N_16 
ROOT
HETATM    1  N   UNL     1     -41.198 -46.708  12.021  1.00  0.00     0.102 N 
HETATM    2  H   UNL     1     -40.298 -46.337  12.321  1.00  0.00     0.317 HD
ENDROOT
BRANCH   1   3
HETATM    3  C   UNL     1     -41.971 -45.740  11.228  1.00  0.00     0.237 C 
HETATM    4  C   UNL     1     -41.320 -44.352  11.224  1.00  0.00     0.044 C 
BRANCH   3   5
HETATM    5  C   UNL     1     -42.131 -46.211   9.765  1.00  0.00     0.183 C 
BRANCH   5   6
HETATM    6  N   UNL     1     -43.511 -46.426   9.384  1.00  0.00    -0.301 N 
HETATM    7  C   UNL     1     -44.118 -47.632   9.197  1.00  0.00     0.118 A 
HETATM    8  C   UNL     1     -45.453 -47.364   8.977  1.00  0.00    -0.028 A 
HETATM    9  C   UNL     1     -46.556 -48.333   8.812  1.00  0.00     0.051 C 
HETATM   10  C   UNL     1     -45.519 -45.951   8.972  1.00  0.00     0.115 A 
HETATM   11  N   UNL     1     -44.332 -45.376   9.183  1.00  0.00    -0.310 N 
ATOM     12  HN  UNL     1     -44.102 -44.382   9.189  1.00  0.00     0.186 HD
ENDBRANCH   5   6
ENDBRANCH   3   5
ENDBRANCH   1   3
BRANCH   1  13
HETATM   13  C   UNL     1     -41.889 -47.329  13.165  1.00  0.00     0.308 C 
HETATM   14  C   UNL     1     -43.062 -46.496  13.682  1.00  0.00     0.053 C 
BRANCH  13  15
HETATM   15  C   UNL     1     -42.408 -48.743  12.778  1.00  0.00     0.253 C 
HETATM   16  O   UNL     1     -43.504 -48.901  12.230  1.00  0.00    -0.271 OA
HETATM   17  N   UNL     1     -41.599 -49.830  13.089  1.00  0.00    -0.346 N 
HETATM   18  C   UNL     1     -40.205 -49.790  13.544  1.00  0.00     0.152 C 
HETATM   19  C   UNL     1     -42.087 -51.191  12.849  1.00  0.00     0.152 C 
HETATM   20  C   UNL     1     -39.318 -50.573  12.567  1.00  0.00     0.187 C 
HETATM   21  O   UNL     1     -39.783 -51.923  12.428  1.00  0.00    -0.388 OA
HETATM   22  C   UNL     1     -41.131 -51.952  11.925  1.00  0.00     0.187 C 
ENDBRANCH  13  15
ENDBRANCH   1  13
TORSDOF 5
ENDMDL
