MODEL 1
REMARK VINA RESULT:      -6.5      0.000      0.000
REMARK  5 active torsions:
REMARK  status: ('A' for Active; 'I' for Inactive)
REMARK    1  A    between atoms: O_2  and  C_3 
REMARK    2  A    between atoms: C_9  and  N_10 
REMARK       I    between atoms: N_10  and  C_11 
REMARK       I    between atoms: C_11  and  N_13 
REMARK    3  A    between atoms: N_13  and  C_14 
REMARK    4  A    between atoms: C_14  and  C_15 
REMARK    5  A    between atoms: C_15  and  N_18 
ROOT
HETATM    1  N   UNL     1     -42.717 -49.385  11.510  1.00  0.00    -0.305 N 
HETATM    2  C   UNL     1     -43.241 -49.708  12.739  1.00  0.00     0.320 C 
HETATM    3  O   UNL     1     -43.151 -49.041  13.758  1.00  0.00    -0.247 OA
HETATM    4  N   UNL     1     -43.947 -50.888  12.717  1.00  0.00    -0.340 N 
HETATM    5  H   UNL     1     -43.018 -49.911  10.699  1.00  0.00     0.171 HD
HETATM    6  H   UNL     1     -43.854 -51.497  11.922  1.00  0.00     0.164 HD
ENDROOT
BRANCH   1   7
HETATM    7  C   UNL     1     -41.925 -48.242  11.230  1.00  0.00     0.087 A 
HETATM    8  C   UNL     1     -42.376 -47.274  10.325  1.00  0.00     0.169 A 
HETATM    9  N   UNL     1     -41.664 -46.174   9.972  1.00  0.00    -0.345 N 
HETATM   10  C   UNL     1     -40.470 -46.004  10.571  1.00  0.00     0.090 A 
ATOM     11  HN  UNL     1     -42.017 -45.508   9.284  1.00  0.00     0.167 HD
HETATM   12  C   UNL     1     -39.955 -46.879  11.503  1.00  0.00     0.019 A 
HETATM   13  C   UNL     1     -40.685 -48.015  11.829  1.00  0.00     0.035 A 
BRANCH   8  14
HETATM   14  O   UNL     1     -43.641 -47.434   9.782  1.00  0.00    -0.339 OA
HETATM   15  C   UNL     1     -43.574 -47.556   8.358  1.00  0.00     0.211 C 
ENDBRANCH   8  14
ENDBRANCH   1   7
BRANCH   4  16
HETATM   16  C   UNL     1     -44.544 -51.381  13.953  1.00  0.00     0.165 C 
BRANCH  16  17
HETATM   17  C   UNL     1     -45.976 -51.999  13.802  1.00  0.00     0.168 C 
HETATM   18  C   UNL     1     -46.894 -51.326  14.841  1.00  0.00     0.050 C 
HETATM   19  C   UNL     1     -46.488 -51.596  12.391  1.00  0.00     0.050 C 
BRANCH  17  20
HETATM   20  N   UNL     1     -45.926 -53.491  13.874  1.00  0.00     0.103 N 
HETATM   21  C   UNL     1     -46.240 -54.128  15.171  1.00  0.00     0.299 C 
HETATM   22  C   UNL     1     -45.042 -54.275  16.125  1.00  0.00     0.198 C 
HETATM   23  O   UNL     1     -43.960 -54.980  15.510  1.00  0.00    -0.388 OA
HETATM   24  C   UNL     1     -43.558 -54.341  14.291  1.00  0.00     0.198 C 
HETATM   25  C   UNL     1     -44.741 -54.188  13.320  1.00  0.00     0.299 C 
ENDBRANCH  17  20
ENDBRANCH  16  17
ENDBRANCH   4  16
TORSDOF 5
ENDMDL
MODEL 2
REMARK VINA RESULT:      -6.4      4.768      6.163
REMARK  5 active torsions:
REMARK  status: ('A' for Active; 'I' for Inactive)
REMARK    1  A    between atoms: O_2  and  C_3 
REMARK    2  A    between atoms: C_9  and  N_10 
REMARK       I    between atoms: N_10  and  C_11 
REMARK       I    between atoms: C_11  and  N_13 
REMARK    3  A    between atoms: N_13  and  C_14 
REMARK    4  A    between atoms: C_14  and  C_15 
REMARK    5  A    between atoms: C_15  and  N_18 
ROOT
HETATM    1  N   UNL     1     -41.812 -48.201   9.656  1.00  0.00    -0.305 N 
HETATM    2  C   UNL     1     -41.592 -48.955  10.783  1.00  0.00     0.320 C 
HETATM    3  O   UNL     1     -42.327 -49.027  11.757  1.00  0.00    -0.247 OA
HETATM    4  N   UNL     1     -40.436 -49.696  10.704  1.00  0.00    -0.340 N 
HETATM    5  H   UNL     1     -41.240 -48.369   8.838  1.00  0.00     0.171 HD
HETATM    6  H   UNL     1     -39.770 -49.484   9.981  1.00  0.00     0.164 HD
ENDROOT
BRANCH   1   7
HETATM    7  C   UNL     1     -42.908 -47.322   9.458  1.00  0.00     0.087 A 
HETATM    8  C   UNL     1     -42.762 -45.948   9.685  1.00  0.00     0.169 A 
HETATM    9  N   UNL     1     -43.768 -45.046   9.558  1.00  0.00    -0.345 N 
HETATM   10  C   UNL     1     -44.961 -45.519   9.149  1.00  0.00     0.090 A 
ATOM     11  HN  UNL     1     -43.627 -44.057   9.762  1.00  0.00     0.167 HD
HETATM   12  C   UNL     1     -45.196 -46.847   8.864  1.00  0.00     0.019 A 
HETATM   13  C   UNL     1     -44.161 -47.760   9.029  1.00  0.00     0.035 A 
BRANCH   8  14
HETATM   14  O   UNL     1     -41.504 -45.479  10.029  1.00  0.00    -0.339 OA
HETATM   15  C   UNL     1     -41.468 -45.073  11.401  1.00  0.00     0.211 C 
ENDBRANCH   8  14
ENDBRANCH   1   7
BRANCH   4  16
HETATM   16  C   UNL     1     -40.050 -50.532  11.835  1.00  0.00     0.165 C 
BRANCH  16  17
HETATM   17  C   UNL     1     -38.749 -50.082  12.585  1.00  0.00     0.168 C 
HETATM   18  C   UNL     1     -38.205 -51.297  13.360  1.00  0.00     0.050 C 
HETATM   19  C   UNL     1     -37.709 -49.718  11.489  1.00  0.00     0.050 C 
BRANCH  17  20
HETATM   20  N   UNL     1     -39.004 -48.864  13.413  1.00  0.00     0.103 N 
HETATM   21  C   UNL     1     -37.830 -48.113  13.909  1.00  0.00     0.299 C 
HETATM   22  C   UNL     1     -37.261 -48.616  15.246  1.00  0.00     0.198 C 
HETATM   23  O   UNL     1     -38.261 -48.648  16.269  1.00  0.00    -0.388 OA
HETATM   24  C   UNL     1     -39.381 -49.445  15.866  1.00  0.00     0.198 C 
HETATM   25  C   UNL     1     -39.970 -48.956  14.532  1.00  0.00     0.299 C 
ENDBRANCH  17  20
ENDBRANCH  16  17
ENDBRANCH   4  16
TORSDOF 5
ENDMDL
MODEL 3
REMARK VINA RESULT:      -6.3      1.316      1.690
REMARK  5 active torsions:
REMARK  status: ('A' for Active; 'I' for Inactive)
REMARK    1  A    between atoms: O_2  and  C_3 
REMARK    2  A    between atoms: C_9  and  N_10 
REMARK       I    between atoms: N_10  and  C_11 
REMARK       I    between atoms: C_11  and  N_13 
REMARK    3  A    between atoms: N_13  and  C_14 
REMARK    4  A    between atoms: C_14  and  C_15 
REMARK    5  A    between atoms: C_15  and  N_18 
ROOT
HETATM    1  N   UNL     1     -41.728 -49.518  11.026  1.00  0.00    -0.305 N 
HETATM    2  C   UNL     1     -41.935 -50.129  12.238  1.00  0.00     0.320 C 
HETATM    3  O   UNL     1     -41.904 -49.587  13.333  1.00  0.00    -0.247 OA
HETATM    4  N   UNL     1     -42.238 -51.464  12.111  1.00  0.00    -0.340 N 
HETATM    5  H   UNL     1     -41.969 -50.020  10.180  1.00  0.00     0.171 HD
HETATM    6  H   UNL     1     -42.081 -51.918  11.227  1.00  0.00     0.164 HD
ENDROOT
BRANCH   1   7
HETATM    7  C   UNL     1     -41.379 -48.155  10.842  1.00  0.00     0.087 A 
HETATM    8  C   UNL     1     -42.210 -47.307  10.101  1.00  0.00     0.169 A 
HETATM    9  N   UNL     1     -41.931 -46.004   9.845  1.00  0.00    -0.345 N 
HETATM   10  C   UNL     1     -40.798 -45.508  10.379  1.00  0.00     0.090 A 
ATOM     11  HN  UNL     1     -42.551 -45.427   9.275  1.00  0.00     0.167 HD
HETATM   12  C   UNL     1     -39.933 -46.251  11.152  1.00  0.00     0.019 A 
HETATM   13  C   UNL     1     -40.221 -47.591  11.378  1.00  0.00     0.035 A 
BRANCH   8  14
HETATM   14  O   UNL     1     -43.408 -47.822   9.630  1.00  0.00    -0.339 OA
HETATM   15  C   UNL     1     -43.580 -47.526   8.242  1.00  0.00     0.211 C 
ENDBRANCH   8  14
ENDBRANCH   1   7
BRANCH   4  16
HETATM   16  C   UNL     1     -42.461 -52.260  13.313  1.00  0.00     0.165 C 
BRANCH  16  17
HETATM   17  C   UNL     1     -43.948 -52.681  13.569  1.00  0.00     0.168 C 
HETATM   18  C   UNL     1     -44.662 -51.503  14.260  1.00  0.00     0.050 C 
HETATM   19  C   UNL     1     -44.602 -52.873  12.172  1.00  0.00     0.050 C 
BRANCH  17  20
HETATM   20  N   UNL     1     -44.018 -53.982  14.302  1.00  0.00     0.103 N 
HETATM   21  C   UNL     1     -45.185 -54.853  14.044  1.00  0.00     0.299 C 
HETATM   22  C   UNL     1     -46.414 -54.561  14.923  1.00  0.00     0.198 C 
HETATM   23  O   UNL     1     -46.093 -54.610  16.316  1.00  0.00    -0.388 OA
HETATM   24  C   UNL     1     -45.024 -53.709  16.628  1.00  0.00     0.198 C 
HETATM   25  C   UNL     1     -43.782 -53.986  15.764  1.00  0.00     0.299 C 
ENDBRANCH  17  20
ENDBRANCH  16  17
ENDBRANCH   4  16
TORSDOF 5
ENDMDL
MODEL 4
REMARK VINA RESULT:      -6.3      1.748      7.611
REMARK  5 active torsions:
REMARK  status: ('A' for Active; 'I' for Inactive)
REMARK    1  A    between atoms: O_2  and  C_3 
REMARK    2  A    between atoms: C_9  and  N_10 
REMARK       I    between atoms: N_10  and  C_11 
REMARK       I    between atoms: C_11  and  N_13 
REMARK    3  A    between atoms: N_13  and  C_14 
REMARK    4  A    between atoms: C_14  and  C_15 
REMARK    5  A    between atoms: C_15  and  N_18 
ROOT
HETATM    1  N   UNL     1     -43.762 -52.103  12.302  1.00  0.00    -0.305 N 
HETATM    2  C   UNL     1     -42.743 -51.381  12.875  1.00  0.00     0.320 C 
HETATM    3  O   UNL     1     -42.362 -51.467  14.033  1.00  0.00    -0.247 OA
HETATM    4  N   UNL     1     -42.126 -50.538  11.981  1.00  0.00    -0.340 N 
HETATM    5  H   UNL     1     -43.860 -52.090  11.294  1.00  0.00     0.171 HD
HETATM    6  H   UNL     1     -42.569 -50.357  11.096  1.00  0.00     0.164 HD
ENDROOT
BRANCH   1   7
HETATM    7  C   UNL     1     -44.591 -53.033  12.979  1.00  0.00     0.087 A 
HETATM    8  C   UNL     1     -45.927 -52.719  13.254  1.00  0.00     0.169 A 
HETATM    9  N   UNL     1     -46.775 -53.534  13.931  1.00  0.00    -0.345 N 
HETATM   10  C   UNL     1     -46.290 -54.729  14.319  1.00  0.00     0.090 A 
ATOM     11  HN  UNL     1     -47.734 -53.254  14.137  1.00  0.00     0.167 HD
HETATM   12  C   UNL     1     -45.002 -55.147  14.064  1.00  0.00     0.019 A 
HETATM   13  C   UNL     1     -44.140 -54.286  13.396  1.00  0.00     0.035 A 
BRANCH   8  14
HETATM   14  O   UNL     1     -46.421 -51.516  12.776  1.00  0.00    -0.339 OA
HETATM   15  C   UNL     1     -47.171 -51.714  11.573  1.00  0.00     0.211 C 
ENDBRANCH   8  14
ENDBRANCH   1   7
BRANCH   4  16
HETATM   16  C   UNL     1     -41.038 -49.684  12.444  1.00  0.00     0.165 C 
BRANCH  16  17
HETATM   17  C   UNL     1     -41.309 -48.144  12.344  1.00  0.00     0.168 C 
HETATM   18  C   UNL     1     -42.714 -47.872  12.913  1.00  0.00     0.050 C 
HETATM   19  C   UNL     1     -40.279 -47.450  13.279  1.00  0.00     0.050 C 
BRANCH  17  20
HETATM   20  N   UNL     1     -41.083 -47.651  10.951  1.00  0.00     0.103 N 
HETATM   21  C   UNL     1     -40.431 -46.333  10.786  1.00  0.00     0.299 C 
HETATM   22  C   UNL     1     -41.392 -45.132  10.805  1.00  0.00     0.198 C 
HETATM   23  O   UNL     1     -42.427 -45.267   9.826  1.00  0.00    -0.388 OA
HETATM   24  C   UNL     1     -43.148 -46.492  10.007  1.00  0.00     0.198 C 
HETATM   25  C   UNL     1     -42.206 -47.708   9.987  1.00  0.00     0.299 C 
ENDBRANCH  17  20
ENDBRANCH  16  17
ENDBRANCH   4  16
TORSDOF 5
ENDMDL
MODEL 5
REMARK VINA RESULT:      -6.2      2.000      7.800
REMARK  5 active torsions:
REMARK  status: ('A' for Active; 'I' for Inactive)
REMARK    1  A    between atoms: O_2  and  C_3 
REMARK    2  A    between atoms: C_9  and  N_10 
REMARK       I    between atoms: N_10  and  C_11 
REMARK       I    between atoms: C_11  and  N_13 
REMARK    3  A    between atoms: N_13  and  C_14 
REMARK    4  A    between atoms: C_14  and  C_15 
REMARK    5  A    between atoms: C_15  and  N_18 
ROOT
HETATM    1  N   UNL     1     -43.092 -52.287  12.200  1.00  0.00    -0.305 N 
HETATM    2  C   UNL     1     -42.482 -51.175  12.727  1.00  0.00     0.320 C 
HETATM    3  O   UNL     1     -42.376 -50.904  13.913  1.00  0.00    -0.247 OA
HETATM    4  N   UNL     1     -41.935 -50.366  11.758  1.00  0.00    -0.340 N 
HETATM    5  H   UNL     1     -42.950 -52.504  11.222  1.00  0.00     0.171 HD
HETATM    6  H   UNL     1     -42.189 -50.516  10.796  1.00  0.00     0.164 HD
ENDROOT
BRANCH   1   7
HETATM    7  C   UNL     1     -43.761 -53.288  12.950  1.00  0.00     0.087 A 
HETATM    8  C   UNL     1     -45.148 -53.444  12.842  1.00  0.00     0.169 A 
HETATM    9  N   UNL     1     -45.869 -54.348  13.552  1.00  0.00    -0.345 N 
HETATM   10  C   UNL     1     -45.182 -55.160  14.377  1.00  0.00     0.090 A 
ATOM     11  HN  UNL     1     -46.884 -54.408  13.464  1.00  0.00     0.167 HD
HETATM   12  C   UNL     1     -43.813 -55.111  14.528  1.00  0.00     0.019 A 
HETATM   13  C   UNL     1     -43.096 -54.159  13.814  1.00  0.00     0.035 A 
BRANCH   8  14
HETATM   14  O   UNL     1     -45.819 -52.648  11.927  1.00  0.00    -0.339 OA
HETATM   15  C   UNL     1     -46.543 -51.607  12.590  1.00  0.00     0.211 C 
ENDBRANCH   8  14
ENDBRANCH   1   7
BRANCH   4  16
HETATM   16  C   UNL     1     -41.272 -49.129  12.156  1.00  0.00     0.165 C 
BRANCH  16  17
HETATM   17  C   UNL     1     -41.934 -47.814  11.621  1.00  0.00     0.168 C 
HETATM   18  C   UNL     1     -42.029 -47.922  10.087  1.00  0.00     0.050 C 
HETATM   19  C   UNL     1     -43.384 -47.787  12.181  1.00  0.00     0.050 C 
BRANCH  17  20
HETATM   20  N   UNL     1     -41.213 -46.607  12.128  1.00  0.00     0.103 N 
HETATM   21  C   UNL     1     -42.004 -45.376  12.346  1.00  0.00     0.299 C 
HETATM   22  C   UNL     1     -42.153 -44.477  11.106  1.00  0.00     0.198 C 
HETATM   23  O   UNL     1     -40.882 -44.124  10.552  1.00  0.00    -0.388 OA
HETATM   24  C   UNL     1     -40.116 -45.293  10.238  1.00  0.00     0.198 C 
HETATM   25  C   UNL     1     -39.950 -46.205  11.466  1.00  0.00     0.299 C 
ENDBRANCH  17  20
ENDBRANCH  16  17
ENDBRANCH   4  16
TORSDOF 5
ENDMDL
MODEL 6
REMARK VINA RESULT:      -6.1      2.520      7.077
REMARK  5 active torsions:
REMARK  status: ('A' for Active; 'I' for Inactive)
REMARK    1  A    between atoms: O_2  and  C_3 
REMARK    2  A    between atoms: C_9  and  N_10 
REMARK       I    between atoms: N_10  and  C_11 
REMARK       I    between atoms: C_11  and  N_13 
REMARK    3  A    between atoms: N_13  and  C_14 
REMARK    4  A    between atoms: C_14  and  C_15 
REMARK    5  A    between atoms: C_15  and  N_18 
ROOT
HETATM    1  N   UNL     1     -44.528 -50.745  12.824  1.00  0.00    -0.305 N 
HETATM    2  C   UNL     1     -43.463 -50.092  13.396  1.00  0.00     0.320 C 
HETATM    3  O   UNL     1     -43.054 -50.245  14.537  1.00  0.00    -0.247 OA
HETATM    4  N   UNL     1     -42.837 -49.237  12.520  1.00  0.00    -0.340 N 
HETATM    5  H   UNL     1     -44.654 -50.684  11.821  1.00  0.00     0.171 HD
HETATM    6  H   UNL     1     -43.297 -48.998  11.658  1.00  0.00     0.164 HD
ENDROOT
BRANCH   1   7
HETATM    7  C   UNL     1     -45.376 -51.669  13.485  1.00  0.00     0.087 A 
HETATM    8  C   UNL     1     -45.330 -53.029  13.159  1.00  0.00     0.169 A 
HETATM    9  N   UNL     1     -46.134 -53.971  13.715  1.00  0.00    -0.345 N 
HETATM   10  C   UNL     1     -46.994 -53.554  14.663  1.00  0.00     0.090 A 
ATOM     11  HN  UNL     1     -46.088 -54.949  13.427  1.00  0.00     0.167 HD
HETATM   12  C   UNL     1     -47.090 -52.245  15.081  1.00  0.00     0.019 A 
HETATM   13  C   UNL     1     -46.280 -51.290  14.479  1.00  0.00     0.035 A 
BRANCH   8  14
HETATM   14  O   UNL     1     -44.382 -53.442  12.236  1.00  0.00    -0.339 OA
HETATM   15  C   UNL     1     -43.204 -53.920  12.894  1.00  0.00     0.211 C 
ENDBRANCH   8  14
ENDBRANCH   1   7
BRANCH   4  16
HETATM   16  C   UNL     1     -41.700 -48.449  12.987  1.00  0.00     0.165 C 
BRANCH  16  17
HETATM   17  C   UNL     1     -40.347 -48.726  12.247  1.00  0.00     0.168 C 
HETATM   18  C   UNL     1     -40.627 -49.720  11.104  1.00  0.00     0.050 C 
HETATM   19  C   UNL     1     -39.910 -47.380  11.604  1.00  0.00     0.050 C 
BRANCH  17  20
HETATM   20  N   UNL     1     -39.287 -49.151  13.211  1.00  0.00     0.103 N 
HETATM   21  C   UNL     1     -37.902 -49.260  12.705  1.00  0.00     0.299 C 
HETATM   22  C   UNL     1     -37.549 -50.621  12.079  1.00  0.00     0.198 C 
HETATM   23  O   UNL     1     -37.802 -51.700  12.984  1.00  0.00    -0.388 OA
HETATM   24  C   UNL     1     -39.163 -51.688  13.430  1.00  0.00     0.198 C 
HETATM   25  C   UNL     1     -39.537 -50.337  14.063  1.00  0.00     0.299 C 
ENDBRANCH  17  20
ENDBRANCH  16  17
ENDBRANCH   4  16
TORSDOF 5
ENDMDL
MODEL 7
REMARK VINA RESULT:      -5.9      2.591      7.524
REMARK  5 active torsions:
REMARK  status: ('A' for Active; 'I' for Inactive)
REMARK    1  A    between atoms: O_2  and  C_3 
REMARK    2  A    between atoms: C_9  and  N_10 
REMARK       I    between atoms: N_10  and  C_11 
REMARK       I    between atoms: C_11  and  N_13 
REMARK    3  A    between atoms: N_13  and  C_14 
REMARK    4  A    between atoms: C_14  and  C_15 
REMARK    5  A    between atoms: C_15  and  N_18 
ROOT
HETATM    1  N   UNL     1     -43.793 -52.106  12.423  1.00  0.00    -0.305 N 
HETATM    2  C   UNL     1     -42.520 -51.857  12.874  1.00  0.00     0.320 C 
HETATM    3  O   UNL     1     -42.167 -51.798  14.042  1.00  0.00    -0.247 OA
HETATM    4  N   UNL     1     -41.617 -51.711  11.847  1.00  0.00    -0.340 N 
HETATM    5  H   UNL     1     -43.930 -52.324  11.444  1.00  0.00     0.171 HD
HETATM    6  H   UNL     1     -41.960 -51.586  10.909  1.00  0.00     0.164 HD
ENDROOT
BRANCH   1   7
HETATM    7  C   UNL     1     -44.936 -52.278  13.246  1.00  0.00     0.087 A 
HETATM    8  C   UNL     1     -45.328 -53.559  13.653  1.00  0.00     0.169 A 
HETATM    9  N   UNL     1     -46.428 -53.814  14.405  1.00  0.00    -0.345 N 
HETATM   10  C   UNL     1     -47.150 -52.750  14.805  1.00  0.00     0.090 A 
ATOM     11  HN  UNL     1     -46.695 -54.766  14.655  1.00  0.00     0.167 HD
HETATM   12  C   UNL     1     -46.828 -51.448  14.490  1.00  0.00     0.019 A 
HETATM   13  C   UNL     1     -45.714 -51.210  13.693  1.00  0.00     0.035 A 
BRANCH   8  14
HETATM   14  O   UNL     1     -44.522 -54.628  13.292  1.00  0.00    -0.339 OA
HETATM   15  C   UNL     1     -43.736 -55.072  14.401  1.00  0.00     0.211 C 
ENDBRANCH   8  14
ENDBRANCH   1   7
BRANCH   4  16
HETATM   16  C   UNL     1     -40.223 -51.417  12.163  1.00  0.00     0.165 C 
BRANCH  16  17
HETATM   17  C   UNL     1     -39.824 -49.904  12.077  1.00  0.00     0.168 C 
HETATM   18  C   UNL     1     -38.395 -49.821  11.508  1.00  0.00     0.050 C 
HETATM   19  C   UNL     1     -40.783 -49.250  11.043  1.00  0.00     0.050 C 
BRANCH  17  20
HETATM   20  N   UNL     1     -40.022 -49.224  13.394  1.00  0.00     0.103 N 
HETATM   21  C   UNL     1     -40.463 -47.812  13.378  1.00  0.00     0.299 C 
HETATM   22  C   UNL     1     -39.324 -46.782  13.282  1.00  0.00     0.198 C 
HETATM   23  O   UNL     1     -38.361 -46.958  14.325  1.00  0.00    -0.388 OA
HETATM   24  C   UNL     1     -37.836 -48.292  14.319  1.00  0.00     0.198 C 
HETATM   25  C   UNL     1     -38.959 -49.339  14.419  1.00  0.00     0.299 C 
ENDBRANCH  17  20
ENDBRANCH  16  17
ENDBRANCH   4  16
TORSDOF 5
ENDMDL
MODEL 8
REMARK VINA RESULT:      -5.7      2.484      3.286
REMARK  5 active torsions:
REMARK  status: ('A' for Active; 'I' for Inactive)
REMARK    1  A    between atoms: O_2  and  C_3 
REMARK    2  A    between atoms: C_9  and  N_10 
REMARK       I    between atoms: N_10  and  C_11 
REMARK       I    between atoms: C_11  and  N_13 
REMARK    3  A    between atoms: N_13  and  C_14 
REMARK    4  A    between atoms: C_14  and  C_15 
REMARK    5  A    between atoms: C_15  and  N_18 
ROOT
HETATM    1  N   UNL     1     -42.251 -50.746  12.620  1.00  0.00    -0.305 N 
HETATM    2  C   UNL     1     -42.792 -50.789  13.882  1.00  0.00     0.320 C 
HETATM    3  O   UNL     1     -42.260 -50.392  14.908  1.00  0.00    -0.247 OA
HETATM    4  N   UNL     1     -44.066 -51.307  13.891  1.00  0.00    -0.340 N 
HETATM    5  H   UNL     1     -42.853 -50.921  11.826  1.00  0.00     0.171 HD
HETATM    6  H   UNL     1     -44.404 -51.785  13.074  1.00  0.00     0.164 HD
ENDROOT
BRANCH   1   7
HETATM    7  C   UNL     1     -40.948 -50.284  12.301  1.00  0.00     0.087 A 
HETATM    8  C   UNL     1     -39.868 -51.175  12.282  1.00  0.00     0.169 A 
HETATM    9  N   UNL     1     -38.586 -50.809  12.027  1.00  0.00    -0.345 N 
HETATM   10  C   UNL     1     -38.370 -49.511  11.739  1.00  0.00     0.090 A 
ATOM     11  HN  UNL     1     -37.823 -51.485  12.052  1.00  0.00     0.167 HD
HETATM   12  C   UNL     1     -39.370 -48.564  11.695  1.00  0.00     0.019 A 
HETATM   13  C   UNL     1     -40.672 -48.953  11.989  1.00  0.00     0.035 A 
BRANCH   8  14
HETATM   14  O   UNL     1     -40.131 -52.517  12.505  1.00  0.00    -0.339 OA
HETATM   15  C   UNL     1     -39.654 -52.924  13.791  1.00  0.00     0.211 C 
ENDBRANCH   8  14
ENDBRANCH   1   7
BRANCH   4  16
HETATM   16  C   UNL     1     -44.768 -51.443  15.163  1.00  0.00     0.165 C 
BRANCH  16  17
HETATM   17  C   UNL     1     -46.207 -52.055  15.069  1.00  0.00     0.168 C 
HETATM   18  C   UNL     1     -47.159 -51.157  15.882  1.00  0.00     0.050 C 
HETATM   19  C   UNL     1     -46.632 -51.965  13.577  1.00  0.00     0.050 C 
BRANCH  17  20
HETATM   20  N   UNL     1     -46.202 -53.496  15.468  1.00  0.00     0.103 N 
HETATM   21  C   UNL     1     -45.292 -53.903  16.561  1.00  0.00     0.299 C 
HETATM   22  C   UNL     1     -43.866 -54.265  16.112  1.00  0.00     0.198 C 
HETATM   23  O   UNL     1     -43.869 -55.281  15.105  1.00  0.00    -0.388 OA
HETATM   24  C   UNL     1     -44.666 -54.887  13.982  1.00  0.00     0.198 C 
HETATM   25  C   UNL     1     -46.100 -54.525  14.407  1.00  0.00     0.299 C 
ENDBRANCH  17  20
ENDBRANCH  16  17
ENDBRANCH   4  16
TORSDOF 5
ENDMDL
MODEL 9
REMARK VINA RESULT:      -5.7      2.560      7.946
REMARK  5 active torsions:
REMARK  status: ('A' for Active; 'I' for Inactive)
REMARK    1  A    between atoms: O_2  and  C_3 
REMARK    2  A    between atoms: C_9  and  N_10 
REMARK       I    between atoms: N_10  and  C_11 
REMARK       I    between atoms: C_11  and  N_13 
REMARK    3  A    between atoms: N_13  and  C_14 
REMARK    4  A    between atoms: C_14  and  C_15 
REMARK    5  A    between atoms: C_15  and  N_18 
ROOT
HETATM    1  N   UNL     1     -42.055 -51.683  11.760  1.00  0.00    -0.305 N 
HETATM    2  C   UNL     1     -41.681 -50.400  12.082  1.00  0.00     0.320 C 
HETATM    3  O   UNL     1     -41.560 -49.948  13.211  1.00  0.00    -0.247 OA
HETATM    4  N   UNL     1     -41.400 -49.638  10.972  1.00  0.00    -0.340 N 
HETATM    5  H   UNL     1     -41.933 -52.000  10.806  1.00  0.00     0.171 HD
HETATM    6  H   UNL     1     -41.679 -49.975  10.066  1.00  0.00     0.164 HD
ENDROOT
BRANCH   1   7
HETATM    7  C   UNL     1     -42.425 -52.688  12.689  1.00  0.00     0.087 A 
HETATM    8  C   UNL     1     -41.445 -53.471  13.310  1.00  0.00     0.169 A 
HETATM    9  N   UNL     1     -41.715 -54.478  14.179  1.00  0.00    -0.345 N 
HETATM   10  C   UNL     1     -43.011 -54.694  14.476  1.00  0.00     0.090 A 
ATOM     11  HN  UNL     1     -40.972 -55.045  14.588  1.00  0.00     0.167 HD
HETATM   12  C   UNL     1     -44.046 -53.954  13.946  1.00  0.00     0.019 A 
HETATM   13  C   UNL     1     -43.751 -52.947  13.036  1.00  0.00     0.035 A 
BRANCH   8  14
HETATM   14  O   UNL     1     -40.116 -53.176  13.047  1.00  0.00    -0.339 OA
HETATM   15  C   UNL     1     -39.251 -53.865  13.954  1.00  0.00     0.211 C 
ENDBRANCH   8  14
ENDBRANCH   1   7
BRANCH   4  16
HETATM   16  C   UNL     1     -41.013 -48.243  11.149  1.00  0.00     0.165 C 
BRANCH  16  17
HETATM   17  C   UNL     1     -42.092 -47.191  10.718  1.00  0.00     0.168 C 
HETATM   18  C   UNL     1     -42.860 -47.766   9.513  1.00  0.00     0.050 C 
HETATM   19  C   UNL     1     -43.092 -47.072  11.901  1.00  0.00     0.050 C 
BRANCH  17  20
HETATM   20  N   UNL     1     -41.471 -45.850  10.493  1.00  0.00     0.103 N 
HETATM   21  C   UNL     1     -40.043 -45.687  10.841  1.00  0.00     0.299 C 
HETATM   22  C   UNL     1     -39.776 -45.304  12.307  1.00  0.00     0.198 C 
HETATM   23  O   UNL     1     -40.486 -44.120  12.683  1.00  0.00    -0.388 OA
HETATM   24  C   UNL     1     -41.891 -44.269  12.449  1.00  0.00     0.198 C 
HETATM   25  C   UNL     1     -42.182 -44.647  10.986  1.00  0.00     0.299 C 
ENDBRANCH  17  20
ENDBRANCH  16  17
ENDBRANCH   4  16
TORSDOF 5
ENDMDL
