MODEL 1
REMARK VINA RESULT:      -5.3      0.000      0.000
REMARK  4 active torsions:
REMARK  status: ('A' for Active; 'I' for Inactive)
REMARK    1  A    between atoms: C_9  and  C_10 
REMARK    2  A    between atoms: C_10  and  C_11 
REMARK       I    between atoms: C_11  and  N_13 
REMARK    3  A    between atoms: N_13  and  C_14 
REMARK    4  A    between atoms: C_14  and  C_15 
ROOT
HETATM    1  C   UNL     1     -44.172 -50.388  13.294  1.00  0.00     0.145 C 
ENDROOT
BRANCH   1   2
HETATM    2  C   UNL     1     -45.054 -51.539  13.675  1.00  0.00    -0.002 A 
HETATM    3  C   UNL     1     -46.201 -52.085  13.022  1.00  0.00     0.030 A 
HETATM    4  C   UNL     1     -46.869 -51.676  11.758  1.00  0.00     0.070 C 
HETATM    5  N   UNL     1     -46.719 -53.110  13.707  1.00  0.00    -0.303 N 
HETATM    6  N   UNL     1     -45.958 -53.207  14.803  1.00  0.00    -0.300 N 
ATOM      7  HN  UNL     1     -47.518 -53.690  13.450  1.00  0.00     0.186 HD
HETATM    8  C   UNL     1     -46.274 -54.222  15.779  1.00  0.00     0.177 C 
HETATM    9  C   UNL     1     -44.951 -52.280  14.848  1.00  0.00     0.033 A 
HETATM   10  C   UNL     1     -44.002 -52.150  15.986  1.00  0.00     0.070 C 
ENDBRANCH   1   2
BRANCH   1  11
HETATM   11  C   UNL     1     -42.765 -50.763  12.866  1.00  0.00     0.222 C 
HETATM   12  O   UNL     1     -41.795 -50.080  13.195  1.00  0.00    -0.273 OA
HETATM   13  N   UNL     1     -42.627 -51.910  12.100  1.00  0.00    -0.358 N 
HETATM   14  H   UNL     1     -43.357 -52.609  12.130  1.00  0.00     0.162 HD
BRANCH  13  15
HETATM   15  C   UNL     1     -41.273 -52.352  11.803  1.00  0.00     0.154 C 
BRANCH  15  16
HETATM   16  C   UNL     1     -40.663 -53.426  12.701  1.00  0.00     0.139 C 
HETATM   17  C   UNL     1     -41.496 -53.924  13.868  1.00  0.00     0.035 C 
HETATM   18  C   UNL     1     -40.454 -54.503  14.814  1.00  0.00     0.029 C 
HETATM   19  C   UNL     1     -39.119 -54.048  14.247  1.00  0.00     0.168 C 
HETATM   20  O   UNL     1     -39.431 -53.005  13.310  1.00  0.00    -0.384 OA
ENDBRANCH  15  16
ENDBRANCH  13  15
ENDBRANCH   1  11
TORSDOF 4
ENDMDL
MODEL 2
REMARK VINA RESULT:      -5.2      2.734      4.971
REMARK  4 active torsions:
REMARK  status: ('A' for Active; 'I' for Inactive)
REMARK    1  A    between atoms: C_9  and  C_10 
REMARK    2  A    between atoms: C_10  and  C_11 
REMARK       I    between atoms: C_11  and  N_13 
REMARK    3  A    between atoms: N_13  and  C_14 
REMARK    4  A    between atoms: C_14  and  C_15 
ROOT
HETATM    1  C   UNL     1     -41.169 -52.772  11.963  1.00  0.00     0.145 C 
ENDROOT
BRANCH   1   2
HETATM    2  C   UNL     1     -41.860 -53.573  13.026  1.00  0.00    -0.002 A 
HETATM    3  C   UNL     1     -43.249 -53.823  13.244  1.00  0.00     0.030 A 
HETATM    4  C   UNL     1     -44.437 -53.362  12.477  1.00  0.00     0.070 C 
HETATM    5  N   UNL     1     -43.452 -54.579  14.328  1.00  0.00    -0.303 N 
HETATM    6  N   UNL     1     -42.230 -54.786  14.832  1.00  0.00    -0.300 N 
ATOM      7  HN  UNL     1     -44.341 -54.923  14.690  1.00  0.00     0.186 HD
HETATM    8  C   UNL     1     -42.102 -55.563  16.042  1.00  0.00     0.177 C 
HETATM    9  C   UNL     1     -41.234 -54.193  14.103  1.00  0.00     0.033 A 
HETATM   10  C   UNL     1     -39.797 -54.234  14.485  1.00  0.00     0.070 C 
ENDBRANCH   1   2
BRANCH   1  11
HETATM   11  C   UNL     1     -41.119 -51.275  12.209  1.00  0.00     0.222 C 
HETATM   12  O   UNL     1     -41.369 -50.803  13.318  1.00  0.00    -0.273 OA
HETATM   13  N   UNL     1     -40.772 -50.474  11.131  1.00  0.00    -0.358 N 
HETATM   14  H   UNL     1     -40.261 -50.884  10.361  1.00  0.00     0.162 HD
BRANCH  13  15
HETATM   15  C   UNL     1     -40.588 -49.054  11.392  1.00  0.00     0.154 C 
BRANCH  15  16
HETATM   16  C   UNL     1     -41.679 -48.097  10.916  1.00  0.00     0.139 C 
HETATM   17  C   UNL     1     -43.017 -48.142  11.632  1.00  0.00     0.035 C 
HETATM   18  C   UNL     1     -43.973 -47.537  10.615  1.00  0.00     0.029 C 
HETATM   19  C   UNL     1     -43.170 -47.454   9.327  1.00  0.00     0.168 C 
HETATM   20  O   UNL     1     -42.020 -48.290   9.533  1.00  0.00    -0.384 OA
ENDBRANCH  15  16
ENDBRANCH  13  15
ENDBRANCH   1  11
TORSDOF 4
ENDMDL
MODEL 3
REMARK VINA RESULT:      -5.1      2.208      4.800
REMARK  4 active torsions:
REMARK  status: ('A' for Active; 'I' for Inactive)
REMARK    1  A    between atoms: C_9  and  C_10 
REMARK    2  A    between atoms: C_10  and  C_11 
REMARK       I    between atoms: C_11  and  N_13 
REMARK    3  A    between atoms: N_13  and  C_14 
REMARK    4  A    between atoms: C_14  and  C_15 
ROOT
HETATM    1  C   UNL     1     -41.065 -53.853  12.580  1.00  0.00     0.145 C 
ENDROOT
BRANCH   1   2
HETATM    2  C   UNL     1     -42.070 -54.040  13.678  1.00  0.00    -0.002 A 
HETATM    3  C   UNL     1     -41.906 -54.530  15.010  1.00  0.00     0.030 A 
HETATM    4  C   UNL     1     -40.685 -55.004  15.714  1.00  0.00     0.070 C 
HETATM    5  N   UNL     1     -43.068 -54.559  15.672  1.00  0.00    -0.303 N 
HETATM    6  N   UNL     1     -43.977 -54.139  14.784  1.00  0.00    -0.300 N 
ATOM      7  HN  UNL     1     -43.226 -54.839  16.640  1.00  0.00     0.186 HD
HETATM    8  C   UNL     1     -45.361 -54.075  15.187  1.00  0.00     0.177 C 
HETATM    9  C   UNL     1     -43.439 -53.828  13.564  1.00  0.00     0.033 A 
HETATM   10  C   UNL     1     -44.248 -53.387  12.396  1.00  0.00     0.070 C 
ENDBRANCH   1   2
BRANCH   1  11
HETATM   11  C   UNL     1     -40.462 -52.464  12.483  1.00  0.00     0.222 C 
HETATM   12  O   UNL     1     -39.508 -52.133  13.186  1.00  0.00    -0.273 OA
HETATM   13  N   UNL     1     -41.030 -51.597  11.561  1.00  0.00    -0.358 N 
HETATM   14  H   UNL     1     -41.560 -51.980  10.791  1.00  0.00     0.162 HD
BRANCH  13  15
HETATM   15  C   UNL     1     -40.372 -50.314  11.365  1.00  0.00     0.154 C 
BRANCH  15  16
HETATM   16  C   UNL     1     -41.225 -49.053  11.482  1.00  0.00     0.139 C 
HETATM   17  C   UNL     1     -42.567 -49.173  12.180  1.00  0.00     0.035 C 
HETATM   18  C   UNL     1     -43.343 -47.978  11.646  1.00  0.00     0.029 C 
HETATM   19  C   UNL     1     -42.495 -47.444  10.503  1.00  0.00     0.168 C 
HETATM   20  O   UNL     1     -41.550 -48.483  10.203  1.00  0.00    -0.384 OA
ENDBRANCH  15  16
ENDBRANCH  13  15
ENDBRANCH   1  11
TORSDOF 4
ENDMDL
MODEL 4
REMARK VINA RESULT:      -5.1      2.034      2.834
REMARK  4 active torsions:
REMARK  status: ('A' for Active; 'I' for Inactive)
REMARK    1  A    between atoms: C_9  and  C_10 
REMARK    2  A    between atoms: C_10  and  C_11 
REMARK       I    between atoms: C_11  and  N_13 
REMARK    3  A    between atoms: N_13  and  C_14 
REMARK    4  A    between atoms: C_14  and  C_15 
ROOT
HETATM    1  C   UNL     1     -45.190 -54.584  13.785  1.00  0.00     0.145 C 
ENDROOT
BRANCH   1   2
HETATM    2  C   UNL     1     -45.929 -53.399  14.333  1.00  0.00    -0.002 A 
HETATM    3  C   UNL     1     -46.463 -52.252  13.670  1.00  0.00     0.030 A 
HETATM    4  C   UNL     1     -46.448 -51.885  12.230  1.00  0.00     0.070 C 
HETATM    5  N   UNL     1     -47.039 -51.407  14.531  1.00  0.00    -0.303 N 
HETATM    6  N   UNL     1     -46.851 -51.965  15.733  1.00  0.00    -0.300 N 
ATOM      7  HN  UNL     1     -47.517 -50.531  14.319  1.00  0.00     0.186 HD
HETATM    8  C   UNL     1     -47.345 -51.276  16.902  1.00  0.00     0.177 C 
HETATM    9  C   UNL     1     -46.176 -53.155  15.680  1.00  0.00     0.033 A 
HETATM   10  C   UNL     1     -45.800 -53.943  16.883  1.00  0.00     0.070 C 
ENDBRANCH   1   2
BRANCH   1  11
HETATM   11  C   UNL     1     -43.678 -54.516  13.905  1.00  0.00     0.222 C 
HETATM   12  O   UNL     1     -43.093 -55.000  14.874  1.00  0.00    -0.273 OA
HETATM   13  N   UNL     1     -42.995 -53.893  12.872  1.00  0.00    -0.358 N 
HETATM   14  H   UNL     1     -43.441 -53.813  11.968  1.00  0.00     0.162 HD
BRANCH  13  15
HETATM   15  C   UNL     1     -41.541 -53.945  12.912  1.00  0.00     0.154 C 
BRANCH  15  16
HETATM   16  C   UNL     1     -40.789 -52.635  13.143  1.00  0.00     0.139 C 
HETATM   17  C   UNL     1     -40.882 -51.571  12.065  1.00  0.00     0.035 C 
HETATM   18  C   UNL     1     -39.651 -50.713  12.320  1.00  0.00     0.029 C 
HETATM   19  C   UNL     1     -38.828 -51.503  13.325  1.00  0.00     0.168 C 
HETATM   20  O   UNL     1     -39.376 -52.831  13.316  1.00  0.00    -0.384 OA
ENDBRANCH  15  16
ENDBRANCH  13  15
ENDBRANCH   1  11
TORSDOF 4
ENDMDL
MODEL 5
REMARK VINA RESULT:      -5.0      2.438      4.276
REMARK  4 active torsions:
REMARK  status: ('A' for Active; 'I' for Inactive)
REMARK    1  A    between atoms: C_9  and  C_10 
REMARK    2  A    between atoms: C_10  and  C_11 
REMARK       I    between atoms: C_11  and  N_13 
REMARK    3  A    between atoms: N_13  and  C_14 
REMARK    4  A    between atoms: C_14  and  C_15 
ROOT
HETATM    1  C   UNL     1     -43.732 -53.273  12.295  1.00  0.00     0.145 C 
ENDROOT
BRANCH   1   2
HETATM    2  C   UNL     1     -44.493 -53.219  13.586  1.00  0.00    -0.002 A 
HETATM    3  C   UNL     1     -44.312 -53.950  14.800  1.00  0.00     0.030 A 
HETATM    4  C   UNL     1     -43.308 -54.989  15.153  1.00  0.00     0.070 C 
HETATM    5  N   UNL     1     -45.225 -53.617  15.719  1.00  0.00    -0.303 N 
HETATM    6  N   UNL     1     -46.011 -52.722  15.108  1.00  0.00    -0.300 N 
ATOM      7  HN  UNL     1     -45.305 -53.968  16.673  1.00  0.00     0.186 HD
HETATM    8  C   UNL     1     -47.130 -52.173  15.836  1.00  0.00     0.177 C 
HETATM    9  C   UNL     1     -45.631 -52.455  13.820  1.00  0.00     0.033 A 
HETATM   10  C   UNL     1     -46.372 -51.534  12.917  1.00  0.00     0.070 C 
ENDBRANCH   1   2
BRANCH   1  11
HETATM   11  C   UNL     1     -42.359 -52.625  12.324  1.00  0.00     0.222 C 
HETATM   12  O   UNL     1     -41.350 -53.282  12.579  1.00  0.00    -0.273 OA
HETATM   13  N   UNL     1     -42.301 -51.269  12.043  1.00  0.00    -0.358 N 
HETATM   14  H   UNL     1     -43.057 -50.843  11.524  1.00  0.00     0.162 HD
BRANCH  13  15
HETATM   15  C   UNL     1     -40.978 -50.671  11.933  1.00  0.00     0.154 C 
BRANCH  15  16
HETATM   16  C   UNL     1     -40.858 -49.346  11.182  1.00  0.00     0.139 C 
HETATM   17  C   UNL     1     -39.961 -48.277  11.779  1.00  0.00     0.035 C 
HETATM   18  C   UNL     1     -40.487 -46.995  11.151  1.00  0.00     0.029 C 
HETATM   19  C   UNL     1     -41.788 -47.398  10.477  1.00  0.00     0.168 C 
HETATM   20  O   UNL     1     -42.123 -48.685  11.018  1.00  0.00    -0.384 OA
ENDBRANCH  15  16
ENDBRANCH  13  15
ENDBRANCH   1  11
TORSDOF 4
ENDMDL
MODEL 6
REMARK VINA RESULT:      -5.0      2.901      5.866
REMARK  4 active torsions:
REMARK  status: ('A' for Active; 'I' for Inactive)
REMARK    1  A    between atoms: C_9  and  C_10 
REMARK    2  A    between atoms: C_10  and  C_11 
REMARK       I    between atoms: C_11  and  N_13 
REMARK    3  A    between atoms: N_13  and  C_14 
REMARK    4  A    between atoms: C_14  and  C_15 
ROOT
HETATM    1  C   UNL     1     -39.649 -51.392  14.022  1.00  0.00     0.145 C 
ENDROOT
BRANCH   1   2
HETATM    2  C   UNL     1     -39.845 -50.500  12.832  1.00  0.00    -0.002 A 
HETATM    3  C   UNL     1     -38.915 -50.054  11.844  1.00  0.00     0.030 A 
HETATM    4  C   UNL     1     -37.464 -50.343  11.696  1.00  0.00     0.070 C 
HETATM    5  N   UNL     1     -39.492 -49.243  10.952  1.00  0.00    -0.303 N 
HETATM    6  N   UNL     1     -40.758 -49.125  11.368  1.00  0.00    -0.300 N 
ATOM      7  HN  UNL     1     -39.062 -48.809  10.135  1.00  0.00     0.186 HD
HETATM    8  C   UNL     1     -41.658 -48.281  10.618  1.00  0.00     0.177 C 
HETATM    9  C   UNL     1     -41.027 -49.845  12.501  1.00  0.00     0.033 A 
HETATM   10  C   UNL     1     -42.346 -49.838  13.188  1.00  0.00     0.070 C 
ENDBRANCH   1   2
BRANCH   1  11
HETATM   11  C   UNL     1     -40.276 -52.770  13.909  1.00  0.00     0.222 C 
HETATM   12  O   UNL     1     -39.822 -53.616  13.138  1.00  0.00    -0.273 OA
HETATM   13  N   UNL     1     -41.371 -53.029  14.720  1.00  0.00    -0.358 N 
HETATM   14  H   UNL     1     -41.506 -52.471  15.552  1.00  0.00     0.162 HD
BRANCH  13  15
HETATM   15  C   UNL     1     -41.891 -54.388  14.718  1.00  0.00     0.154 C 
BRANCH  15  16
HETATM   16  C   UNL     1     -43.193 -54.650  13.965  1.00  0.00     0.139 C 
HETATM   17  C   UNL     1     -43.815 -53.489  13.210  1.00  0.00     0.035 C 
HETATM   18  C   UNL     1     -45.273 -53.905  13.078  1.00  0.00     0.029 C 
HETATM   19  C   UNL     1     -45.417 -55.112  13.990  1.00  0.00     0.168 C 
HETATM   20  O   UNL     1     -44.249 -55.109  14.825  1.00  0.00    -0.384 OA
ENDBRANCH  15  16
ENDBRANCH  13  15
ENDBRANCH   1  11
TORSDOF 4
ENDMDL
MODEL 7
REMARK VINA RESULT:      -5.0      4.311      7.325
REMARK  4 active torsions:
REMARK  status: ('A' for Active; 'I' for Inactive)
REMARK    1  A    between atoms: C_9  and  C_10 
REMARK    2  A    between atoms: C_10  and  C_11 
REMARK       I    between atoms: C_11  and  N_13 
REMARK    3  A    between atoms: N_13  and  C_14 
REMARK    4  A    between atoms: C_14  and  C_15 
ROOT
HETATM    1  C   UNL     1     -40.331 -47.608  12.590  1.00  0.00     0.145 C 
ENDROOT
BRANCH   1   2
HETATM    2  C   UNL     1     -40.318 -49.090  12.357  1.00  0.00    -0.002 A 
HETATM    3  C   UNL     1     -39.265 -49.950  11.916  1.00  0.00     0.030 A 
HETATM    4  C   UNL     1     -37.858 -49.634  11.556  1.00  0.00     0.070 C 
HETATM    5  N   UNL     1     -39.673 -51.219  11.816  1.00  0.00    -0.303 N 
HETATM    6  N   UNL     1     -40.971 -51.187  12.142  1.00  0.00    -0.300 N 
ATOM      7  HN  UNL     1     -39.118 -52.032  11.550  1.00  0.00     0.186 HD
HETATM    8  C   UNL     1     -41.724 -52.418  12.110  1.00  0.00     0.177 C 
HETATM    9  C   UNL     1     -41.419 -49.933  12.461  1.00  0.00     0.033 A 
HETATM   10  C   UNL     1     -42.833 -49.627  12.808  1.00  0.00     0.070 C 
ENDBRANCH   1   2
BRANCH   1  11
HETATM   11  C   UNL     1     -40.774 -46.769  11.406  1.00  0.00     0.222 C 
HETATM   12  O   UNL     1     -39.955 -46.294  10.619  1.00  0.00    -0.273 OA
HETATM   13  N   UNL     1     -42.139 -46.575  11.251  1.00  0.00    -0.358 N 
HETATM   14  H   UNL     1     -42.778 -47.227  11.684  1.00  0.00     0.162 HD
BRANCH  13  15
HETATM   15  C   UNL     1     -42.578 -45.890  10.044  1.00  0.00     0.154 C 
BRANCH  15  16
HETATM   16  C   UNL     1     -43.788 -46.459   9.305  1.00  0.00     0.139 C 
HETATM   17  C   UNL     1     -44.946 -45.520   9.022  1.00  0.00     0.035 C 
HETATM   18  C   UNL     1     -46.118 -46.469   8.821  1.00  0.00     0.029 C 
HETATM   19  C   UNL     1     -45.601 -47.826   9.268  1.00  0.00     0.168 C 
HETATM   20  O   UNL     1     -44.396 -47.560  10.001  1.00  0.00    -0.384 OA
ENDBRANCH  15  16
ENDBRANCH  13  15
ENDBRANCH   1  11
TORSDOF 4
ENDMDL
MODEL 8
REMARK VINA RESULT:      -5.0      2.866      6.083
REMARK  4 active torsions:
REMARK  status: ('A' for Active; 'I' for Inactive)
REMARK    1  A    between atoms: C_9  and  C_10 
REMARK    2  A    between atoms: C_10  and  C_11 
REMARK       I    between atoms: C_11  and  N_13 
REMARK    3  A    between atoms: N_13  and  C_14 
REMARK    4  A    between atoms: C_14  and  C_15 
ROOT
HETATM    1  C   UNL     1     -41.542 -50.338  13.754  1.00  0.00     0.145 C 
ENDROOT
BRANCH   1   2
HETATM    2  C   UNL     1     -40.430 -50.171  12.761  1.00  0.00    -0.002 A 
HETATM    3  C   UNL     1     -40.405 -49.497  11.502  1.00  0.00     0.030 A 
HETATM    4  C   UNL     1     -41.479 -48.752  10.793  1.00  0.00     0.070 C 
HETATM    5  N   UNL     1     -39.211 -49.600  10.909  1.00  0.00    -0.303 N 
HETATM    6  N   UNL     1     -38.484 -50.357  11.739  1.00  0.00    -0.300 N 
ATOM      7  HN  UNL     1     -38.919 -49.191  10.022  1.00  0.00     0.186 HD
HETATM    8  C   UNL     1     -37.125 -50.680  11.371  1.00  0.00     0.177 C 
HETATM    9  C   UNL     1     -39.167 -50.745  12.860  1.00  0.00     0.033 A 
HETATM   10  C   UNL     1     -38.594 -51.631  13.908  1.00  0.00     0.070 C 
ENDBRANCH   1   2
BRANCH   1  11
HETATM   11  C   UNL     1     -42.331 -51.629  13.632  1.00  0.00     0.222 C 
HETATM   12  O   UNL     1     -42.231 -52.520  14.476  1.00  0.00    -0.273 OA
HETATM   13  N   UNL     1     -43.172 -51.748  12.536  1.00  0.00    -0.358 N 
HETATM   14  H   UNL     1     -43.485 -50.910  12.066  1.00  0.00     0.162 HD
BRANCH  13  15
HETATM   15  C   UNL     1     -44.033 -52.920  12.485  1.00  0.00     0.154 C 
BRANCH  15  16
HETATM   16  C   UNL     1     -45.403 -52.824  13.153  1.00  0.00     0.139 C 
HETATM   17  C   UNL     1     -45.932 -51.439  13.479  1.00  0.00     0.035 C 
HETATM   18  C   UNL     1     -46.955 -51.710  14.572  1.00  0.00     0.029 C 
HETATM   19  C   UNL     1     -46.731 -53.161  14.964  1.00  0.00     0.168 C 
HETATM   20  O   UNL     1     -45.457 -53.521  14.409  1.00  0.00    -0.384 OA
ENDBRANCH  15  16
ENDBRANCH  13  15
ENDBRANCH   1  11
TORSDOF 4
ENDMDL
MODEL 9
REMARK VINA RESULT:      -4.9      3.095      6.018
REMARK  4 active torsions:
REMARK  status: ('A' for Active; 'I' for Inactive)
REMARK    1  A    between atoms: C_9  and  C_10 
REMARK    2  A    between atoms: C_10  and  C_11 
REMARK       I    between atoms: C_11  and  N_13 
REMARK    3  A    between atoms: N_13  and  C_14 
REMARK    4  A    between atoms: C_14  and  C_15 
ROOT
HETATM    1  C   UNL     1     -40.930 -51.253  11.783  1.00  0.00     0.145 C 
ENDROOT
BRANCH   1   2
HETATM    2  C   UNL     1     -40.402 -50.198  12.710  1.00  0.00    -0.002 A 
HETATM    3  C   UNL     1     -41.090 -49.207  13.475  1.00  0.00     0.030 A 
HETATM    4  C   UNL     1     -42.545 -48.920  13.585  1.00  0.00     0.070 C 
HETATM    5  N   UNL     1     -40.241 -48.438  14.165  1.00  0.00    -0.303 N 
HETATM    6  N   UNL     1     -39.026 -48.886  13.829  1.00  0.00    -0.300 N 
ATOM      7  HN  UNL     1     -40.469 -47.678  14.806  1.00  0.00     0.186 HD
HETATM    8  C   UNL     1     -37.867 -48.239  14.397  1.00  0.00     0.177 C 
HETATM    9  C   UNL     1     -39.057 -49.932  12.946  1.00  0.00     0.033 A 
HETATM   10  C   UNL     1     -37.839 -50.571  12.382  1.00  0.00     0.070 C 
ENDBRANCH   1   2
BRANCH   1  11
HETATM   11  C   UNL     1     -41.791 -52.318  12.437  1.00  0.00     0.222 C 
HETATM   12  O   UNL     1     -41.441 -52.869  13.480  1.00  0.00    -0.273 OA
HETATM   13  N   UNL     1     -42.988 -52.629  11.809  1.00  0.00    -0.358 N 
HETATM   14  H   UNL     1     -43.399 -51.955  11.177  1.00  0.00     0.162 HD
BRANCH  13  15
HETATM   15  C   UNL     1     -43.881 -53.547  12.501  1.00  0.00     0.154 C 
BRANCH  15  16
HETATM   16  C   UNL     1     -45.238 -53.011  12.955  1.00  0.00     0.139 C 
HETATM   17  C   UNL     1     -45.345 -51.526  13.253  1.00  0.00     0.035 C 
HETATM   18  C   UNL     1     -46.560 -51.445  14.164  1.00  0.00     0.029 C 
HETATM   19  C   UNL     1     -46.874 -52.887  14.526  1.00  0.00     0.168 C 
HETATM   20  O   UNL     1     -45.708 -53.641  14.158  1.00  0.00    -0.384 OA
ENDBRANCH  15  16
ENDBRANCH  13  15
ENDBRANCH   1  11
TORSDOF 4
ENDMDL
