MODEL 1
REMARK VINA RESULT:      -6.3      0.000      0.000
REMARK  3 active torsions:
REMARK  status: ('A' for Active; 'I' for Inactive)
REMARK    1  A    between atoms: C_4  and  N_5 
REMARK       I    between atoms: N_5  and  C_6 
REMARK       I    between atoms: C_6  and  N_8 
REMARK    2  A    between atoms: N_8  and  C_9 
REMARK    3  A    between atoms: C_9  and  C_10 
ROOT
HETATM    1  N   UNL     1     -41.569 -47.886  10.032  1.00  0.00    -0.293 N 
HETATM    2  C   UNL     1     -41.218 -48.707  11.067  1.00  0.00     0.321 C 
HETATM    3  O   UNL     1     -40.067 -48.703  11.494  1.00  0.00    -0.247 OA
HETATM    4  N   UNL     1     -42.197 -49.511  11.562  1.00  0.00    -0.342 N 
HETATM    5  H   UNL     1     -40.810 -47.323   9.674  1.00  0.00     0.172 HD
HETATM    6  H   UNL     1     -43.138 -49.321  11.229  1.00  0.00     0.164 HD
ENDROOT
BRANCH   1   7
HETATM    7  C   UNL     1     -42.806 -47.772   9.429  1.00  0.00     0.132 A 
HETATM    8  C   UNL     1     -43.992 -47.352  10.075  1.00  0.00     0.084 A 
HETATM    9  C   UNL     1     -44.947 -47.371   9.089  1.00  0.00     0.076 A 
HETATM   10  C   UNL     1     -46.379 -47.045   9.014  1.00  0.00     0.079 C 
HETATM   11  O   UNL     1     -44.382 -47.792   7.931  1.00  0.00    -0.241 OA
HETATM   12  N   UNL     1     -43.049 -48.050   8.141  1.00  0.00    -0.245 N 
ATOM     13  HN  UNL     1     -42.376 -48.386   7.451  1.00  0.00     0.196 HD
ENDBRANCH   1   7
BRANCH   4  14
HETATM   14  C   UNL     1     -42.020 -50.396  12.686  1.00  0.00     0.131 C 
BRANCH  14  15
HETATM   15  C   UNL     1     -41.428 -51.733  12.259  1.00  0.00     0.029 C 
HETATM   16  C   UNL     1     -42.255 -52.949  12.648  1.00  0.00     0.034 C 
HETATM   17  C   UNL     1     -41.228 -54.028  12.937  1.00  0.00     0.168 C 
HETATM   18  O   UNL     1     -39.929 -53.426  12.877  1.00  0.00    -0.391 OA
HETATM   19  C   UNL     1     -40.102 -52.008  12.936  1.00  0.00     0.173 C 
ENDBRANCH  14  15
ENDBRANCH   4  14
TORSDOF 3
ENDMDL
MODEL 2
REMARK VINA RESULT:      -6.2      3.663      5.978
REMARK  3 active torsions:
REMARK  status: ('A' for Active; 'I' for Inactive)
REMARK    1  A    between atoms: C_4  and  N_5 
REMARK       I    between atoms: N_5  and  C_6 
REMARK       I    between atoms: C_6  and  N_8 
REMARK    2  A    between atoms: N_8  and  C_9 
REMARK    3  A    between atoms: C_9  and  C_10 
ROOT
HETATM    1  N   UNL     1     -41.542 -47.988  10.454  1.00  0.00    -0.293 N 
HETATM    2  C   UNL     1     -40.620 -47.030  10.768  1.00  0.00     0.321 C 
HETATM    3  O   UNL     1     -39.619 -47.327  11.416  1.00  0.00    -0.247 OA
HETATM    4  N   UNL     1     -40.888 -45.767  10.341  1.00  0.00    -0.342 N 
HETATM    5  H   UNL     1     -41.322 -48.909  10.810  1.00  0.00     0.172 HD
HETATM    6  H   UNL     1     -41.665 -45.673   9.694  1.00  0.00     0.164 HD
ENDROOT
BRANCH   1   7
HETATM    7  C   UNL     1     -42.717 -47.827   9.747  1.00  0.00     0.132 A 
HETATM    8  C   UNL     1     -43.972 -47.508  10.314  1.00  0.00     0.084 A 
HETATM    9  C   UNL     1     -44.826 -47.429   9.242  1.00  0.00     0.076 A 
HETATM   10  C   UNL     1     -46.253 -47.124   9.062  1.00  0.00     0.079 C 
HETATM   11  O   UNL     1     -44.139 -47.702   8.106  1.00  0.00    -0.241 OA
HETATM   12  N   UNL     1     -42.825 -47.957   8.417  1.00  0.00    -0.245 N 
ATOM     13  HN  UNL     1     -42.079 -48.198   7.765  1.00  0.00     0.196 HD
ENDBRANCH   1   7
BRANCH   4  14
HETATM   14  C   UNL     1     -40.001 -44.647  10.534  1.00  0.00     0.131 C 
BRANCH  14  15
HETATM   15  C   UNL     1     -40.317 -43.896  11.822  1.00  0.00     0.029 C 
HETATM   16  C   UNL     1     -40.491 -42.395  11.657  1.00  0.00     0.034 C 
HETATM   17  C   UNL     1     -39.945 -41.808  12.946  1.00  0.00     0.168 C 
HETATM   18  O   UNL     1     -39.363 -42.875  13.703  1.00  0.00    -0.391 OA
HETATM   19  C   UNL     1     -39.186 -43.987  12.823  1.00  0.00     0.173 C 
ENDBRANCH  14  15
ENDBRANCH   4  14
TORSDOF 3
ENDMDL
MODEL 3
REMARK VINA RESULT:      -6.1      1.430      1.815
REMARK  3 active torsions:
REMARK  status: ('A' for Active; 'I' for Inactive)
REMARK    1  A    between atoms: C_4  and  N_5 
REMARK       I    between atoms: N_5  and  C_6 
REMARK       I    between atoms: C_6  and  N_8 
REMARK    2  A    between atoms: N_8  and  C_9 
REMARK    3  A    between atoms: C_9  and  C_10 
ROOT
HETATM    1  N   UNL     1     -42.168 -46.199   9.523  1.00  0.00    -0.293 N 
HETATM    2  C   UNL     1     -41.188 -46.633  10.370  1.00  0.00     0.321 C 
HETATM    3  O   UNL     1     -40.336 -45.848  10.779  1.00  0.00    -0.247 OA
HETATM    4  N   UNL     1     -41.212 -47.951  10.702  1.00  0.00    -0.342 N 
HETATM    5  H   UNL     1     -42.102 -45.220   9.277  1.00  0.00     0.172 HD
HETATM    6  H   UNL     1     -42.043 -48.464  10.421  1.00  0.00     0.164 HD
ENDROOT
BRANCH   1   7
HETATM    7  C   UNL     1     -43.190 -46.942   8.964  1.00  0.00     0.132 A 
HETATM    8  C   UNL     1     -44.476 -47.109   9.526  1.00  0.00     0.084 A 
HETATM    9  C   UNL     1     -45.148 -47.895   8.623  1.00  0.00     0.076 A 
HETATM   10  C   UNL     1     -46.506 -48.450   8.526  1.00  0.00     0.079 C 
HETATM   11  O   UNL     1     -44.318 -48.200   7.595  1.00  0.00    -0.241 OA
HETATM   12  N   UNL     1     -43.094 -47.613   7.808  1.00  0.00    -0.245 N 
ATOM     13  HN  UNL     1     -42.273 -47.675   7.205  1.00  0.00     0.196 HD
ENDBRANCH   1   7
BRANCH   4  14
HETATM   14  C   UNL     1     -40.291 -48.566  11.624  1.00  0.00     0.131 C 
BRANCH  14  15
HETATM   15  C   UNL     1     -40.310 -50.085  11.507  1.00  0.00     0.029 C 
HETATM   16  C   UNL     1     -41.534 -50.756  12.111  1.00  0.00     0.034 C 
HETATM   17  C   UNL     1     -41.013 -52.073  12.655  1.00  0.00     0.168 C 
HETATM   18  O   UNL     1     -39.587 -52.073  12.516  1.00  0.00    -0.391 OA
HETATM   19  C   UNL     1     -39.173 -50.727  12.273  1.00  0.00     0.173 C 
ENDBRANCH  14  15
ENDBRANCH   4  14
TORSDOF 3
ENDMDL
MODEL 4
REMARK VINA RESULT:      -6.1      4.102      6.340
REMARK  3 active torsions:
REMARK  status: ('A' for Active; 'I' for Inactive)
REMARK    1  A    between atoms: C_4  and  N_5 
REMARK       I    between atoms: N_5  and  C_6 
REMARK       I    between atoms: C_6  and  N_8 
REMARK    2  A    between atoms: N_8  and  C_9 
REMARK    3  A    between atoms: C_9  and  C_10 
ROOT
HETATM    1  N   UNL     1     -42.922 -53.736  12.526  1.00  0.00    -0.293 N 
HETATM    2  C   UNL     1     -44.281 -53.608  12.573  1.00  0.00     0.321 C 
HETATM    3  O   UNL     1     -44.994 -54.607  12.624  1.00  0.00    -0.247 OA
HETATM    4  N   UNL     1     -44.772 -52.340  12.543  1.00  0.00    -0.342 N 
HETATM    5  H   UNL     1     -42.595 -54.693  12.523  1.00  0.00     0.172 HD
HETATM    6  H   UNL     1     -44.087 -51.597  12.648  1.00  0.00     0.164 HD
ENDROOT
BRANCH   1   7
HETATM    7  C   UNL     1     -41.981 -52.727  12.457  1.00  0.00     0.132 A 
HETATM    8  C   UNL     1     -41.506 -51.980  13.559  1.00  0.00     0.084 A 
HETATM    9  C   UNL     1     -40.581 -51.121  13.020  1.00  0.00     0.076 A 
HETATM   10  C   UNL     1     -39.683 -50.083  13.550  1.00  0.00     0.079 C 
HETATM   11  O   UNL     1     -40.515 -51.321  11.681  1.00  0.00    -0.241 OA
HETATM   12  N   UNL     1     -41.393 -52.317  11.325  1.00  0.00    -0.245 N 
ATOM     13  HN  UNL     1     -41.562 -52.674  10.385  1.00  0.00     0.196 HD
ENDBRANCH   1   7
BRANCH   4  14
HETATM   14  C   UNL     1     -46.173 -52.016  12.640  1.00  0.00     0.131 C 
BRANCH  14  15
HETATM   15  C   UNL     1     -46.548 -51.557  14.044  1.00  0.00     0.029 C 
HETATM   16  C   UNL     1     -45.390 -51.015  14.867  1.00  0.00     0.034 C 
HETATM   17  C   UNL     1     -45.711 -51.431  16.290  1.00  0.00     0.168 C 
HETATM   18  O   UNL     1     -46.866 -52.276  16.251  1.00  0.00    -0.391 OA
HETATM   19  C   UNL     1     -47.051 -52.700  14.899  1.00  0.00     0.173 C 
ENDBRANCH  14  15
ENDBRANCH   4  14
TORSDOF 3
ENDMDL
MODEL 5
REMARK VINA RESULT:      -5.7      2.531      4.068
REMARK  3 active torsions:
REMARK  status: ('A' for Active; 'I' for Inactive)
REMARK    1  A    between atoms: C_4  and  N_5 
REMARK       I    between atoms: N_5  and  C_6 
REMARK       I    between atoms: C_6  and  N_8 
REMARK    2  A    between atoms: N_8  and  C_9 
REMARK    3  A    between atoms: C_9  and  C_10 
ROOT
HETATM    1  N   UNL     1     -39.707 -51.087  12.256  1.00  0.00    -0.293 N 
HETATM    2  C   UNL     1     -40.049 -52.303  12.776  1.00  0.00     0.321 C 
HETATM    3  O   UNL     1     -39.187 -53.030  13.263  1.00  0.00    -0.247 OA
HETATM    4  N   UNL     1     -41.363 -52.646  12.703  1.00  0.00    -0.342 N 
HETATM    5  H   UNL     1     -38.719 -50.878  12.304  1.00  0.00     0.172 HD
HETATM    6  H   UNL     1     -41.999 -51.908  12.415  1.00  0.00     0.164 HD
ENDROOT
BRANCH   1   7
HETATM    7  C   UNL     1     -40.541 -50.157  11.667  1.00  0.00     0.132 A 
HETATM    8  C   UNL     1     -41.519 -49.395  12.346  1.00  0.00     0.084 A 
HETATM    9  C   UNL     1     -42.076 -48.602  11.373  1.00  0.00     0.076 A 
HETATM   10  C   UNL     1     -43.116 -47.564  11.338  1.00  0.00     0.079 C 
HETATM   11  O   UNL     1     -41.488 -48.880  10.183  1.00  0.00    -0.241 OA
HETATM   12  N   UNL     1     -40.535 -49.854  10.361  1.00  0.00    -0.245 N 
ATOM     13  HN  UNL     1     -39.941 -50.266   9.642  1.00  0.00     0.196 HD
ENDBRANCH   1   7
BRANCH   4  14
HETATM   14  C   UNL     1     -41.909 -53.863  13.250  1.00  0.00     0.131 C 
BRANCH  14  15
HETATM   15  C   UNL     1     -43.373 -53.698  13.636  1.00  0.00     0.029 C 
HETATM   16  C   UNL     1     -43.993 -54.908  14.318  1.00  0.00     0.034 C 
HETATM   17  C   UNL     1     -45.435 -54.911  13.844  1.00  0.00     0.168 C 
HETATM   18  O   UNL     1     -45.574 -53.888  12.852  1.00  0.00    -0.391 OA
HETATM   19  C   UNL     1     -44.262 -53.513  12.425  1.00  0.00     0.173 C 
ENDBRANCH  14  15
ENDBRANCH   4  14
TORSDOF 3
ENDMDL
MODEL 6
REMARK VINA RESULT:      -5.7      2.729      5.606
REMARK  3 active torsions:
REMARK  status: ('A' for Active; 'I' for Inactive)
REMARK    1  A    between atoms: C_4  and  N_5 
REMARK       I    between atoms: N_5  and  C_6 
REMARK       I    between atoms: C_6  and  N_8 
REMARK    2  A    between atoms: N_8  and  C_9 
REMARK    3  A    between atoms: C_9  and  C_10 
ROOT
HETATM    1  N   UNL     1     -41.809 -52.535  12.690  1.00  0.00    -0.293 N 
HETATM    2  C   UNL     1     -40.976 -51.578  12.183  1.00  0.00     0.321 C 
HETATM    3  O   UNL     1     -39.758 -51.719  12.260  1.00  0.00    -0.247 OA
HETATM    4  N   UNL     1     -41.569 -50.491  11.622  1.00  0.00    -0.342 N 
HETATM    5  H   UNL     1     -41.332 -53.315  13.123  1.00  0.00     0.172 HD
HETATM    6  H   UNL     1     -42.574 -50.555  11.486  1.00  0.00     0.164 HD
ENDROOT
BRANCH   1   7
HETATM    7  C   UNL     1     -43.191 -52.531  12.697  1.00  0.00     0.132 A 
HETATM    8  C   UNL     1     -43.999 -51.725  13.530  1.00  0.00     0.084 A 
HETATM    9  C   UNL     1     -45.287 -52.041  13.174  1.00  0.00     0.076 A 
HETATM   10  C   UNL     1     -46.626 -51.597  13.587  1.00  0.00     0.079 C 
HETATM   11  O   UNL     1     -45.259 -52.989  12.205  1.00  0.00    -0.241 OA
HETATM   12  N   UNL     1     -43.954 -53.302  11.910  1.00  0.00    -0.245 N 
ATOM     13  HN  UNL     1     -43.629 -53.987  11.226  1.00  0.00     0.196 HD
ENDBRANCH   1   7
BRANCH   4  14
HETATM   14  C   UNL     1     -40.847 -49.416  10.991  1.00  0.00     0.131 C 
BRANCH  14  15
HETATM   15  C   UNL     1     -41.596 -48.094  11.105  1.00  0.00     0.029 C 
HETATM   16  C   UNL     1     -42.609 -47.839  10.001  1.00  0.00     0.034 C 
HETATM   17  C   UNL     1     -42.565 -46.337   9.786  1.00  0.00     0.168 C 
HETATM   18  O   UNL     1     -41.500 -45.810  10.586  1.00  0.00    -0.391 OA
HETATM   19  C   UNL     1     -40.668 -46.904  10.980  1.00  0.00     0.173 C 
ENDBRANCH  14  15
ENDBRANCH   4  14
TORSDOF 3
ENDMDL
MODEL 7
REMARK VINA RESULT:      -5.6      2.009      2.564
REMARK  3 active torsions:
REMARK  status: ('A' for Active; 'I' for Inactive)
REMARK    1  A    between atoms: C_4  and  N_5 
REMARK       I    between atoms: N_5  and  C_6 
REMARK       I    between atoms: C_6  and  N_8 
REMARK    2  A    between atoms: N_8  and  C_9 
REMARK    3  A    between atoms: C_9  and  C_10 
ROOT
HETATM    1  N   UNL     1     -41.528 -48.707  12.134  1.00  0.00    -0.293 N 
HETATM    2  C   UNL     1     -41.361 -49.982  12.595  1.00  0.00     0.321 C 
HETATM    3  O   UNL     1     -40.663 -50.194  13.583  1.00  0.00    -0.247 OA
HETATM    4  N   UNL     1     -41.988 -50.966  11.897  1.00  0.00    -0.342 N 
HETATM    5  H   UNL     1     -41.026 -48.006  12.662  1.00  0.00     0.172 HD
HETATM    6  H   UNL     1     -42.651 -50.657  11.192  1.00  0.00     0.164 HD
ENDROOT
BRANCH   1   7
HETATM    7  C   UNL     1     -42.266 -48.295  11.041  1.00  0.00     0.132 A 
HETATM    8  C   UNL     1     -43.569 -47.750  11.097  1.00  0.00     0.084 A 
HETATM    9  C   UNL     1     -43.883 -47.472   9.789  1.00  0.00     0.076 A 
HETATM   10  C   UNL     1     -45.037 -46.884   9.093  1.00  0.00     0.079 C 
HETATM   11  O   UNL     1     -42.848 -47.842   8.996  1.00  0.00    -0.241 OA
HETATM   12  N   UNL     1     -41.841 -48.362   9.772  1.00  0.00    -0.245 N 
ATOM     13  HN  UNL     1     -40.945 -48.728   9.447  1.00  0.00     0.196 HD
ENDBRANCH   1   7
BRANCH   4  14
HETATM   14  C   UNL     1     -41.967 -52.358  12.271  1.00  0.00     0.131 C 
BRANCH  14  15
HETATM   15  C   UNL     1     -43.208 -52.745  13.065  1.00  0.00     0.029 C 
HETATM   16  C   UNL     1     -43.007 -53.894  14.041  1.00  0.00     0.034 C 
HETATM   17  C   UNL     1     -44.334 -54.631  14.036  1.00  0.00     0.168 C 
HETATM   18  O   UNL     1     -45.158 -54.045  13.021  1.00  0.00    -0.391 OA
HETATM   19  C   UNL     1     -44.314 -53.264  12.172  1.00  0.00     0.173 C 
ENDBRANCH  14  15
ENDBRANCH   4  14
TORSDOF 3
ENDMDL
MODEL 8
REMARK VINA RESULT:      -5.5      3.445      7.001
REMARK  3 active torsions:
REMARK  status: ('A' for Active; 'I' for Inactive)
REMARK    1  A    between atoms: C_4  and  N_5 
REMARK       I    between atoms: N_5  and  C_6 
REMARK       I    between atoms: C_6  and  N_8 
REMARK    2  A    between atoms: N_8  and  C_9 
REMARK    3  A    between atoms: C_9  and  C_10 
ROOT
HETATM    1  N   UNL     1     -41.222 -49.311  10.826  1.00  0.00    -0.293 N 
HETATM    2  C   UNL     1     -41.635 -48.075  10.413  1.00  0.00     0.321 C 
HETATM    3  O   UNL     1     -42.744 -47.934   9.904  1.00  0.00    -0.247 OA
HETATM    4  N   UNL     1     -40.756 -47.053  10.586  1.00  0.00    -0.342 N 
HETATM    5  H   UNL     1     -41.891 -50.050  10.657  1.00  0.00     0.172 HD
HETATM    6  H   UNL     1     -39.936 -47.263  11.148  1.00  0.00     0.164 HD
ENDROOT
BRANCH   1   7
HETATM    7  C   UNL     1     -40.014 -49.646  11.405  1.00  0.00     0.132 A 
HETATM    8  C   UNL     1     -39.759 -49.679  12.795  1.00  0.00     0.084 A 
HETATM    9  C   UNL     1     -38.450 -50.082  12.896  1.00  0.00     0.076 A 
HETATM   10  C   UNL     1     -37.522 -50.355  14.004  1.00  0.00     0.079 C 
HETATM   11  O   UNL     1     -37.943 -50.261  11.651  1.00  0.00    -0.241 OA
HETATM   12  N   UNL     1     -38.913 -49.983  10.719  1.00  0.00    -0.245 N 
ATOM     13  HN  UNL     1     -38.815 -50.026   9.704  1.00  0.00     0.196 HD
ENDBRANCH   1   7
BRANCH   4  14
HETATM   14  C   UNL     1     -41.045 -45.678  10.261  1.00  0.00     0.131 C 
BRANCH  14  15
HETATM   15  C   UNL     1     -40.072 -44.724  10.941  1.00  0.00     0.029 C 
HETATM   16  C   UNL     1     -39.623 -45.154  12.329  1.00  0.00     0.034 C 
HETATM   17  C   UNL     1     -39.451 -43.852  13.090  1.00  0.00     0.168 C 
HETATM   18  O   UNL     1     -39.920 -42.788  12.254  1.00  0.00    -0.391 OA
HETATM   19  C   UNL     1     -40.695 -43.370  11.202  1.00  0.00     0.173 C 
ENDBRANCH  14  15
ENDBRANCH   4  14
TORSDOF 3
ENDMDL
MODEL 9
REMARK VINA RESULT:      -5.2      4.526      5.507
REMARK  3 active torsions:
REMARK  status: ('A' for Active; 'I' for Inactive)
REMARK    1  A    between atoms: C_4  and  N_5 
REMARK       I    between atoms: N_5  and  C_6 
REMARK       I    between atoms: C_6  and  N_8 
REMARK    2  A    between atoms: N_8  and  C_9 
REMARK    3  A    between atoms: C_9  and  C_10 
ROOT
HETATM    1  N   UNL     1     -42.103 -52.845  12.207  1.00  0.00    -0.293 N 
HETATM    2  C   UNL     1     -41.089 -53.054  13.098  1.00  0.00     0.321 C 
HETATM    3  O   UNL     1     -39.922 -53.055  12.714  1.00  0.00    -0.247 OA
HETATM    4  N   UNL     1     -41.452 -53.268  14.391  1.00  0.00    -0.342 N 
HETATM    5  H   UNL     1     -41.797 -52.715  11.252  1.00  0.00     0.172 HD
HETATM    6  H   UNL     1     -42.428 -53.099  14.611  1.00  0.00     0.164 HD
ENDROOT
BRANCH   1   7
HETATM    7  C   UNL     1     -43.460 -52.820  12.465  1.00  0.00     0.132 A 
HETATM    8  C   UNL     1     -44.156 -51.744  13.061  1.00  0.00     0.084 A 
HETATM    9  C   UNL     1     -45.466 -52.155  13.094  1.00  0.00     0.076 A 
HETATM   10  C   UNL     1     -46.736 -51.568  13.544  1.00  0.00     0.079 C 
HETATM   11  O   UNL     1     -45.552 -53.404  12.572  1.00  0.00    -0.241 OA
HETATM   12  N   UNL     1     -44.303 -53.824  12.185  1.00  0.00    -0.245 N 
ATOM     13  HN  UNL     1     -44.063 -54.723  11.766  1.00  0.00     0.196 HD
ENDBRANCH   1   7
BRANCH   4  14
HETATM   14  C   UNL     1     -40.514 -53.451  15.470  1.00  0.00     0.131 C 
BRANCH  14  15
HETATM   15  C   UNL     1     -40.130 -54.915  15.639  1.00  0.00     0.029 C 
HETATM   16  C   UNL     1     -40.396 -55.488  17.022  1.00  0.00     0.034 C 
HETATM   17  C   UNL     1     -39.272 -56.484  17.241  1.00  0.00     0.168 C 
HETATM   18  O   UNL     1     -38.358 -56.364  16.145  1.00  0.00    -0.391 OA
HETATM   19  C   UNL     1     -38.641 -55.133  15.475  1.00  0.00     0.173 C 
ENDBRANCH  14  15
ENDBRANCH   4  14
TORSDOF 3
ENDMDL
