MODEL 1
REMARK VINA RESULT:      -6.1      0.000      0.000
REMARK  7 active torsions:
REMARK  status: ('A' for Active; 'I' for Inactive)
REMARK    1  A    between atoms: C_7  and  O_8 
REMARK    2  A    between atoms: O_8  and  C_9 
REMARK    3  A    between atoms: C_9  and  C_10 
REMARK    4  A    between atoms: C_10  and  N_11 
REMARK    5  A    between atoms: N_11  and  C_12 
REMARK    6  A    between atoms: C_12  and  C_13 
REMARK    7  A    between atoms: C_13  and  N_14 
ROOT
HETATM    1  N   UNL     1     -40.928 -50.501  11.510  1.00  0.00     0.087 N 
HETATM    2  H   UNL     1     -40.601 -50.525  10.541  1.00  0.00     0.316 HD
ENDROOT
BRANCH   1   3
HETATM    3  C   UNL     1     -41.525 -51.804  11.834  1.00  0.00     0.295 C 
BRANCH   3   4
HETATM    4  C   UNL     1     -42.457 -51.673  13.031  1.00  0.00     0.198 C 
BRANCH   4   5
HETATM    5  O   UNL     1     -43.715 -52.265  12.704  1.00  0.00    -0.384 OA
BRANCH   5   6
HETATM    6  C   UNL     1     -44.604 -52.337  13.822  1.00  0.00     0.125 C 
HETATM    7  C   UNL     1     -46.042 -52.708  13.399  1.00  0.00     0.010 C 
HETATM    8  C   UNL     1     -46.560 -51.837  12.245  1.00  0.00     0.012 C 
HETATM    9  C   UNL     1     -46.978 -52.678  14.611  1.00  0.00     0.007 C 
HETATM   10  C   UNL     1     -46.941 -51.344  15.347  1.00  0.00     0.001 C 
HETATM   11  C   UNL     1     -45.518 -50.947  15.734  1.00  0.00     0.002 C 
HETATM   12  C   UNL     1     -44.561 -50.986  14.545  1.00  0.00     0.032 C 
ENDBRANCH   5   6
ENDBRANCH   4   5
ENDBRANCH   3   4
ENDBRANCH   1   3
BRANCH   1  13
HETATM   13  C   UNL     1     -41.908 -49.413  11.639  1.00  0.00     0.291 C 
BRANCH  13  14
HETATM   14  C   UNL     1     -41.636 -48.243  10.696  1.00  0.00     0.178 C 
BRANCH  14  15
HETATM   15  N   UNL     1     -42.803 -47.933   9.901  1.00  0.00    -0.302 N 
HETATM   16  C   UNL     1     -44.038 -47.595  10.363  1.00  0.00     0.118 A 
HETATM   17  C   UNL     1     -44.831 -47.419   9.252  1.00  0.00    -0.028 A 
HETATM   18  C   UNL     1     -46.261 -47.054   9.197  1.00  0.00     0.051 C 
HETATM   19  C   UNL     1     -43.964 -47.674   8.166  1.00  0.00     0.115 A 
HETATM   20  N   UNL     1     -42.724 -47.978   8.556  1.00  0.00    -0.310 N 
ATOM     21  HN  UNL     1     -41.913 -48.193   7.976  1.00  0.00     0.186 HD
ENDBRANCH  14  15
ENDBRANCH  13  14
ENDBRANCH   1  13
TORSDOF 7
ENDMDL
MODEL 2
REMARK VINA RESULT:      -5.9      1.451      2.027
REMARK  7 active torsions:
REMARK  status: ('A' for Active; 'I' for Inactive)
REMARK    1  A    between atoms: C_7  and  O_8 
REMARK    2  A    between atoms: O_8  and  C_9 
REMARK    3  A    between atoms: C_9  and  C_10 
REMARK    4  A    between atoms: C_10  and  N_11 
REMARK    5  A    between atoms: N_11  and  C_12 
REMARK    6  A    between atoms: C_12  and  C_13 
REMARK    7  A    between atoms: C_13  and  N_14 
ROOT
HETATM    1  N   UNL     1     -42.069 -50.100  11.785  1.00  0.00     0.087 N 
HETATM    2  H   UNL     1     -42.989 -50.364  12.144  1.00  0.00     0.316 HD
ENDROOT
BRANCH   1   3
HETATM    3  C   UNL     1     -41.040 -50.724  12.628  1.00  0.00     0.295 C 
BRANCH   3   4
HETATM    4  C   UNL     1     -41.182 -52.240  12.597  1.00  0.00     0.198 C 
BRANCH   4   5
HETATM    5  O   UNL     1     -42.410 -52.577  11.950  1.00  0.00    -0.384 OA
BRANCH   5   6
HETATM    6  C   UNL     1     -43.119 -53.627  12.615  1.00  0.00     0.125 C 
HETATM    7  C   UNL     1     -44.635 -53.342  12.700  1.00  0.00     0.010 C 
HETATM    8  C   UNL     1     -44.939 -51.940  13.248  1.00  0.00     0.012 C 
HETATM    9  C   UNL     1     -45.338 -54.441  13.502  1.00  0.00     0.007 C 
HETATM   10  C   UNL     1     -44.728 -54.639  14.885  1.00  0.00     0.001 C 
HETATM   11  C   UNL     1     -43.223 -54.880  14.815  1.00  0.00     0.002 C 
HETATM   12  C   UNL     1     -42.500 -53.807  14.005  1.00  0.00     0.032 C 
ENDBRANCH   5   6
ENDBRANCH   4   5
ENDBRANCH   3   4
ENDBRANCH   1   3
BRANCH   1  13
HETATM   13  C   UNL     1     -41.967 -48.633  11.811  1.00  0.00     0.291 C 
BRANCH  13  14
HETATM   14  C   UNL     1     -41.674 -48.027  10.440  1.00  0.00     0.178 C 
BRANCH  14  15
HETATM   15  N   UNL     1     -42.894 -47.819   9.692  1.00  0.00    -0.302 N 
HETATM   16  C   UNL     1     -44.111 -47.476  10.196  1.00  0.00     0.118 A 
HETATM   17  C   UNL     1     -44.970 -47.418   9.122  1.00  0.00    -0.028 A 
HETATM   18  C   UNL     1     -46.412 -47.098   9.121  1.00  0.00     0.051 C 
HETATM   19  C   UNL     1     -44.158 -47.743   8.013  1.00  0.00     0.115 A 
HETATM   20  N   UNL     1     -42.890 -47.978   8.353  1.00  0.00    -0.310 N 
ATOM     21  HN  UNL     1     -42.106 -48.220   7.747  1.00  0.00     0.186 HD
ENDBRANCH  14  15
ENDBRANCH  13  14
ENDBRANCH   1  13
TORSDOF 7
ENDMDL
MODEL 3
REMARK VINA RESULT:      -5.5      1.264      1.781
REMARK  7 active torsions:
REMARK  status: ('A' for Active; 'I' for Inactive)
REMARK    1  A    between atoms: C_7  and  O_8 
REMARK    2  A    between atoms: O_8  and  C_9 
REMARK    3  A    between atoms: C_9  and  C_10 
REMARK    4  A    between atoms: C_10  and  N_11 
REMARK    5  A    between atoms: N_11  and  C_12 
REMARK    6  A    between atoms: C_12  and  C_13 
REMARK    7  A    between atoms: C_13  and  N_14 
ROOT
HETATM    1  N   UNL     1     -41.088 -51.462  11.400  1.00  0.00     0.087 N 
HETATM    2  H   UNL     1     -42.103 -51.347  11.371  1.00  0.00     0.316 HD
ENDROOT
BRANCH   1   3
HETATM    3  C   UNL     1     -40.740 -52.248  12.592  1.00  0.00     0.295 C 
BRANCH   3   4
HETATM    4  C   UNL     1     -41.829 -53.271  12.886  1.00  0.00     0.198 C 
BRANCH   4   5
HETATM    5  O   UNL     1     -42.568 -52.842  14.031  1.00  0.00    -0.384 OA
BRANCH   5   6
HETATM    6  C   UNL     1     -43.976 -52.773  13.790  1.00  0.00     0.125 C 
HETATM    7  C   UNL     1     -44.423 -51.360  13.354  1.00  0.00     0.010 C 
HETATM    8  C   UNL     1     -43.895 -50.262  14.288  1.00  0.00     0.012 C 
HETATM    9  C   UNL     1     -45.945 -51.307  13.201  1.00  0.00     0.007 C 
HETATM   10  C   UNL     1     -46.677 -51.759  14.459  1.00  0.00     0.001 C 
HETATM   11  C   UNL     1     -46.214 -53.137  14.923  1.00  0.00     0.002 C 
HETATM   12  C   UNL     1     -44.696 -53.222  15.067  1.00  0.00     0.032 C 
ENDBRANCH   5   6
ENDBRANCH   4   5
ENDBRANCH   3   4
ENDBRANCH   1   3
BRANCH   1  13
HETATM   13  C   UNL     1     -40.472 -50.127  11.438  1.00  0.00     0.291 C 
BRANCH  13  14
HETATM   14  C   UNL     1     -41.384 -49.062  12.043  1.00  0.00     0.178 C 
BRANCH  14  15
HETATM   15  N   UNL     1     -42.238 -48.474  11.036  1.00  0.00    -0.302 N 
HETATM   16  C   UNL     1     -43.541 -48.108  11.184  1.00  0.00     0.118 A 
HETATM   17  C   UNL     1     -43.948 -47.626   9.961  1.00  0.00    -0.028 A 
HETATM   18  C   UNL     1     -45.277 -47.108   9.578  1.00  0.00     0.051 C 
HETATM   19  C   UNL     1     -42.801 -47.746   9.145  1.00  0.00     0.115 A 
HETATM   20  N   UNL     1     -41.754 -48.253   9.797  1.00  0.00    -0.310 N 
ATOM     21  HN  UNL     1     -40.813 -48.430   9.445  1.00  0.00     0.186 HD
ENDBRANCH  14  15
ENDBRANCH  13  14
ENDBRANCH   1  13
TORSDOF 7
ENDMDL
MODEL 4
REMARK VINA RESULT:      -5.5      1.147      1.830
REMARK  7 active torsions:
REMARK  status: ('A' for Active; 'I' for Inactive)
REMARK    1  A    between atoms: C_7  and  O_8 
REMARK    2  A    between atoms: O_8  and  C_9 
REMARK    3  A    between atoms: C_9  and  C_10 
REMARK    4  A    between atoms: C_10  and  N_11 
REMARK    5  A    between atoms: N_11  and  C_12 
REMARK    6  A    between atoms: C_12  and  C_13 
REMARK    7  A    between atoms: C_13  and  N_14 
ROOT
HETATM    1  N   UNL     1     -42.491 -48.885  13.173  1.00  0.00     0.087 N 
HETATM    2  H   UNL     1     -42.224 -48.659  14.133  1.00  0.00     0.316 HD
ENDROOT
BRANCH   1   3
HETATM    3  C   UNL     1     -41.853 -50.154  12.796  1.00  0.00     0.295 C 
BRANCH   3   4
HETATM    4  C   UNL     1     -42.849 -51.300  12.910  1.00  0.00     0.198 C 
BRANCH   4   5
HETATM    5  O   UNL     1     -44.161 -50.757  13.074  1.00  0.00    -0.384 OA
BRANCH   5   6
HETATM    6  C   UNL     1     -45.156 -51.764  13.283  1.00  0.00     0.125 C 
HETATM    7  C   UNL     1     -46.071 -51.436  14.483  1.00  0.00     0.010 C 
HETATM    8  C   UNL     1     -45.277 -51.073  15.746  1.00  0.00     0.012 C 
HETATM    9  C   UNL     1     -47.056 -52.582  14.729  1.00  0.00     0.007 C 
HETATM   10  C   UNL     1     -46.359 -53.926  14.910  1.00  0.00     0.001 C 
HETATM   11  C   UNL     1     -45.420 -54.241  13.748  1.00  0.00     0.002 C 
HETATM   12  C   UNL     1     -44.438 -53.105  13.471  1.00  0.00     0.032 C 
ENDBRANCH   5   6
ENDBRANCH   4   5
ENDBRANCH   3   4
ENDBRANCH   1   3
BRANCH   1  13
HETATM   13  C   UNL     1     -42.055 -47.784  12.301  1.00  0.00     0.291 C 
BRANCH  13  14
HETATM   14  C   UNL     1     -41.769 -48.229  10.868  1.00  0.00     0.178 C 
BRANCH  14  15
HETATM   15  N   UNL     1     -42.871 -47.902   9.992  1.00  0.00    -0.302 N 
HETATM   16  C   UNL     1     -44.124 -47.521  10.365  1.00  0.00     0.118 A 
HETATM   17  C   UNL     1     -44.836 -47.344   9.200  1.00  0.00    -0.028 A 
HETATM   18  C   UNL     1     -46.248 -46.941   9.044  1.00  0.00     0.051 C 
HETATM   19  C   UNL     1     -43.907 -47.644   8.180  1.00  0.00     0.115 A 
HETATM   20  N   UNL     1     -42.705 -47.974   8.656  1.00  0.00    -0.310 N 
ATOM     21  HN  UNL     1     -41.864 -48.222   8.135  1.00  0.00     0.186 HD
ENDBRANCH  14  15
ENDBRANCH  13  14
ENDBRANCH   1  13
TORSDOF 7
ENDMDL
MODEL 5
REMARK VINA RESULT:      -5.2      2.328      3.418
REMARK  7 active torsions:
REMARK  status: ('A' for Active; 'I' for Inactive)
REMARK    1  A    between atoms: C_7  and  O_8 
REMARK    2  A    between atoms: O_8  and  C_9 
REMARK    3  A    between atoms: C_9  and  C_10 
REMARK    4  A    between atoms: C_10  and  N_11 
REMARK    5  A    between atoms: N_11  and  C_12 
REMARK    6  A    between atoms: C_12  and  C_13 
REMARK    7  A    between atoms: C_13  and  N_14 
ROOT
HETATM    1  N   UNL     1     -40.905 -51.144  11.340  1.00  0.00     0.087 N 
HETATM    2  H   UNL     1     -41.834 -51.078  10.919  1.00  0.00     0.316 HD
ENDROOT
BRANCH   1   3
HETATM    3  C   UNL     1     -41.008 -51.930  12.577  1.00  0.00     0.295 C 
BRANCH   3   4
HETATM    4  C   UNL     1     -42.241 -52.822  12.536  1.00  0.00     0.198 C 
BRANCH   4   5
HETATM    5  O   UNL     1     -42.823 -52.867  13.840  1.00  0.00    -0.384 OA
BRANCH   5   6
HETATM    6  C   UNL     1     -43.931 -51.973  13.985  1.00  0.00     0.125 C 
HETATM    7  C   UNL     1     -44.477 -51.955  15.430  1.00  0.00     0.010 C 
HETATM    8  C   UNL     1     -44.737 -53.365  15.978  1.00  0.00     0.012 C 
HETATM    9  C   UNL     1     -45.718 -51.063  15.517  1.00  0.00     0.007 C 
HETATM   10  C   UNL     1     -46.799 -51.461  14.518  1.00  0.00     0.001 C 
HETATM   11  C   UNL     1     -46.259 -51.522  13.091  1.00  0.00     0.002 C 
HETATM   12  C   UNL     1     -45.010 -52.392  12.980  1.00  0.00     0.032 C 
ENDBRANCH   5   6
ENDBRANCH   4   5
ENDBRANCH   3   4
ENDBRANCH   1   3
BRANCH   1  13
HETATM   13  C   UNL     1     -40.420 -49.782  11.607  1.00  0.00     0.291 C 
BRANCH  13  14
HETATM   14  C   UNL     1     -41.231 -48.704  10.889  1.00  0.00     0.178 C 
BRANCH  14  15
HETATM   15  N   UNL     1     -40.698 -47.388  11.157  1.00  0.00    -0.302 N 
HETATM   16  C   UNL     1     -40.147 -46.953  12.323  1.00  0.00     0.118 A 
HETATM   17  C   UNL     1     -39.808 -45.634  12.122  1.00  0.00    -0.028 A 
HETATM   18  C   UNL     1     -39.186 -44.693  13.076  1.00  0.00     0.051 C 
HETATM   19  C   UNL     1     -40.199 -45.378  10.789  1.00  0.00     0.115 A 
HETATM   20  N   UNL     1     -40.732 -46.446  10.193  1.00  0.00    -0.310 N 
ATOM     21  HN  UNL     1     -41.082 -46.530   9.238  1.00  0.00     0.186 HD
ENDBRANCH  14  15
ENDBRANCH  13  14
ENDBRANCH   1  13
TORSDOF 7
ENDMDL
MODEL 6
REMARK VINA RESULT:      -5.0      3.338      4.283
REMARK  7 active torsions:
REMARK  status: ('A' for Active; 'I' for Inactive)
REMARK    1  A    between atoms: C_7  and  O_8 
REMARK    2  A    between atoms: O_8  and  C_9 
REMARK    3  A    between atoms: C_9  and  C_10 
REMARK    4  A    between atoms: C_10  and  N_11 
REMARK    5  A    between atoms: N_11  and  C_12 
REMARK    6  A    between atoms: C_12  and  C_13 
REMARK    7  A    between atoms: C_13  and  N_14 
ROOT
HETATM    1  N   UNL     1     -40.410 -50.016  10.797  1.00  0.00     0.087 N 
HETATM    2  H   UNL     1     -41.026 -50.775  11.096  1.00  0.00     0.316 HD
ENDROOT
BRANCH   1   3
HETATM    3  C   UNL     1     -39.267 -49.950  11.718  1.00  0.00     0.295 C 
BRANCH   3   4
HETATM    4  C   UNL     1     -39.291 -51.135  12.674  1.00  0.00     0.198 C 
BRANCH   4   5
HETATM    5  O   UNL     1     -40.130 -52.154  12.127  1.00  0.00    -0.384 OA
BRANCH   5   6
HETATM    6  C   UNL     1     -40.541 -53.118  13.100  1.00  0.00     0.125 C 
HETATM    7  C   UNL     1     -42.040 -53.467  12.976  1.00  0.00     0.010 C 
HETATM    8  C   UNL     1     -42.932 -52.219  12.919  1.00  0.00     0.012 C 
HETATM    9  C   UNL     1     -42.457 -54.425  14.094  1.00  0.00     0.007 C 
HETATM   10  C   UNL     1     -42.124 -53.888  15.482  1.00  0.00     0.001 C 
HETATM   11  C   UNL     1     -40.652 -53.501  15.603  1.00  0.00     0.002 C 
HETATM   12  C   UNL     1     -40.206 -52.559  14.488  1.00  0.00     0.032 C 
ENDBRANCH   5   6
ENDBRANCH   4   5
ENDBRANCH   3   4
ENDBRANCH   1   3
BRANCH   1  13
HETATM   13  C   UNL     1     -41.181 -48.764  10.805  1.00  0.00     0.291 C 
BRANCH  13  14
HETATM   14  C   UNL     1     -40.826 -47.847  11.974  1.00  0.00     0.178 C 
BRANCH  14  15
HETATM   15  N   UNL     1     -40.539 -46.507  11.516  1.00  0.00    -0.302 N 
HETATM   16  C   UNL     1     -40.974 -45.344  12.074  1.00  0.00     0.118 A 
HETATM   17  C   UNL     1     -40.477 -44.329  11.288  1.00  0.00    -0.028 A 
HETATM   18  C   UNL     1     -40.663 -42.873  11.449  1.00  0.00     0.051 C 
HETATM   19  C   UNL     1     -39.749 -45.000  10.280  1.00  0.00     0.115 A 
HETATM   20  N   UNL     1     -39.775 -46.326  10.420  1.00  0.00    -0.310 N 
ATOM     21  HN  UNL     1     -39.325 -47.034   9.838  1.00  0.00     0.186 HD
ENDBRANCH  14  15
ENDBRANCH  13  14
ENDBRANCH   1  13
TORSDOF 7
ENDMDL
MODEL 7
REMARK VINA RESULT:      -5.0      2.872      4.969
REMARK  7 active torsions:
REMARK  status: ('A' for Active; 'I' for Inactive)
REMARK    1  A    between atoms: C_7  and  O_8 
REMARK    2  A    between atoms: O_8  and  C_9 
REMARK    3  A    between atoms: C_9  and  C_10 
REMARK    4  A    between atoms: C_10  and  N_11 
REMARK    5  A    between atoms: N_11  and  C_12 
REMARK    6  A    between atoms: C_12  and  C_13 
REMARK    7  A    between atoms: C_13  and  N_14 
ROOT
HETATM    1  N   UNL     1     -41.144 -49.092  13.339  1.00  0.00     0.087 N 
HETATM    2  H   UNL     1     -41.479 -49.351  14.269  1.00  0.00     0.316 HD
ENDROOT
BRANCH   1   3
HETATM    3  C   UNL     1     -42.200 -49.386  12.361  1.00  0.00     0.295 C 
BRANCH   3   4
HETATM    4  C   UNL     1     -43.478 -49.805  13.076  1.00  0.00     0.198 C 
BRANCH   4   5
HETATM    5  O   UNL     1     -43.577 -51.230  13.049  1.00  0.00    -0.384 OA
BRANCH   5   6
HETATM    6  C   UNL     1     -44.443 -51.747  14.064  1.00  0.00     0.125 C 
HETATM    7  C   UNL     1     -44.349 -53.284  14.181  1.00  0.00     0.010 C 
HETATM    8  C   UNL     1     -44.490 -53.986  12.823  1.00  0.00     0.012 C 
HETATM    9  C   UNL     1     -45.360 -53.801  15.207  1.00  0.00     0.007 C 
HETATM   10  C   UNL     1     -46.786 -53.351  14.905  1.00  0.00     0.001 C 
HETATM   11  C   UNL     1     -46.882 -51.836  14.746  1.00  0.00     0.002 C 
HETATM   12  C   UNL     1     -45.871 -51.292  13.740  1.00  0.00     0.032 C 
ENDBRANCH   5   6
ENDBRANCH   4   5
ENDBRANCH   3   4
ENDBRANCH   1   3
BRANCH   1  13
HETATM   13  C   UNL     1     -39.922 -49.861  13.057  1.00  0.00     0.291 C 
BRANCH  13  14
HETATM   14  C   UNL     1     -40.128 -50.957  12.014  1.00  0.00     0.178 C 
BRANCH  14  15
HETATM   15  N   UNL     1     -40.420 -52.225  12.643  1.00  0.00    -0.302 N 
HETATM   16  C   UNL     1     -40.381 -52.503  13.975  1.00  0.00     0.118 A 
HETATM   17  C   UNL     1     -40.703 -53.835  14.100  1.00  0.00    -0.028 A 
HETATM   18  C   UNL     1     -40.795 -54.641  15.335  1.00  0.00     0.051 C 
HETATM   19  C   UNL     1     -40.920 -54.264  12.772  1.00  0.00     0.115 A 
HETATM   20  N   UNL     1     -40.759 -53.285  11.881  1.00  0.00    -0.310 N 
ATOM     21  HN  UNL     1     -40.867 -53.327  10.867  1.00  0.00     0.186 HD
ENDBRANCH  14  15
ENDBRANCH  13  14
ENDBRANCH   1  13
TORSDOF 7
ENDMDL
MODEL 8
REMARK VINA RESULT:      -4.9      2.297      3.178
REMARK  7 active torsions:
REMARK  status: ('A' for Active; 'I' for Inactive)
REMARK    1  A    between atoms: C_7  and  O_8 
REMARK    2  A    between atoms: O_8  and  C_9 
REMARK    3  A    between atoms: C_9  and  C_10 
REMARK    4  A    between atoms: C_10  and  N_11 
REMARK    5  A    between atoms: N_11  and  C_12 
REMARK    6  A    between atoms: C_12  and  C_13 
REMARK    7  A    between atoms: C_13  and  N_14 
ROOT
HETATM    1  N   UNL     1     -39.356 -53.118  13.953  1.00  0.00     0.087 N 
HETATM    2  H   UNL     1     -38.658 -53.290  13.227  1.00  0.00     0.316 HD
ENDROOT
BRANCH   1   3
HETATM    3  C   UNL     1     -40.408 -54.137  13.842  1.00  0.00     0.295 C 
BRANCH   3   4
HETATM    4  C   UNL     1     -41.722 -53.495  13.416  1.00  0.00     0.198 C 
BRANCH   4   5
HETATM    5  O   UNL     1     -42.763 -53.954  14.280  1.00  0.00    -0.384 OA
BRANCH   5   6
HETATM    6  C   UNL     1     -43.785 -52.975  14.488  1.00  0.00     0.125 C 
HETATM    7  C   UNL     1     -45.154 -53.621  14.794  1.00  0.00     0.010 C 
HETATM    8  C   UNL     1     -45.530 -54.711  13.780  1.00  0.00     0.012 C 
HETATM    9  C   UNL     1     -46.235 -52.543  14.913  1.00  0.00     0.007 C 
HETATM   10  C   UNL     1     -46.305 -51.645  13.683  1.00  0.00     0.001 C 
HETATM   11  C   UNL     1     -44.947 -51.034  13.347  1.00  0.00     0.002 C 
HETATM   12  C   UNL     1     -43.847 -52.087  13.240  1.00  0.00     0.032 C 
ENDBRANCH   5   6
ENDBRANCH   4   5
ENDBRANCH   3   4
ENDBRANCH   1   3
BRANCH   1  13
HETATM   13  C   UNL     1     -39.897 -51.764  13.762  1.00  0.00     0.291 C 
BRANCH  13  14
HETATM   14  C   UNL     1     -39.391 -51.089  12.489  1.00  0.00     0.178 C 
BRANCH  14  15
HETATM   15  N   UNL     1     -40.344 -50.118  12.001  1.00  0.00    -0.302 N 
HETATM   16  C   UNL     1     -41.293 -49.470  12.731  1.00  0.00     0.118 A 
HETATM   17  C   UNL     1     -41.980 -48.669  11.846  1.00  0.00    -0.028 A 
HETATM   18  C   UNL     1     -43.116 -47.766  12.121  1.00  0.00     0.051 C 
HETATM   19  C   UNL     1     -41.353 -48.913  10.604  1.00  0.00     0.115 A 
HETATM   20  N   UNL     1     -40.349 -49.787  10.694  1.00  0.00    -0.310 N 
ATOM     21  HN  UNL     1     -39.733 -50.124   9.954  1.00  0.00     0.186 HD
ENDBRANCH  14  15
ENDBRANCH  13  14
ENDBRANCH   1  13
TORSDOF 7
ENDMDL
MODEL 9
REMARK VINA RESULT:      -4.9      2.886      3.787
REMARK  7 active torsions:
REMARK  status: ('A' for Active; 'I' for Inactive)
REMARK    1  A    between atoms: C_7  and  O_8 
REMARK    2  A    between atoms: O_8  and  C_9 
REMARK    3  A    between atoms: C_9  and  C_10 
REMARK    4  A    between atoms: C_10  and  N_11 
REMARK    5  A    between atoms: N_11  and  C_12 
REMARK    6  A    between atoms: C_12  and  C_13 
REMARK    7  A    between atoms: C_13  and  N_14 
ROOT
HETATM    1  N   UNL     1     -38.810 -50.437  14.464  1.00  0.00     0.087 N 
HETATM    2  H   UNL     1     -37.994 -50.222  15.041  1.00  0.00     0.316 HD
ENDROOT
BRANCH   1   3
HETATM    3  C   UNL     1     -38.495 -51.601  13.624  1.00  0.00     0.295 C 
BRANCH   3   4
HETATM    4  C   UNL     1     -39.452 -52.745  13.928  1.00  0.00     0.198 C 
BRANCH   4   5
HETATM    5  O   UNL     1     -40.160 -53.085  12.734  1.00  0.00    -0.384 OA
BRANCH   5   6
HETATM    6  C   UNL     1     -41.345 -53.844  12.987  1.00  0.00     0.125 C 
HETATM    7  C   UNL     1     -42.617 -53.117  12.499  1.00  0.00     0.010 C 
HETATM    8  C   UNL     1     -42.689 -51.664  12.992  1.00  0.00     0.012 C 
HETATM    9  C   UNL     1     -43.866 -53.918  12.876  1.00  0.00     0.007 C 
HETATM   10  C   UNL     1     -43.937 -54.225  14.368  1.00  0.00     0.001 C 
HETATM   11  C   UNL     1     -42.667 -54.907  14.870  1.00  0.00     0.002 C 
HETATM   12  C   UNL     1     -41.405 -54.137  14.491  1.00  0.00     0.032 C 
ENDBRANCH   5   6
ENDBRANCH   4   5
ENDBRANCH   3   4
ENDBRANCH   1   3
BRANCH   1  13
HETATM   13  C   UNL     1     -39.123 -49.254  13.647  1.00  0.00     0.291 C 
BRANCH  13  14
HETATM   14  C   UNL     1     -39.216 -49.562  12.154  1.00  0.00     0.178 C 
BRANCH  14  15
HETATM   15  N   UNL     1     -40.168 -48.691  11.502  1.00  0.00    -0.302 N 
HETATM   16  C   UNL     1     -40.302 -47.349  11.683  1.00  0.00     0.118 A 
HETATM   17  C   UNL     1     -41.348 -46.954  10.880  1.00  0.00    -0.028 A 
HETATM   18  C   UNL     1     -41.910 -45.599  10.711  1.00  0.00     0.051 C 
HETATM   19  C   UNL     1     -41.770 -48.147  10.253  1.00  0.00     0.115 A 
HETATM   20  N   UNL     1     -41.048 -49.207  10.620  1.00  0.00    -0.310 N 
ATOM     21  HN  UNL     1     -41.139 -50.174  10.309  1.00  0.00     0.186 HD
ENDBRANCH  14  15
ENDBRANCH  13  14
ENDBRANCH   1  13
TORSDOF 7
ENDMDL
