MODEL 1
REMARK VINA RESULT:      -6.2      0.000      0.000
REMARK  3 active torsions:
REMARK  status: ('A' for Active; 'I' for Inactive)
REMARK    1  A    between atoms: O_2  and  C_3 
REMARK    2  A    between atoms: C_6  and  N_7 
REMARK       I    between atoms: N_7  and  C_8 
REMARK       I    between atoms: C_8  and  N_10 
REMARK    3  A    between atoms: N_10  and  C_11 
ROOT
HETATM    1  N   UNL     1     -41.673 -50.022  11.502  1.00  0.00    -0.337 N 
HETATM    2  C   UNL     1     -40.754 -49.088  11.122  1.00  0.00     0.322 C 
HETATM    3  O   UNL     1     -39.571 -49.126  11.445  1.00  0.00    -0.247 OA
HETATM    4  N   UNL     1     -41.230 -48.037  10.385  1.00  0.00    -0.295 N 
HETATM    5  H   UNL     1     -42.577 -49.892  11.054  1.00  0.00     0.164 HD
HETATM    6  H   UNL     1     -40.546 -47.308  10.241  1.00  0.00     0.172 HD
ENDROOT
BRANCH   1   7
HETATM    7  C   UNL     1     -41.367 -51.250  12.248  1.00  0.00     0.099 C 
HETATM    8  C   UNL     1     -42.506 -52.289  12.179  1.00  0.00     0.064 C 
HETATM    9  C   UNL     1     -43.013 -51.832  13.579  1.00  0.00     0.067 C 
HETATM   10  C   UNL     1     -44.193 -50.857  13.539  1.00  0.00     0.047 C 
HETATM   11  C   UNL     1     -41.573 -51.186  13.802  1.00  0.00     0.004 C 
HETATM   12  C   UNL     1     -41.529 -49.819  14.492  1.00  0.00     0.020 C 
HETATM   13  C   UNL     1     -40.574 -52.125  14.514  1.00  0.00     0.020 C 
BRANCH   9  14
HETATM   14  O   UNL     1     -43.319 -52.899  14.521  1.00  0.00    -0.384 OA
HETATM   15  C   UNL     1     -44.551 -52.827  15.230  1.00  0.00     0.202 C 
ENDBRANCH   9  14
ENDBRANCH   1   7
BRANCH   4  16
HETATM   16  C   UNL     1     -42.509 -47.876   9.839  1.00  0.00     0.108 A 
HETATM   17  C   UNL     1     -43.564 -47.561  10.688  1.00  0.00     0.052 A 
HETATM   18  C   UNL     1     -44.850 -47.448  10.151  1.00  0.00     0.047 A 
HETATM   19  C   UNL     1     -45.032 -47.613   8.788  1.00  0.00     0.131 A 
HETATM   20  F   UNL     1     -46.249 -47.505   8.241  1.00  0.00    -0.205 F 
HETATM   21  C   UNL     1     -43.932 -47.890   8.005  1.00  0.00     0.132 A 
HETATM   22  N   UNL     1     -42.683 -48.043   8.506  1.00  0.00    -0.349 N 
ATOM     23  HN  UNL     1     -41.898 -48.277   7.898  1.00  0.00     0.167 HD
ENDBRANCH   4  16
TORSDOF 3
ENDMDL
MODEL 2
REMARK VINA RESULT:      -6.1      1.747      2.268
REMARK  3 active torsions:
REMARK  status: ('A' for Active; 'I' for Inactive)
REMARK    1  A    between atoms: O_2  and  C_3 
REMARK    2  A    between atoms: C_6  and  N_7 
REMARK       I    between atoms: N_7  and  C_8 
REMARK       I    between atoms: C_8  and  N_10 
REMARK    3  A    between atoms: N_10  and  C_11 
ROOT
HETATM    1  N   UNL     1     -42.273 -51.555  12.171  1.00  0.00    -0.337 N 
HETATM    2  C   UNL     1     -40.960 -51.219  12.024  1.00  0.00     0.322 C 
HETATM    3  O   UNL     1     -40.030 -51.971  12.300  1.00  0.00    -0.247 OA
HETATM    4  N   UNL     1     -40.706 -49.945  11.593  1.00  0.00    -0.295 N 
HETATM    5  H   UNL     1     -42.905 -50.855  11.791  1.00  0.00     0.164 HD
HETATM    6  H   UNL     1     -39.727 -49.699  11.627  1.00  0.00     0.172 HD
ENDROOT
BRANCH   1   7
HETATM    7  C   UNL     1     -42.764 -52.881  12.569  1.00  0.00     0.099 C 
HETATM    8  C   UNL     1     -44.230 -53.125  12.152  1.00  0.00     0.064 C 
HETATM    9  C   UNL     1     -44.704 -52.764  13.592  1.00  0.00     0.067 C 
HETATM   10  C   UNL     1     -45.214 -51.329  13.751  1.00  0.00     0.047 C 
HETATM   11  C   UNL     1     -43.206 -53.036  14.066  1.00  0.00     0.004 C 
HETATM   12  C   UNL     1     -42.626 -52.072  15.106  1.00  0.00     0.020 C 
HETATM   13  C   UNL     1     -42.960 -54.482  14.551  1.00  0.00     0.020 C 
BRANCH   9  14
HETATM   14  O   UNL     1     -45.671 -53.675  14.187  1.00  0.00    -0.384 OA
HETATM   15  C   UNL     1     -46.825 -53.111  14.800  1.00  0.00     0.202 C 
ENDBRANCH   9  14
ENDBRANCH   1   7
BRANCH   4  16
HETATM   16  C   UNL     1     -41.624 -48.992  11.135  1.00  0.00     0.108 A 
HETATM   17  C   UNL     1     -42.505 -48.420  12.046  1.00  0.00     0.052 A 
HETATM   18  C   UNL     1     -43.452 -47.503  11.581  1.00  0.00     0.047 A 
HETATM   19  C   UNL     1     -43.464 -47.162  10.238  1.00  0.00     0.131 A 
HETATM   20  F   UNL     1     -44.354 -46.284   9.763  1.00  0.00    -0.205 F 
HETATM   21  C   UNL     1     -42.536 -47.745   9.403  1.00  0.00     0.132 A 
HETATM   22  N   UNL     1     -41.633 -48.664   9.821  1.00  0.00    -0.349 N 
ATOM     23  HN  UNL     1     -40.981 -49.096   9.166  1.00  0.00     0.167 HD
ENDBRANCH   4  16
TORSDOF 3
ENDMDL
MODEL 3
REMARK VINA RESULT:      -6.1      4.368      7.181
REMARK  3 active torsions:
REMARK  status: ('A' for Active; 'I' for Inactive)
REMARK    1  A    between atoms: O_2  and  C_3 
REMARK    2  A    between atoms: C_6  and  N_7 
REMARK       I    between atoms: N_7  and  C_8 
REMARK       I    between atoms: C_8  and  N_10 
REMARK    3  A    between atoms: N_10  and  C_11 
ROOT
HETATM    1  N   UNL     1     -40.929 -47.074  10.729  1.00  0.00    -0.337 N 
HETATM    2  C   UNL     1     -41.609 -48.134  10.208  1.00  0.00     0.322 C 
HETATM    3  O   UNL     1     -42.569 -48.022   9.450  1.00  0.00    -0.247 OA
HETATM    4  N   UNL     1     -41.202 -49.375  10.620  1.00  0.00    -0.295 N 
HETATM    5  H   UNL     1     -40.098 -47.352  11.246  1.00  0.00     0.164 HD
HETATM    6  H   UNL     1     -41.816 -50.118  10.316  1.00  0.00     0.172 HD
ENDROOT
BRANCH   1   7
HETATM    7  C   UNL     1     -41.167 -45.666  10.381  1.00  0.00     0.099 C 
HETATM    8  C   UNL     1     -39.872 -44.827  10.370  1.00  0.00     0.064 C 
HETATM    9  C   UNL     1     -40.200 -44.296  11.798  1.00  0.00     0.067 C 
HETATM   10  C   UNL     1     -39.464 -45.021  12.929  1.00  0.00     0.047 C 
HETATM   11  C   UNL     1     -41.705 -44.749  11.533  1.00  0.00     0.004 C 
HETATM   12  C   UNL     1     -42.445 -45.401  12.706  1.00  0.00     0.020 C 
HETATM   13  C   UNL     1     -42.598 -43.629  10.954  1.00  0.00     0.020 C 
BRANCH   9  14
HETATM   14  O   UNL     1     -40.054 -42.860  11.988  1.00  0.00    -0.384 OA
HETATM   15  C   UNL     1     -39.807 -42.386  13.308  1.00  0.00     0.202 C 
ENDBRANCH   9  14
ENDBRANCH   1   7
BRANCH   4  16
HETATM   16  C   UNL     1     -40.078 -49.702  11.387  1.00  0.00     0.108 A 
HETATM   17  C   UNL     1     -40.227 -49.857  12.761  1.00  0.00     0.052 A 
HETATM   18  C   UNL     1     -39.097 -50.138  13.533  1.00  0.00     0.047 A 
HETATM   19  C   UNL     1     -37.870 -50.290  12.909  1.00  0.00     0.131 A 
HETATM   20  F   UNL     1     -36.769 -50.564  13.619  1.00  0.00    -0.205 F 
HETATM   21  C   UNL     1     -37.807 -50.156  11.539  1.00  0.00     0.132 A 
HETATM   22  N   UNL     1     -38.880 -49.847  10.772  1.00  0.00    -0.349 N 
ATOM     23  HN  UNL     1     -38.788 -49.727   9.763  1.00  0.00     0.167 HD
ENDBRANCH   4  16
TORSDOF 3
ENDMDL
MODEL 4
REMARK VINA RESULT:      -5.9      1.861      2.480
REMARK  3 active torsions:
REMARK  status: ('A' for Active; 'I' for Inactive)
REMARK    1  A    between atoms: O_2  and  C_3 
REMARK    2  A    between atoms: C_6  and  N_7 
REMARK       I    between atoms: N_7  and  C_8 
REMARK       I    between atoms: C_8  and  N_10 
REMARK    3  A    between atoms: N_10  and  C_11 
ROOT
HETATM    1  N   UNL     1     -40.947 -47.796  10.929  1.00  0.00    -0.337 N 
HETATM    2  C   UNL     1     -40.845 -46.498  10.524  1.00  0.00     0.322 C 
HETATM    3  O   UNL     1     -39.905 -45.765  10.817  1.00  0.00    -0.247 OA
HETATM    4  N   UNL     1     -41.897 -46.007   9.799  1.00  0.00    -0.295 N 
HETATM    5  H   UNL     1     -41.734 -48.282  10.504  1.00  0.00     0.164 HD
HETATM    6  H   UNL     1     -41.841 -45.011   9.637  1.00  0.00     0.172 HD
ENDROOT
BRANCH   1   7
HETATM    7  C   UNL     1     -39.912 -48.532  11.667  1.00  0.00     0.099 C 
HETATM    8  C   UNL     1     -39.988 -50.057  11.441  1.00  0.00     0.064 C 
HETATM    9  C   UNL     1     -40.752 -50.223  12.789  1.00  0.00     0.067 C 
HETATM   10  C   UNL     1     -42.271 -50.344  12.646  1.00  0.00     0.047 C 
HETATM   11  C   UNL     1     -40.195 -48.784  13.190  1.00  0.00     0.004 C 
HETATM   12  C   UNL     1     -41.163 -47.848  13.921  1.00  0.00     0.020 C 
HETATM   13  C   UNL     1     -38.869 -48.829  13.980  1.00  0.00     0.020 C 
BRANCH   9  14
HETATM   14  O   UNL     1     -40.276 -51.289  13.659  1.00  0.00    -0.384 OA
HETATM   15  C   UNL     1     -41.230 -51.952  14.481  1.00  0.00     0.202 C 
ENDBRANCH   9  14
ENDBRANCH   1   7
BRANCH   4  16
HETATM   16  C   UNL     1     -42.994 -46.710   9.286  1.00  0.00     0.108 A 
HETATM   17  C   UNL     1     -44.154 -46.787  10.048  1.00  0.00     0.052 A 
HETATM   18  C   UNL     1     -45.233 -47.529   9.558  1.00  0.00     0.047 A 
HETATM   19  C   UNL     1     -45.132 -48.133   8.315  1.00  0.00     0.131 A 
HETATM   20  F   UNL     1     -46.148 -48.846   7.815  1.00  0.00    -0.205 F 
HETATM   21  C   UNL     1     -43.961 -47.982   7.603  1.00  0.00     0.132 A 
HETATM   22  N   UNL     1     -42.888 -47.301   8.072  1.00  0.00    -0.349 N 
ATOM     23  HN  UNL     1     -42.028 -47.237   7.528  1.00  0.00     0.167 HD
ENDBRANCH   4  16
TORSDOF 3
ENDMDL
MODEL 5
REMARK VINA RESULT:      -5.6      3.844      5.923
REMARK  3 active torsions:
REMARK  status: ('A' for Active; 'I' for Inactive)
REMARK    1  A    between atoms: O_2  and  C_3 
REMARK    2  A    between atoms: C_6  and  N_7 
REMARK       I    between atoms: N_7  and  C_8 
REMARK       I    between atoms: C_8  and  N_10 
REMARK    3  A    between atoms: N_10  and  C_11 
ROOT
HETATM    1  N   UNL     1     -40.823 -51.416  13.669  1.00  0.00    -0.337 N 
HETATM    2  C   UNL     1     -40.036 -52.488  13.367  1.00  0.00     0.322 C 
HETATM    3  O   UNL     1     -38.817 -52.423  13.241  1.00  0.00    -0.247 OA
HETATM    4  N   UNL     1     -40.687 -53.671  13.145  1.00  0.00    -0.295 N 
HETATM    5  H   UNL     1     -41.792 -51.673  13.841  1.00  0.00     0.164 HD
HETATM    6  H   UNL     1     -40.081 -54.401  12.796  1.00  0.00     0.172 HD
ENDROOT
BRANCH   1   7
HETATM    7  C   UNL     1     -40.327 -50.072  13.993  1.00  0.00     0.099 C 
HETATM    8  C   UNL     1     -41.380 -49.207  14.719  1.00  0.00     0.064 C 
HETATM    9  C   UNL     1     -41.737 -48.506  13.374  1.00  0.00     0.067 C 
HETATM   10  C   UNL     1     -42.986 -49.061  12.683  1.00  0.00     0.047 C 
HETATM   11  C   UNL     1     -40.336 -49.028  12.822  1.00  0.00     0.004 C 
HETATM   12  C   UNL     1     -40.312 -49.544  11.380  1.00  0.00     0.020 C 
HETATM   13  C   UNL     1     -39.183 -48.016  12.998  1.00  0.00     0.020 C 
BRANCH   9  14
HETATM   14  O   UNL     1     -41.834 -47.054  13.423  1.00  0.00    -0.384 OA
HETATM   15  C   UNL     1     -42.900 -46.435  12.712  1.00  0.00     0.202 C 
ENDBRANCH   9  14
ENDBRANCH   1   7
BRANCH   4  16
HETATM   16  C   UNL     1     -42.043 -53.960  13.340  1.00  0.00     0.108 A 
HETATM   17  C   UNL     1     -42.427 -54.606  14.510  1.00  0.00     0.052 A 
HETATM   18  C   UNL     1     -43.774 -54.937  14.684  1.00  0.00     0.047 A 
HETATM   19  C   UNL     1     -44.692 -54.579  13.710  1.00  0.00     0.131 A 
HETATM   20  F   UNL     1     -45.989 -54.877  13.849  1.00  0.00    -0.205 F 
HETATM   21  C   UNL     1     -44.240 -53.909  12.594  1.00  0.00     0.132 A 
HETATM   22  N   UNL     1     -42.935 -53.611  12.383  1.00  0.00    -0.349 N 
ATOM     23  HN  UNL     1     -42.635 -53.140  11.530  1.00  0.00     0.167 HD
ENDBRANCH   4  16
TORSDOF 3
ENDMDL
MODEL 6
REMARK VINA RESULT:      -5.6      4.474      5.519
REMARK  3 active torsions:
REMARK  status: ('A' for Active; 'I' for Inactive)
REMARK    1  A    between atoms: O_2  and  C_3 
REMARK    2  A    between atoms: C_6  and  N_7 
REMARK       I    between atoms: N_7  and  C_8 
REMARK       I    between atoms: C_8  and  N_10 
REMARK    3  A    between atoms: N_10  and  C_11 
ROOT
HETATM    1  N   UNL     1     -41.260 -52.873  13.632  1.00  0.00    -0.337 N 
HETATM    2  C   UNL     1     -41.415 -52.746  12.283  1.00  0.00     0.322 C 
HETATM    3  O   UNL     1     -40.478 -52.665  11.494  1.00  0.00    -0.247 OA
HETATM    4  N   UNL     1     -42.703 -52.652  11.829  1.00  0.00    -0.295 N 
HETATM    5  H   UNL     1     -42.139 -53.036  14.117  1.00  0.00     0.164 HD
HETATM    6  H   UNL     1     -42.764 -52.426  10.846  1.00  0.00     0.172 HD
ENDROOT
BRANCH   1   7
HETATM    7  C   UNL     1     -39.973 -53.042  14.320  1.00  0.00     0.099 C 
HETATM    8  C   UNL     1     -39.526 -54.517  14.395  1.00  0.00     0.064 C 
HETATM    9  C   UNL     1     -40.064 -54.609  15.855  1.00  0.00     0.067 C 
HETATM   10  C   UNL     1     -41.450 -55.248  15.981  1.00  0.00     0.047 C 
HETATM   11  C   UNL     1     -40.017 -53.016  15.887  1.00  0.00     0.004 C 
HETATM   12  C   UNL     1     -41.186 -52.305  16.577  1.00  0.00     0.020 C 
HETATM   13  C   UNL     1     -38.697 -52.445  16.451  1.00  0.00     0.020 C 
BRANCH   9  14
HETATM   14  O   UNL     1     -39.170 -55.233  16.821  1.00  0.00    -0.384 OA
HETATM   15  C   UNL     1     -39.719 -56.209  17.700  1.00  0.00     0.202 C 
ENDBRANCH   9  14
ENDBRANCH   1   7
BRANCH   4  16
HETATM   16  C   UNL     1     -43.887 -52.825  12.554  1.00  0.00     0.108 A 
HETATM   17  C   UNL     1     -44.252 -54.110  12.941  1.00  0.00     0.052 A 
HETATM   18  C   UNL     1     -45.459 -54.290  13.625  1.00  0.00     0.047 A 
HETATM   19  C   UNL     1     -46.236 -53.185  13.929  1.00  0.00     0.131 A 
HETATM   20  F   UNL     1     -47.394 -53.322  14.587  1.00  0.00    -0.205 F 
HETATM   21  C   UNL     1     -45.791 -51.939  13.542  1.00  0.00     0.132 A 
HETATM   22  N   UNL     1     -44.646 -51.742  12.846  1.00  0.00    -0.349 N 
ATOM     23  HN  UNL     1     -44.365 -50.807  12.552  1.00  0.00     0.167 HD
ENDBRANCH   4  16
TORSDOF 3
ENDMDL
MODEL 7
REMARK VINA RESULT:      -5.6      4.545      6.077
REMARK  3 active torsions:
REMARK  status: ('A' for Active; 'I' for Inactive)
REMARK    1  A    between atoms: O_2  and  C_3 
REMARK    2  A    between atoms: C_6  and  N_7 
REMARK       I    between atoms: N_7  and  C_8 
REMARK       I    between atoms: C_8  and  N_10 
REMARK    3  A    between atoms: N_10  and  C_11 
ROOT
HETATM    1  N   UNL     1     -42.731 -53.946  15.315  1.00  0.00    -0.337 N 
HETATM    2  C   UNL     1     -43.682 -54.445  16.155  1.00  0.00     0.322 C 
HETATM    3  O   UNL     1     -43.427 -55.116  17.150  1.00  0.00    -0.247 OA
HETATM    4  N   UNL     1     -44.983 -54.208  15.802  1.00  0.00    -0.295 N 
HETATM    5  H   UNL     1     -43.115 -53.324  14.607  1.00  0.00     0.164 HD
HETATM    6  H   UNL     1     -45.650 -54.706  16.376  1.00  0.00     0.172 HD
ENDROOT
BRANCH   1   7
HETATM    7  C   UNL     1     -41.281 -54.041  15.533  1.00  0.00     0.099 C 
HETATM    8  C   UNL     1     -40.671 -52.728  16.069  1.00  0.00     0.064 C 
HETATM    9  C   UNL     1     -40.204 -52.353  14.631  1.00  0.00     0.067 C 
HETATM   10  C   UNL     1     -41.127 -51.373  13.900  1.00  0.00     0.047 C 
HETATM   11  C   UNL     1     -40.377 -53.893  14.259  1.00  0.00     0.004 C 
HETATM   12  C   UNL     1     -40.985 -54.208  12.888  1.00  0.00     0.020 C 
HETATM   13  C   UNL     1     -39.083 -54.721  14.421  1.00  0.00     0.020 C 
BRANCH   9  14
HETATM   14  O   UNL     1     -38.832 -51.882  14.514  1.00  0.00    -0.384 OA
HETATM   15  C   UNL     1     -38.561 -50.854  13.567  1.00  0.00     0.202 C 
ENDBRANCH   9  14
ENDBRANCH   1   7
BRANCH   4  16
HETATM   16  C   UNL     1     -45.462 -53.387  14.775  1.00  0.00     0.108 A 
HETATM   17  C   UNL     1     -46.173 -52.240  15.112  1.00  0.00     0.052 A 
HETATM   18  C   UNL     1     -46.692 -51.445  14.086  1.00  0.00     0.047 A 
HETATM   19  C   UNL     1     -46.454 -51.797  12.768  1.00  0.00     0.131 A 
HETATM   20  F   UNL     1     -46.932 -51.054  11.763  1.00  0.00    -0.205 F 
HETATM   21  C   UNL     1     -45.711 -52.930  12.513  1.00  0.00     0.132 A 
HETATM   22  N   UNL     1     -45.229 -53.738  13.488  1.00  0.00    -0.349 N 
ATOM     23  HN  UNL     1     -44.708 -54.584  13.259  1.00  0.00     0.167 HD
ENDBRANCH   4  16
TORSDOF 3
ENDMDL
MODEL 8
REMARK VINA RESULT:      -5.5      3.648      5.449
REMARK  3 active torsions:
REMARK  status: ('A' for Active; 'I' for Inactive)
REMARK    1  A    between atoms: O_2  and  C_3 
REMARK    2  A    between atoms: C_6  and  N_7 
REMARK       I    between atoms: N_7  and  C_8 
REMARK       I    between atoms: C_8  and  N_10 
REMARK    3  A    between atoms: N_10  and  C_11 
ROOT
HETATM    1  N   UNL     1     -40.560 -52.064  12.983  1.00  0.00    -0.337 N 
HETATM    2  C   UNL     1     -40.673 -53.408  13.184  1.00  0.00     0.322 C 
HETATM    3  O   UNL     1     -39.712 -54.168  13.258  1.00  0.00    -0.247 OA
HETATM    4  N   UNL     1     -41.947 -53.904  13.245  1.00  0.00    -0.295 N 
HETATM    5  H   UNL     1     -41.450 -51.576  13.058  1.00  0.00     0.164 HD
HETATM    6  H   UNL     1     -41.982 -54.914  13.259  1.00  0.00     0.172 HD
ENDROOT
BRANCH   1   7
HETATM    7  C   UNL     1     -39.292 -51.322  12.940  1.00  0.00     0.099 C 
HETATM    8  C   UNL     1     -39.015 -50.537  14.239  1.00  0.00     0.064 C 
HETATM    9  C   UNL     1     -39.543 -49.233  13.568  1.00  0.00     0.067 C 
HETATM   10  C   UNL     1     -40.991 -48.880  13.919  1.00  0.00     0.047 C 
HETATM   11  C   UNL     1     -39.314 -49.958  12.167  1.00  0.00     0.004 C 
HETATM   12  C   UNL     1     -40.386 -49.739  11.094  1.00  0.00     0.020 C 
HETATM   13  C   UNL     1     -37.931 -49.675  11.539  1.00  0.00     0.020 C 
BRANCH   9  14
HETATM   14  O   UNL     1     -38.714 -48.049  13.748  1.00  0.00    -0.384 OA
HETATM   15  C   UNL     1     -39.371 -46.794  13.888  1.00  0.00     0.202 C 
ENDBRANCH   9  14
ENDBRANCH   1   7
BRANCH   4  16
HETATM   16  C   UNL     1     -43.150 -53.189  13.284  1.00  0.00     0.108 A 
HETATM   17  C   UNL     1     -43.452 -52.451  14.423  1.00  0.00     0.052 A 
HETATM   18  C   UNL     1     -44.675 -51.775  14.482  1.00  0.00     0.047 A 
HETATM   19  C   UNL     1     -45.531 -51.827  13.394  1.00  0.00     0.131 A 
HETATM   20  F   UNL     1     -46.706 -51.187  13.417  1.00  0.00    -0.205 F 
HETATM   21  C   UNL     1     -45.147 -52.551  12.287  1.00  0.00     0.132 A 
HETATM   22  N   UNL     1     -43.986 -53.246  12.219  1.00  0.00    -0.349 N 
ATOM     23  HN  UNL     1     -43.749 -53.795  11.393  1.00  0.00     0.167 HD
ENDBRANCH   4  16
TORSDOF 3
ENDMDL
MODEL 9
REMARK VINA RESULT:      -5.4      4.603      6.069
REMARK  3 active torsions:
REMARK  status: ('A' for Active; 'I' for Inactive)
REMARK    1  A    between atoms: O_2  and  C_3 
REMARK    2  A    between atoms: C_6  and  N_7 
REMARK       I    between atoms: N_7  and  C_8 
REMARK       I    between atoms: C_8  and  N_10 
REMARK    3  A    between atoms: N_10  and  C_11 
ROOT
HETATM    1  N   UNL     1     -44.509 -52.790  14.066  1.00  0.00    -0.337 N 
HETATM    2  C   UNL     1     -44.633 -52.994  12.724  1.00  0.00     0.322 C 
HETATM    3  O   UNL     1     -45.703 -53.220  12.165  1.00  0.00    -0.247 OA
HETATM    4  N   UNL     1     -43.470 -52.995  12.003  1.00  0.00    -0.295 N 
HETATM    5  H   UNL     1     -43.570 -52.509  14.338  1.00  0.00     0.164 HD
HETATM    6  H   UNL     1     -43.595 -53.282  11.042  1.00  0.00     0.172 HD
ENDROOT
BRANCH   1   7
HETATM    7  C   UNL     1     -45.630 -52.698  15.012  1.00  0.00     0.099 C 
HETATM    8  C   UNL     1     -46.303 -51.309  15.007  1.00  0.00     0.064 C 
HETATM    9  C   UNL     1     -45.492 -50.908  16.276  1.00  0.00     0.067 C 
HETATM   10  C   UNL     1     -44.245 -50.066  15.992  1.00  0.00     0.047 C 
HETATM   11  C   UNL     1     -45.250 -52.466  16.516  1.00  0.00     0.004 C 
HETATM   12  C   UNL     1     -43.855 -52.882  16.993  1.00  0.00     0.020 C 
HETATM   13  C   UNL     1     -46.299 -53.122  17.441  1.00  0.00     0.020 C 
BRANCH   9  14
HETATM   14  O   UNL     1     -46.255 -50.272  17.340  1.00  0.00    -0.384 OA
HETATM   15  C   UNL     1     -45.653 -49.182  18.030  1.00  0.00     0.202 C 
ENDBRANCH   9  14
ENDBRANCH   1   7
BRANCH   4  16
HETATM   16  C   UNL     1     -42.184 -52.658  12.441  1.00  0.00     0.108 A 
HETATM   17  C   UNL     1     -41.740 -51.352  12.271  1.00  0.00     0.052 A 
HETATM   18  C   UNL     1     -40.439 -51.026  12.665  1.00  0.00     0.047 A 
HETATM   19  C   UNL     1     -39.643 -51.999  13.247  1.00  0.00     0.131 A 
HETATM   20  F   UNL     1     -38.395 -51.718  13.640  1.00  0.00    -0.205 F 
HETATM   21  C   UNL     1     -40.165 -53.263  13.414  1.00  0.00     0.132 A 
HETATM   22  N   UNL     1     -41.408 -53.614  13.006  1.00  0.00    -0.349 N 
ATOM     23  HN  UNL     1     -41.749 -54.569  13.121  1.00  0.00     0.167 HD
ENDBRANCH   4  16
TORSDOF 3
ENDMDL
