MODEL 1
REMARK VINA RESULT:      -7.6      0.000      0.000
REMARK  6 active torsions:
REMARK  status: ('A' for Active; 'I' for Inactive)
REMARK    1  A    between atoms: C_2  and  N_4 
REMARK    2  A    between atoms: N_3  and  C_14 
REMARK    3  A    between atoms: C_14  and  C_16 
REMARK    4  A    between atoms: C_16  and  C_26 
REMARK    5  A    between atoms: C_23  and  O_27 
REMARK    6  A    between atoms: C_26  and  O_28 
ROOT
HETATM    1  C   UNL     1     -42.196 -49.300  12.390  1.00  0.00     0.117 A 
HETATM    2  C   UNL     1     -41.523 -48.440  11.481  1.00  0.00     0.115 A 
HETATM    3  N   UNL     1     -42.382 -51.099  13.649  1.00  0.00    -0.326 N 
HETATM    4  C   UNL     1     -41.540 -50.461  12.770  1.00  0.00     0.140 A 
HETATM    5  N   UNL     1     -43.415 -49.216  13.035  1.00  0.00    -0.346 N 
ATOM      6  HN  UNL     1     -44.112 -48.478  12.947  1.00  0.00     0.167 HD
HETATM    7  C   UNL     1     -43.483 -50.295  13.789  1.00  0.00     0.185 A 
HETATM    8  N   UNL     1     -40.320 -48.861  11.003  1.00  0.00    -0.341 N 
ATOM      9  HN  UNL     1     -39.815 -48.306  10.310  1.00  0.00     0.167 HD
HETATM   10  N   UNL     1     -40.332 -50.884  12.350  1.00  0.00    -0.336 N 
ATOM     11  HN  UNL     1     -39.878 -51.742  12.665  1.00  0.00     0.168 HD
HETATM   12  C   UNL     1     -39.803 -50.022  11.459  1.00  0.00     0.183 A 
ENDROOT
BRANCH   2  13
HETATM   13  N   UNL     1     -42.012 -47.173  11.144  1.00  0.00    -0.258 NA
HETATM   14  C   UNL     1     -41.069 -46.023  11.241  1.00  0.00     0.096 C 
HETATM   15  C   UNL     1     -40.314 -45.963  12.577  1.00  0.00     0.054 C 
HETATM   16  C   UNL     1     -41.932 -44.737  11.073  1.00  0.00     0.139 C 
HETATM   17  C   UNL     1     -39.483 -44.681  12.728  1.00  0.00     0.122 C 
HETATM   18  C   UNL     1     -40.360 -43.444  12.557  1.00  0.00     0.034 C 
HETATM   19  C   UNL     1     -41.101 -43.469  11.223  1.00  0.00     0.036 C 
HETATM   20  O   UNL     1     -42.560 -44.714   9.775  1.00  0.00    -0.383 OA
HETATM   21  C   UNL     1     -43.440 -45.844   9.632  1.00  0.00     0.183 C 
HETATM   22  C   UNL     1     -42.695 -47.182   9.831  1.00  0.00     0.124 C 
BRANCH  17  23
HETATM   23  O   UNL     1     -38.873 -44.739  14.017  1.00  0.00    -0.391 OA
HETATM   24  C   UNL     1     -38.878 -46.029  14.607  1.00  0.00     0.202 C 
ENDBRANCH  17  23
ENDBRANCH   2  13
BRANCH   3  25
HETATM   25  C   UNL     1     -42.142 -52.376  14.329  1.00  0.00     0.143 C 
BRANCH  25  26
HETATM   26  C   UNL     1     -42.323 -53.645  13.427  1.00  0.00     0.001 C 
HETATM   27  C   UNL     1     -43.230 -53.315  12.217  1.00  0.00     0.039 C 
HETATM   28  C   UNL     1     -44.700 -53.209  12.628  1.00  0.00     0.168 C 
HETATM   29  O   UNL     1     -45.139 -54.466  13.130  1.00  0.00    -0.391 OA
HETATM   30  C   UNL     1     -44.488 -54.812  14.344  1.00  0.00     0.168 C 
HETATM   31  C   UNL     1     -42.972 -54.842  14.191  1.00  0.00     0.039 C 
BRANCH  26  32
HETATM   32  C   UNL     1     -40.934 -54.149  12.968  1.00  0.00     0.175 C 
BRANCH  32  33
HETATM   33  O   UNL     1     -40.640 -53.665  11.659  1.00  0.00    -0.400 OA
HETATM   34  H   UNL     1     -40.746 -52.689  11.674  1.00  0.00     0.209 HD
ENDBRANCH  32  33
ENDBRANCH  26  32
ENDBRANCH  25  26
ENDBRANCH   3  25
TORSDOF 6
ENDMDL
MODEL 2
REMARK VINA RESULT:      -7.4      1.561      2.283
REMARK  6 active torsions:
REMARK  status: ('A' for Active; 'I' for Inactive)
REMARK    1  A    between atoms: C_2  and  N_4 
REMARK    2  A    between atoms: N_3  and  C_14 
REMARK    3  A    between atoms: C_14  and  C_16 
REMARK    4  A    between atoms: C_16  and  C_26 
REMARK    5  A    between atoms: C_23  and  O_27 
REMARK    6  A    between atoms: C_26  and  O_28 
ROOT
HETATM    1  C   UNL     1     -41.230 -49.545  12.697  1.00  0.00     0.117 A 
HETATM    2  C   UNL     1     -40.791 -48.691  11.649  1.00  0.00     0.115 A 
HETATM    3  N   UNL     1     -40.998 -51.196  14.138  1.00  0.00    -0.326 N 
HETATM    4  C   UNL     1     -40.351 -50.529  13.125  1.00  0.00     0.140 A 
HETATM    5  N   UNL     1     -42.391 -49.595  13.443  1.00  0.00    -0.346 N 
ATOM      6  HN  UNL     1     -43.213 -48.999  13.350  1.00  0.00     0.167 HD
HETATM    7  C   UNL     1     -42.209 -50.578  14.302  1.00  0.00     0.185 A 
HETATM    8  N   UNL     1     -39.573 -48.955  11.102  1.00  0.00    -0.341 N 
ATOM      9  HN  UNL     1     -39.229 -48.406  10.314  1.00  0.00     0.167 HD
HETATM   10  N   UNL     1     -39.123 -50.787  12.635  1.00  0.00    -0.336 N 
ATOM     11  HN  UNL     1     -38.502 -51.516  12.988  1.00  0.00     0.168 HD
HETATM   12  C   UNL     1     -38.825 -49.955  11.618  1.00  0.00     0.183 A 
ENDROOT
BRANCH   2  13
HETATM   13  N   UNL     1     -41.522 -47.571  11.237  1.00  0.00    -0.258 NA
HETATM   14  C   UNL     1     -40.824 -46.253  11.247  1.00  0.00     0.096 C 
HETATM   15  C   UNL     1     -40.096 -45.958  12.565  1.00  0.00     0.054 C 
HETATM   16  C   UNL     1     -41.925 -45.178  11.008  1.00  0.00     0.139 C 
HETATM   17  C   UNL     1     -39.534 -44.531  12.623  1.00  0.00     0.122 C 
HETATM   18  C   UNL     1     -40.638 -43.505  12.384  1.00  0.00     0.034 C 
HETATM   19  C   UNL     1     -41.361 -43.763  11.065  1.00  0.00     0.036 C 
HETATM   20  O   UNL     1     -42.545 -45.364   9.721  1.00  0.00    -0.383 OA
HETATM   21  C   UNL     1     -43.185 -46.653   9.663  1.00  0.00     0.183 C 
HETATM   22  C   UNL     1     -42.190 -47.801   9.937  1.00  0.00     0.124 C 
BRANCH  17  23
HETATM   23  O   UNL     1     -38.923 -44.382  13.905  1.00  0.00    -0.391 OA
HETATM   24  C   UNL     1     -39.621 -45.022  14.960  1.00  0.00     0.202 C 
ENDBRANCH  17  23
ENDBRANCH   2  13
BRANCH   3  25
HETATM   25  C   UNL     1     -40.484 -52.329  14.913  1.00  0.00     0.143 C 
BRANCH  25  26
HETATM   26  C   UNL     1     -40.711 -53.734  14.255  1.00  0.00     0.001 C 
HETATM   27  C   UNL     1     -41.576 -54.624  15.181  1.00  0.00     0.039 C 
HETATM   28  C   UNL     1     -40.772 -55.142  16.373  1.00  0.00     0.168 C 
HETATM   29  O   UNL     1     -39.710 -55.964  15.904  1.00  0.00    -0.391 OA
HETATM   30  C   UNL     1     -38.750 -55.222  15.164  1.00  0.00     0.168 C 
HETATM   31  C   UNL     1     -39.377 -54.496  13.980  1.00  0.00     0.039 C 
BRANCH  26  32
HETATM   32  C   UNL     1     -41.376 -53.549  12.870  1.00  0.00     0.175 C 
BRANCH  32  33
HETATM   33  O   UNL     1     -40.395 -53.622  11.837  1.00  0.00    -0.400 OA
HETATM   34  H   UNL     1     -40.614 -52.932  11.173  1.00  0.00     0.209 HD
ENDBRANCH  32  33
ENDBRANCH  26  32
ENDBRANCH  25  26
ENDBRANCH   3  25
TORSDOF 6
ENDMDL
MODEL 3
REMARK VINA RESULT:      -7.1      1.684      7.896
REMARK  6 active torsions:
REMARK  status: ('A' for Active; 'I' for Inactive)
REMARK    1  A    between atoms: C_2  and  N_4 
REMARK    2  A    between atoms: N_3  and  C_14 
REMARK    3  A    between atoms: C_14  and  C_16 
REMARK    4  A    between atoms: C_16  and  C_26 
REMARK    5  A    between atoms: C_23  and  O_27 
REMARK    6  A    between atoms: C_26  and  O_28 
ROOT
HETATM    1  C   UNL     1     -43.097 -48.491  12.541  1.00  0.00     0.117 A 
HETATM    2  C   UNL     1     -43.325 -49.496  13.519  1.00  0.00     0.115 A 
HETATM    3  N   UNL     1     -42.543 -46.466  11.871  1.00  0.00    -0.326 N 
HETATM    4  C   UNL     1     -42.711 -47.238  12.996  1.00  0.00     0.140 A 
HETATM    5  N   UNL     1     -43.152 -48.494  11.161  1.00  0.00    -0.346 N 
ATOM      6  HN  UNL     1     -43.410 -49.271  10.553  1.00  0.00     0.167 HD
HETATM    7  C   UNL     1     -42.798 -47.277  10.797  1.00  0.00     0.185 A 
HETATM    8  N   UNL     1     -43.216 -49.128  14.825  1.00  0.00    -0.341 N 
ATOM      9  HN  UNL     1     -43.417 -49.796  15.570  1.00  0.00     0.167 HD
HETATM   10  N   UNL     1     -42.550 -46.855  14.276  1.00  0.00    -0.336 N 
ATOM     11  HN  UNL     1     -42.252 -45.924  14.569  1.00  0.00     0.168 HD
HETATM   12  C   UNL     1     -42.836 -47.866  15.121  1.00  0.00     0.183 A 
ENDROOT
BRANCH   2  13
HETATM   13  N   UNL     1     -43.570 -50.832  13.181  1.00  0.00    -0.258 NA
HETATM   14  C   UNL     1     -42.602 -51.854  13.673  1.00  0.00     0.096 C 
HETATM   15  C   UNL     1     -41.137 -51.493  13.394  1.00  0.00     0.054 C 
HETATM   16  C   UNL     1     -42.961 -53.180  12.940  1.00  0.00     0.139 C 
HETATM   17  C   UNL     1     -40.170 -52.632  13.749  1.00  0.00     0.122 C 
HETATM   18  C   UNL     1     -40.551 -53.913  13.014  1.00  0.00     0.034 C 
HETATM   19  C   UNL     1     -41.999 -54.307  13.298  1.00  0.00     0.036 C 
HETATM   20  O   UNL     1     -44.296 -53.603  13.281  1.00  0.00    -0.383 OA
HETATM   21  C   UNL     1     -45.251 -52.609  12.862  1.00  0.00     0.183 C 
HETATM   22  C   UNL     1     -44.960 -51.231  13.494  1.00  0.00     0.124 C 
BRANCH  17  23
HETATM   23  O   UNL     1     -38.860 -52.179  13.406  1.00  0.00    -0.391 OA
HETATM   24  C   UNL     1     -38.836 -50.955  12.689  1.00  0.00     0.202 C 
ENDBRANCH  17  23
ENDBRANCH   2  13
BRANCH   3  25
HETATM   25  C   UNL     1     -42.140 -45.057  11.824  1.00  0.00     0.143 C 
BRANCH  25  26
HETATM   26  C   UNL     1     -40.601 -44.819  11.641  1.00  0.00     0.001 C 
HETATM   27  C   UNL     1     -39.854 -45.120  12.963  1.00  0.00     0.039 C 
HETATM   28  C   UNL     1     -40.060 -44.007  13.991  1.00  0.00     0.168 C 
HETATM   29  O   UNL     1     -39.513 -42.794  13.488  1.00  0.00    -0.391 OA
HETATM   30  C   UNL     1     -40.223 -42.321  12.352  1.00  0.00     0.168 C 
HETATM   31  C   UNL     1     -40.260 -43.352  11.231  1.00  0.00     0.039 C 
BRANCH  26  32
HETATM   32  C   UNL     1     -40.080 -45.705  10.485  1.00  0.00     0.175 C 
BRANCH  32  33
HETATM   33  O   UNL     1     -39.772 -44.903   9.347  1.00  0.00    -0.400 OA
HETATM   34  H   UNL     1     -40.218 -44.037   9.466  1.00  0.00     0.209 HD
ENDBRANCH  32  33
ENDBRANCH  26  32
ENDBRANCH  25  26
ENDBRANCH   3  25
TORSDOF 6
ENDMDL
MODEL 4
REMARK VINA RESULT:      -7.0      1.581      8.268
REMARK  6 active torsions:
REMARK  status: ('A' for Active; 'I' for Inactive)
REMARK    1  A    between atoms: C_2  and  N_4 
REMARK    2  A    between atoms: N_3  and  C_14 
REMARK    3  A    between atoms: C_14  and  C_16 
REMARK    4  A    between atoms: C_16  and  C_26 
REMARK    5  A    between atoms: C_23  and  O_27 
REMARK    6  A    between atoms: C_26  and  O_28 
ROOT
HETATM    1  C   UNL     1     -41.290 -49.228  13.165  1.00  0.00     0.117 A 
HETATM    2  C   UNL     1     -40.976 -50.562  12.788  1.00  0.00     0.115 A 
HETATM    3  N   UNL     1     -41.631 -47.085  12.775  1.00  0.00    -0.326 N 
HETATM    4  C   UNL     1     -41.288 -48.268  12.163  1.00  0.00     0.140 A 
HETATM    5  N   UNL     1     -41.643 -48.650  14.369  1.00  0.00    -0.346 N 
ATOM      6  HN  UNL     1     -41.722 -49.109  15.276  1.00  0.00     0.167 HD
HETATM    7  C   UNL     1     -41.855 -47.378  14.094  1.00  0.00     0.185 A 
HETATM    8  N   UNL     1     -40.630 -50.775  11.489  1.00  0.00    -0.341 N 
ATOM      9  HN  UNL     1     -40.347 -51.704  11.175  1.00  0.00     0.167 HD
HETATM   10  N   UNL     1     -40.993 -48.454  10.862  1.00  0.00    -0.336 N 
ATOM     11  HN  UNL     1     -41.015 -47.721  10.153  1.00  0.00     0.168 HD
HETATM   12  C   UNL     1     -40.666 -49.740  10.622  1.00  0.00     0.183 A 
ENDROOT
BRANCH   2  13
HETATM   13  N   UNL     1     -41.094 -51.639  13.673  1.00  0.00    -0.258 NA
HETATM   14  C   UNL     1     -41.978 -52.769  13.268  1.00  0.00     0.096 C 
HETATM   15  C   UNL     1     -43.366 -52.318  12.791  1.00  0.00     0.054 C 
HETATM   16  C   UNL     1     -42.129 -53.676  14.525  1.00  0.00     0.139 C 
HETATM   17  C   UNL     1     -44.318 -53.497  12.545  1.00  0.00     0.122 C 
HETATM   18  C   UNL     1     -44.441 -54.363  13.796  1.00  0.00     0.034 C 
HETATM   19  C   UNL     1     -43.073 -54.845  14.274  1.00  0.00     0.036 C 
HETATM   20  O   UNL     1     -40.850 -54.207  14.923  1.00  0.00    -0.383 OA
HETATM   21  C   UNL     1     -39.956 -53.134  15.272  1.00  0.00     0.183 C 
HETATM   22  C   UNL     1     -39.770 -52.138  14.107  1.00  0.00     0.124 C 
BRANCH  17  23
HETATM   23  O   UNL     1     -45.569 -52.937  12.148  1.00  0.00    -0.391 OA
HETATM   24  C   UNL     1     -45.987 -51.831  12.930  1.00  0.00     0.202 C 
ENDBRANCH  17  23
ENDBRANCH   2  13
BRANCH   3  25
HETATM   25  C   UNL     1     -41.761 -45.771  12.138  1.00  0.00     0.143 C 
BRANCH  25  26
HETATM   26  C   UNL     1     -40.406 -45.024  11.889  1.00  0.00     0.001 C 
HETATM   27  C   UNL     1     -39.385 -45.388  12.996  1.00  0.00     0.039 C 
HETATM   28  C   UNL     1     -39.708 -44.683  14.313  1.00  0.00     0.168 C 
HETATM   29  O   UNL     1     -39.617 -43.275  14.129  1.00  0.00    -0.391 OA
HETATM   30  C   UNL     1     -40.618 -42.787  13.246  1.00  0.00     0.168 C 
HETATM   31  C   UNL     1     -40.563 -43.471  11.886  1.00  0.00     0.039 C 
BRANCH  26  32
HETATM   32  C   UNL     1     -39.869 -45.391  10.486  1.00  0.00     0.175 C 
BRANCH  32  33
HETATM   33  O   UNL     1     -40.952 -45.625   9.587  1.00  0.00    -0.400 OA
HETATM   34  H   UNL     1     -41.010 -46.593   9.440  1.00  0.00     0.209 HD
ENDBRANCH  32  33
ENDBRANCH  26  32
ENDBRANCH  25  26
ENDBRANCH   3  25
TORSDOF 6
ENDMDL
MODEL 5
REMARK VINA RESULT:      -6.8      1.306      3.071
REMARK  6 active torsions:
REMARK  status: ('A' for Active; 'I' for Inactive)
REMARK    1  A    between atoms: C_2  and  N_4 
REMARK    2  A    between atoms: N_3  and  C_14 
REMARK    3  A    between atoms: C_14  and  C_16 
REMARK    4  A    between atoms: C_16  and  C_26 
REMARK    5  A    between atoms: C_23  and  O_27 
REMARK    6  A    between atoms: C_26  and  O_28 
ROOT
HETATM    1  C   UNL     1     -41.301 -49.091  12.631  1.00  0.00     0.117 A 
HETATM    2  C   UNL     1     -40.226 -48.204  12.347  1.00  0.00     0.115 A 
HETATM    3  N   UNL     1     -42.301 -51.055  12.640  1.00  0.00    -0.326 N 
HETATM    4  C   UNL     1     -41.150 -50.415  12.245  1.00  0.00     0.140 A 
HETATM    5  N   UNL     1     -42.516 -48.921  13.265  1.00  0.00    -0.346 N 
ATOM      6  HN  UNL     1     -42.898 -48.058  13.650  1.00  0.00     0.167 HD
HETATM    7  C   UNL     1     -43.075 -50.115  13.268  1.00  0.00     0.185 A 
HETATM    8  N   UNL     1     -39.168 -48.711  11.657  1.00  0.00    -0.341 N 
ATOM      9  HN  UNL     1     -38.392 -48.108  11.383  1.00  0.00     0.167 HD
HETATM   10  N   UNL     1     -40.098 -50.957  11.601  1.00  0.00    -0.336 N 
ATOM     11  HN  UNL     1     -40.022 -51.941  11.345  1.00  0.00     0.168 HD
HETATM   12  C   UNL     1     -39.161 -50.024  11.340  1.00  0.00     0.183 A 
ENDROOT
BRANCH   2  13
HETATM   13  N   UNL     1     -40.195 -46.887  12.820  1.00  0.00    -0.258 NA
HETATM   14  C   UNL     1     -41.360 -46.014  12.499  1.00  0.00     0.096 C 
HETATM   15  C   UNL     1     -41.752 -46.038  11.015  1.00  0.00     0.054 C 
HETATM   16  C   UNL     1     -40.945 -44.569  12.905  1.00  0.00     0.139 C 
HETATM   17  C   UNL     1     -42.835 -45.006  10.673  1.00  0.00     0.122 C 
HETATM   18  C   UNL     1     -42.395 -43.604  11.084  1.00  0.00     0.034 C 
HETATM   19  C   UNL     1     -42.025 -43.549  12.564  1.00  0.00     0.036 C 
HETATM   20  O   UNL     1     -40.685 -44.495  14.320  1.00  0.00    -0.383 OA
HETATM   21  C   UNL     1     -39.595 -45.369  14.669  1.00  0.00     0.183 C 
HETATM   22  C   UNL     1     -39.880 -46.831  14.264  1.00  0.00     0.124 C 
BRANCH  17  23
HETATM   23  O   UNL     1     -43.071 -45.110   9.269  1.00  0.00    -0.391 OA
HETATM   24  C   UNL     1     -43.876 -46.216   8.895  1.00  0.00     0.202 C 
ENDBRANCH  17  23
ENDBRANCH   2  13
BRANCH   3  25
HETATM   25  C   UNL     1     -42.627 -52.472  12.454  1.00  0.00     0.143 C 
BRANCH  25  26
HETATM   26  C   UNL     1     -42.042 -53.430  13.548  1.00  0.00     0.001 C 
HETATM   27  C   UNL     1     -43.067 -54.538  13.891  1.00  0.00     0.039 C 
HETATM   28  C   UNL     1     -44.209 -54.000  14.754  1.00  0.00     0.168 C 
HETATM   29  O   UNL     1     -43.686 -53.540  15.994  1.00  0.00    -0.391 OA
HETATM   30  C   UNL     1     -42.843 -52.407  15.829  1.00  0.00     0.168 C 
HETATM   31  C   UNL     1     -41.688 -52.688  14.876  1.00  0.00     0.039 C 
BRANCH  26  32
HETATM   32  C   UNL     1     -40.710 -54.032  13.042  1.00  0.00     0.175 C 
BRANCH  32  33
HETATM   33  O   UNL     1     -40.573 -53.820  11.638  1.00  0.00    -0.400 OA
HETATM   34  H   UNL     1     -41.476 -53.779  11.256  1.00  0.00     0.209 HD
ENDBRANCH  32  33
ENDBRANCH  26  32
ENDBRANCH  25  26
ENDBRANCH   3  25
TORSDOF 6
ENDMDL
MODEL 6
REMARK VINA RESULT:      -6.5      1.871      8.047
REMARK  6 active torsions:
REMARK  status: ('A' for Active; 'I' for Inactive)
REMARK    1  A    between atoms: C_2  and  N_4 
REMARK    2  A    between atoms: N_3  and  C_14 
REMARK    3  A    between atoms: C_14  and  C_16 
REMARK    4  A    between atoms: C_16  and  C_26 
REMARK    5  A    between atoms: C_23  and  O_27 
REMARK    6  A    between atoms: C_26  and  O_28 
ROOT
HETATM    1  C   UNL     1     -41.384 -49.590  12.768  1.00  0.00     0.117 A 
HETATM    2  C   UNL     1     -41.464 -50.406  13.929  1.00  0.00     0.115 A 
HETATM    3  N   UNL     1     -40.938 -47.723  11.684  1.00  0.00    -0.326 N 
HETATM    4  C   UNL     1     -40.938 -48.287  12.938  1.00  0.00     0.140 A 
HETATM    5  N   UNL     1     -41.639 -49.829  11.432  1.00  0.00    -0.346 N 
ATOM      6  HN  UNL     1     -41.981 -50.693  11.013  1.00  0.00     0.167 HD
HETATM    7  C   UNL     1     -41.345 -48.701  10.816  1.00  0.00     0.185 A 
HETATM    8  N   UNL     1     -41.165 -49.821  15.122  1.00  0.00    -0.341 N 
ATOM      9  HN  UNL     1     -41.254 -50.347  15.992  1.00  0.00     0.167 HD
HETATM   10  N   UNL     1     -40.593 -47.693  14.096  1.00  0.00    -0.336 N 
ATOM     11  HN  UNL     1     -40.258 -46.732  14.176  1.00  0.00     0.168 HD
HETATM   12  C   UNL     1     -40.750 -48.537  15.136  1.00  0.00     0.183 A 
ENDROOT
BRANCH   2  13
HETATM   13  N   UNL     1     -41.751 -51.775  13.866  1.00  0.00    -0.258 NA
HETATM   14  C   UNL     1     -43.041 -52.177  13.235  1.00  0.00     0.096 C 
HETATM   15  C   UNL     1     -44.252 -51.403  13.772  1.00  0.00     0.054 C 
HETATM   16  C   UNL     1     -43.217 -53.695  13.537  1.00  0.00     0.139 C 
HETATM   17  C   UNL     1     -45.585 -51.950  13.241  1.00  0.00     0.122 C 
HETATM   18  C   UNL     1     -45.723 -53.437  13.555  1.00  0.00     0.034 C 
HETATM   19  C   UNL     1     -44.540 -54.232  13.007  1.00  0.00     0.036 C 
HETATM   20  O   UNL     1     -42.150 -54.458  12.941  1.00  0.00    -0.383 OA
HETATM   21  C   UNL     1     -40.883 -54.054  13.495  1.00  0.00     0.183 C 
HETATM   22  C   UNL     1     -40.624 -52.545  13.295  1.00  0.00     0.124 C 
BRANCH  17  23
HETATM   23  O   UNL     1     -46.617 -51.170  13.846  1.00  0.00    -0.391 OA
HETATM   24  C   UNL     1     -46.833 -51.453  15.218  1.00  0.00     0.202 C 
ENDBRANCH  17  23
ENDBRANCH   2  13
BRANCH   3  25
HETATM   25  C   UNL     1     -40.550 -46.353  11.336  1.00  0.00     0.143 C 
BRANCH  25  26
HETATM   26  C   UNL     1     -41.737 -45.333  11.263  1.00  0.00     0.001 C 
HETATM   27  C   UNL     1     -41.193 -43.891  11.109  1.00  0.00     0.039 C 
HETATM   28  C   UNL     1     -40.619 -43.363  12.424  1.00  0.00     0.168 C 
HETATM   29  O   UNL     1     -41.653 -43.300  13.398  1.00  0.00    -0.391 OA
HETATM   30  C   UNL     1     -42.133 -44.591  13.749  1.00  0.00     0.168 C 
HETATM   31  C   UNL     1     -42.640 -45.362  12.537  1.00  0.00     0.039 C 
BRANCH  26  32
HETATM   32  C   UNL     1     -42.667 -45.712  10.086  1.00  0.00     0.175 C 
BRANCH  32  33
HETATM   33  O   UNL     1     -43.557 -44.636   9.793  1.00  0.00    -0.400 OA
HETATM   34  H   UNL     1     -44.440 -44.878  10.148  1.00  0.00     0.209 HD
ENDBRANCH  32  33
ENDBRANCH  26  32
ENDBRANCH  25  26
ENDBRANCH   3  25
TORSDOF 6
ENDMDL
MODEL 7
REMARK VINA RESULT:      -6.5      2.570      8.456
REMARK  6 active torsions:
REMARK  status: ('A' for Active; 'I' for Inactive)
REMARK    1  A    between atoms: C_2  and  N_4 
REMARK    2  A    between atoms: N_3  and  C_14 
REMARK    3  A    between atoms: C_14  and  C_16 
REMARK    4  A    between atoms: C_16  and  C_26 
REMARK    5  A    between atoms: C_23  and  O_27 
REMARK    6  A    between atoms: C_26  and  O_28 
ROOT
HETATM    1  C   UNL     1     -39.737 -51.729  13.481  1.00  0.00     0.117 A 
HETATM    2  C   UNL     1     -40.254 -53.052  13.534  1.00  0.00     0.115 A 
HETATM    3  N   UNL     1     -39.520 -49.719  12.603  1.00  0.00    -0.326 N 
HETATM    4  C   UNL     1     -40.136 -50.934  12.417  1.00  0.00     0.140 A 
HETATM    5  N   UNL     1     -38.903 -51.012  14.317  1.00  0.00    -0.346 N 
ATOM      6  HN  UNL     1     -38.455 -51.339  15.172  1.00  0.00     0.167 HD
HETATM    7  C   UNL     1     -38.811 -49.815  13.772  1.00  0.00     0.185 A 
HETATM    8  N   UNL     1     -41.040 -53.454  12.497  1.00  0.00    -0.341 N 
ATOM      9  HN  UNL     1     -41.397 -54.409  12.458  1.00  0.00     0.167 HD
HETATM   10  N   UNL     1     -40.947 -51.286  11.401  1.00  0.00    -0.336 N 
ATOM     11  HN  UNL     1     -41.225 -50.665  10.641  1.00  0.00     0.168 HD
HETATM   12  C   UNL     1     -41.340 -52.570  11.522  1.00  0.00     0.183 A 
ENDROOT
BRANCH   2  13
HETATM   13  N   UNL     1     -40.048 -53.895  14.632  1.00  0.00    -0.258 NA
HETATM   14  C   UNL     1     -41.238 -54.600  15.189  1.00  0.00     0.096 C 
HETATM   15  C   UNL     1     -42.433 -53.672  15.447  1.00  0.00     0.054 C 
HETATM   16  C   UNL     1     -40.774 -55.238  16.532  1.00  0.00     0.139 C 
HETATM   17  C   UNL     1     -43.582 -54.379  16.181  1.00  0.00     0.122 C 
HETATM   18  C   UNL     1     -43.092 -54.991  17.489  1.00  0.00     0.034 C 
HETATM   19  C   UNL     1     -41.919 -55.939  17.254  1.00  0.00     0.036 C 
HETATM   20  O   UNL     1     -39.729 -56.203  16.302  1.00  0.00    -0.383 OA
HETATM   21  C   UNL     1     -38.583 -55.559  15.714  1.00  0.00     0.183 C 
HETATM   22  C   UNL     1     -38.940 -54.845  14.392  1.00  0.00     0.124 C 
BRANCH  17  23
HETATM   23  O   UNL     1     -44.599 -53.399  16.387  1.00  0.00    -0.391 OA
HETATM   24  C   UNL     1     -45.921 -53.896  16.257  1.00  0.00     0.202 C 
ENDBRANCH  17  23
ENDBRANCH   2  13
BRANCH   3  25
HETATM   25  C   UNL     1     -39.622 -48.539  11.740  1.00  0.00     0.143 C 
BRANCH  25  26
HETATM   26  C   UNL     1     -40.909 -47.671  11.963  1.00  0.00     0.001 C 
HETATM   27  C   UNL     1     -40.597 -46.178  11.699  1.00  0.00     0.039 C 
HETATM   28  C   UNL     1     -39.796 -45.559  12.845  1.00  0.00     0.168 C 
HETATM   29  O   UNL     1     -40.568 -45.604  14.038  1.00  0.00    -0.391 OA
HETATM   30  C   UNL     1     -40.790 -46.936  14.480  1.00  0.00     0.168 C 
HETATM   31  C   UNL     1     -41.472 -47.785  13.415  1.00  0.00     0.039 C 
BRANCH  26  32
HETATM   32  C   UNL     1     -42.038 -48.183  11.038  1.00  0.00     0.175 C 
BRANCH  32  33
HETATM   33  O   UNL     1     -41.493 -48.660   9.809  1.00  0.00    -0.400 OA
HETATM   34  H   UNL     1     -40.648 -48.185   9.656  1.00  0.00     0.209 HD
ENDBRANCH  32  33
ENDBRANCH  26  32
ENDBRANCH  25  26
ENDBRANCH   3  25
TORSDOF 6
ENDMDL
MODEL 8
REMARK VINA RESULT:      -6.5      2.093      8.081
REMARK  6 active torsions:
REMARK  status: ('A' for Active; 'I' for Inactive)
REMARK    1  A    between atoms: C_2  and  N_4 
REMARK    2  A    between atoms: N_3  and  C_14 
REMARK    3  A    between atoms: C_14  and  C_16 
REMARK    4  A    between atoms: C_16  and  C_26 
REMARK    5  A    between atoms: C_23  and  O_27 
REMARK    6  A    between atoms: C_26  and  O_28 
ROOT
HETATM    1  C   UNL     1     -41.616 -50.616  14.100  1.00  0.00     0.117 A 
HETATM    2  C   UNL     1     -41.607 -51.972  13.673  1.00  0.00     0.115 A 
HETATM    3  N   UNL     1     -41.141 -48.473  13.904  1.00  0.00    -0.326 N 
HETATM    4  C   UNL     1     -40.980 -49.690  13.286  1.00  0.00     0.140 A 
HETATM    5  N   UNL     1     -42.172 -49.979  15.192  1.00  0.00    -0.346 N 
ATOM      6  HN  UNL     1     -42.693 -50.405  15.958  1.00  0.00     0.167 HD
HETATM    7  C   UNL     1     -41.884 -48.702  15.032  1.00  0.00     0.185 A 
HETATM    8  N   UNL     1     -40.915 -52.261  12.537  1.00  0.00    -0.341 N 
ATOM      9  HN  UNL     1     -40.834 -53.225  12.212  1.00  0.00     0.167 HD
HETATM   10  N   UNL     1     -40.326 -49.937  12.135  1.00  0.00    -0.336 N 
ATOM     11  HN  UNL     1     -39.880 -49.223  11.558  1.00  0.00     0.168 HD
HETATM   12  C   UNL     1     -40.337 -51.254  11.848  1.00  0.00     0.183 A 
ENDROOT
BRANCH   2  13
HETATM   13  N   UNL     1     -42.341 -52.969  14.326  1.00  0.00    -0.258 NA
HETATM   14  C   UNL     1     -43.611 -53.417  13.688  1.00  0.00     0.096 C 
HETATM   15  C   UNL     1     -44.533 -52.260  13.281  1.00  0.00     0.054 C 
HETATM   16  C   UNL     1     -44.333 -54.313  14.738  1.00  0.00     0.139 C 
HETATM   17  C   UNL     1     -45.904 -52.741  12.788  1.00  0.00     0.122 C 
HETATM   18  C   UNL     1     -46.581 -53.614  13.841  1.00  0.00     0.034 C 
HETATM   19  C   UNL     1     -45.693 -54.789  14.243  1.00  0.00     0.036 C 
HETATM   20  O   UNL     1     -43.536 -55.472  15.050  1.00  0.00    -0.383 OA
HETATM   21  C   UNL     1     -42.278 -55.068  15.622  1.00  0.00     0.183 C 
HETATM   22  C   UNL     1     -41.493 -54.129  14.680  1.00  0.00     0.124 C 
BRANCH  17  23
HETATM   23  O   UNL     1     -46.664 -51.572  12.484  1.00  0.00    -0.391 OA
HETATM   24  C   UNL     1     -47.320 -51.614  11.227  1.00  0.00     0.202 C 
ENDBRANCH  17  23
ENDBRANCH   2  13
BRANCH   3  25
HETATM   25  C   UNL     1     -40.644 -47.176  13.436  1.00  0.00     0.143 C 
BRANCH  25  26
HETATM   26  C   UNL     1     -41.754 -46.186  12.941  1.00  0.00     0.001 C 
HETATM   27  C   UNL     1     -42.792 -46.938  12.074  1.00  0.00     0.039 C 
HETATM   28  C   UNL     1     -42.240 -47.255  10.684  1.00  0.00     0.168 C 
HETATM   29  O   UNL     1     -41.952 -46.040  10.003  1.00  0.00    -0.391 OA
HETATM   30  C   UNL     1     -40.891 -45.323  10.618  1.00  0.00     0.168 C 
HETATM   31  C   UNL     1     -41.181 -45.015  12.081  1.00  0.00     0.039 C 
BRANCH  26  32
HETATM   32  C   UNL     1     -42.423 -45.514  14.164  1.00  0.00     0.175 C 
BRANCH  32  33
HETATM   33  O   UNL     1     -43.842 -45.519  14.016  1.00  0.00    -0.400 OA
HETATM   34  H   UNL     1     -44.217 -44.991  14.753  1.00  0.00     0.209 HD
ENDBRANCH  32  33
ENDBRANCH  26  32
ENDBRANCH  25  26
ENDBRANCH   3  25
TORSDOF 6
ENDMDL
MODEL 9
REMARK VINA RESULT:      -6.3      1.698      2.598
REMARK  6 active torsions:
REMARK  status: ('A' for Active; 'I' for Inactive)
REMARK    1  A    between atoms: C_2  and  N_4 
REMARK    2  A    between atoms: N_3  and  C_14 
REMARK    3  A    between atoms: C_14  and  C_16 
REMARK    4  A    between atoms: C_16  and  C_26 
REMARK    5  A    between atoms: C_23  and  O_27 
REMARK    6  A    between atoms: C_26  and  O_28 
ROOT
HETATM    1  C   UNL     1     -42.521 -49.510  13.164  1.00  0.00     0.117 A 
HETATM    2  C   UNL     1     -41.818 -49.097  12.000  1.00  0.00     0.115 A 
HETATM    3  N   UNL     1     -43.162 -50.980  14.676  1.00  0.00    -0.326 N 
HETATM    4  C   UNL     1     -42.416 -50.844  13.529  1.00  0.00     0.140 A 
HETATM    5  N   UNL     1     -43.306 -48.833  14.077  1.00  0.00    -0.346 N 
ATOM      6  HN  UNL     1     -43.561 -47.846  14.061  1.00  0.00     0.167 HD
HETATM    7  C   UNL     1     -43.655 -49.736  14.971  1.00  0.00     0.185 A 
HETATM    8  N   UNL     1     -41.157 -50.059  11.299  1.00  0.00    -0.341 N 
ATOM      9  HN  UNL     1     -40.677 -49.828  10.429  1.00  0.00     0.167 HD
HETATM   10  N   UNL     1     -41.735 -51.810  12.884  1.00  0.00    -0.336 N 
ATOM     11  HN  UNL     1     -41.673 -52.780  13.194  1.00  0.00     0.168 HD
HETATM   12  C   UNL     1     -41.146 -51.324  11.772  1.00  0.00     0.183 A 
ENDROOT
BRANCH   2  13
HETATM   13  N   UNL     1     -41.723 -47.754  11.617  1.00  0.00    -0.258 NA
HETATM   14  C   UNL     1     -40.448 -47.042  11.919  1.00  0.00     0.096 C 
HETATM   15  C   UNL     1     -39.980 -47.216  13.370  1.00  0.00     0.054 C 
HETATM   16  C   UNL     1     -40.715 -45.534  11.635  1.00  0.00     0.139 C 
HETATM   17  C   UNL     1     -38.767 -46.339  13.709  1.00  0.00     0.122 C 
HETATM   18  C   UNL     1     -39.064 -44.870  13.419  1.00  0.00     0.034 C 
HETATM   19  C   UNL     1     -39.507 -44.669  11.972  1.00  0.00     0.036 C 
HETATM   20  O   UNL     1     -41.043 -45.330  10.247  1.00  0.00    -0.383 OA
HETATM   21  C   UNL     1     -42.245 -46.049   9.912  1.00  0.00     0.183 C 
HETATM   22  C   UNL     1     -42.110 -47.559  10.202  1.00  0.00     0.124 C 
BRANCH  17  23
HETATM   23  O   UNL     1     -38.465 -46.570  15.085  1.00  0.00    -0.391 OA
HETATM   24  C   UNL     1     -39.031 -47.758  15.614  1.00  0.00     0.202 C 
ENDBRANCH  17  23
ENDBRANCH   2  13
BRANCH   3  25
HETATM   25  C   UNL     1     -43.370 -52.207  15.450  1.00  0.00     0.143 C 
BRANCH  25  26
HETATM   26  C   UNL     1     -44.814 -52.810  15.352  1.00  0.00     0.001 C 
HETATM   27  C   UNL     1     -44.742 -54.354  15.265  1.00  0.00     0.039 C 
HETATM   28  C   UNL     1     -44.288 -54.819  13.881  1.00  0.00     0.168 C 
HETATM   29  O   UNL     1     -45.241 -54.405  12.909  1.00  0.00    -0.391 OA
HETATM   30  C   UNL     1     -45.287 -52.991  12.777  1.00  0.00     0.168 C 
HETATM   31  C   UNL     1     -45.597 -52.303  14.100  1.00  0.00     0.039 C 
BRANCH  26  32
HETATM   32  C   UNL     1     -45.644 -52.353  16.575  1.00  0.00     0.175 C 
BRANCH  32  33
HETATM   33  O   UNL     1     -46.946 -51.942  16.163  1.00  0.00    -0.400 OA
HETATM   34  H   UNL     1     -46.843 -51.405  15.349  1.00  0.00     0.209 HD
ENDBRANCH  32  33
ENDBRANCH  26  32
ENDBRANCH  25  26
ENDBRANCH   3  25
TORSDOF 6
ENDMDL
