MODEL 1
REMARK VINA RESULT:      -6.1      0.000      0.000
REMARK  4 active torsions:
REMARK  status: ('A' for Active; 'I' for Inactive)
REMARK       I    between atoms: N_6  and  C_8 
REMARK       I    between atoms: C_8  and  N_10 
REMARK    1  A    between atoms: N_10  and  C_11 
REMARK    2  A    between atoms: C_11  and  C_12 
REMARK    3  A    between atoms: C_12  and  C_13 
REMARK    4  A    between atoms: N_18  and  C_19 
ROOT
HETATM    1  C   UNL     1     -38.599 -49.454  13.973  1.00  0.00     0.011 C 
HETATM    2  C   UNL     1     -38.633 -48.949  12.527  1.00  0.00    -0.000 C 
HETATM    3  C   UNL     1     -39.495 -47.684  12.387  1.00  0.00     0.007 C 
HETATM    4  C   UNL     1     -40.993 -47.982  12.497  1.00  0.00     0.020 C 
HETATM    5  C   UNL     1     -41.408 -49.108  11.551  1.00  0.00     0.127 C 
HETATM    6  N   UNL     1     -40.566 -50.289  11.758  1.00  0.00    -0.334 N 
HETATM    7  C   UNL     1     -39.137 -50.038  11.569  1.00  0.00     0.131 C 
HETATM    8  C   UNL     1     -40.957 -51.542  12.182  1.00  0.00     0.318 C 
HETATM    9  O   UNL     1     -40.152 -52.433  12.452  1.00  0.00    -0.247 OA
HETATM   10  N   UNL     1     -42.295 -51.754  12.321  1.00  0.00    -0.343 N 
HETATM   11  H   UNL     1     -42.967 -51.029  12.140  1.00  0.00     0.164 HD
ENDROOT
BRANCH  10  12
HETATM   12  C   UNL     1     -42.833 -53.023  12.786  1.00  0.00     0.132 C 
BRANCH  12  13
HETATM   13  C   UNL     1     -44.200 -53.345  12.177  1.00  0.00     0.096 C 
BRANCH  13  14
HETATM   14  C   UNL     1     -45.193 -53.709  13.240  1.00  0.00     0.088 A 
HETATM   15  N   UNL     1     -45.312 -54.915  13.764  1.00  0.00    -0.354 N 
HETATM   16  C   UNL     1     -46.317 -54.830  14.690  1.00  0.00     0.107 A 
ATOM     17  HN  UNL     1     -44.766 -55.743  13.528  1.00  0.00     0.166 HD
HETATM   18  C   UNL     1     -46.829 -53.559  14.727  1.00  0.00     0.114 A 
HETATM   19  N   UNL     1     -46.118 -52.852  13.789  1.00  0.00    -0.289 N 
BRANCH  19  20
HETATM   20  C   UNL     1     -46.319 -51.452  13.473  1.00  0.00     0.465 C 
HETATM   21  F   UNL     1     -46.792 -51.297  12.206  1.00  0.00    -0.191 F 
HETATM   22  F   UNL     1     -47.244 -50.902  14.302  1.00  0.00    -0.191 F 
ENDBRANCH  19  20
ENDBRANCH  13  14
ENDBRANCH  12  13
ENDBRANCH  10  12
TORSDOF 4
ENDMDL
MODEL 2
REMARK VINA RESULT:      -6.1      3.567      7.089
REMARK  4 active torsions:
REMARK  status: ('A' for Active; 'I' for Inactive)
REMARK       I    between atoms: N_6  and  C_8 
REMARK       I    between atoms: C_8  and  N_10 
REMARK    1  A    between atoms: N_10  and  C_11 
REMARK    2  A    between atoms: C_11  and  C_12 
REMARK    3  A    between atoms: C_12  and  C_13 
REMARK    4  A    between atoms: N_18  and  C_19 
ROOT
HETATM    1  C   UNL     1     -46.533 -51.574  12.695  1.00  0.00     0.011 C 
HETATM    2  C   UNL     1     -46.844 -52.283  14.017  1.00  0.00    -0.000 C 
HETATM    3  C   UNL     1     -46.689 -51.338  15.219  1.00  0.00     0.007 C 
HETATM    4  C   UNL     1     -45.223 -51.029  15.534  1.00  0.00     0.020 C 
HETATM    5  C   UNL     1     -44.397 -52.309  15.657  1.00  0.00     0.127 C 
HETATM    6  N   UNL     1     -44.569 -53.146  14.468  1.00  0.00    -0.334 N 
HETATM    7  C   UNL     1     -45.958 -53.524  14.204  1.00  0.00     0.131 C 
HETATM    8  C   UNL     1     -43.606 -53.528  13.557  1.00  0.00     0.318 C 
HETATM    9  O   UNL     1     -43.876 -54.126  12.516  1.00  0.00    -0.247 OA
HETATM   10  N   UNL     1     -42.319 -53.187  13.843  1.00  0.00    -0.343 N 
HETATM   11  H   UNL     1     -42.081 -52.669  14.670  1.00  0.00     0.164 HD
ENDROOT
BRANCH  10  12
HETATM   12  C   UNL     1     -41.216 -53.509  12.950  1.00  0.00     0.132 C 
BRANCH  12  13
HETATM   13  C   UNL     1     -39.959 -52.685  13.243  1.00  0.00     0.096 C 
BRANCH  13  14
HETATM   14  C   UNL     1     -39.955 -51.408  12.458  1.00  0.00     0.088 A 
HETATM   15  N   UNL     1     -40.838 -51.107  11.523  1.00  0.00    -0.354 N 
HETATM   16  C   UNL     1     -40.492 -49.868  11.057  1.00  0.00     0.107 A 
ATOM     17  HN  UNL     1     -41.621 -51.682  11.211  1.00  0.00     0.166 HD
HETATM   18  C   UNL     1     -39.375 -49.406  11.704  1.00  0.00     0.114 A 
HETATM   19  N   UNL     1     -39.029 -50.399  12.587  1.00  0.00    -0.289 N 
BRANCH  19  20
HETATM   20  C   UNL     1     -37.896 -50.353  13.490  1.00  0.00     0.465 C 
HETATM   21  F   UNL     1     -36.891 -51.162  13.059  1.00  0.00    -0.191 F 
HETATM   22  F   UNL     1     -37.384 -49.097  13.552  1.00  0.00    -0.191 F 
ENDBRANCH  19  20
ENDBRANCH  13  14
ENDBRANCH  12  13
ENDBRANCH  10  12
TORSDOF 4
ENDMDL
MODEL 3
REMARK VINA RESULT:      -6.0      3.388      7.237
REMARK  4 active torsions:
REMARK  status: ('A' for Active; 'I' for Inactive)
REMARK       I    between atoms: N_6  and  C_8 
REMARK       I    between atoms: C_8  and  N_10 
REMARK    1  A    between atoms: N_10  and  C_11 
REMARK    2  A    between atoms: C_11  and  C_12 
REMARK    3  A    between atoms: C_12  and  C_13 
REMARK    4  A    between atoms: N_18  and  C_19 
ROOT
HETATM    1  C   UNL     1     -46.149 -51.187  15.778  1.00  0.00     0.011 C 
HETATM    2  C   UNL     1     -46.843 -51.777  14.546  1.00  0.00    -0.000 C 
HETATM    3  C   UNL     1     -47.077 -53.289  14.694  1.00  0.00     0.007 C 
HETATM    4  C   UNL     1     -45.784 -54.097  14.563  1.00  0.00     0.020 C 
HETATM    5  C   UNL     1     -45.019 -53.723  13.293  1.00  0.00     0.127 C 
HETATM    6  N   UNL     1     -44.806 -52.275  13.231  1.00  0.00    -0.334 N 
HETATM    7  C   UNL     1     -46.041 -51.491  13.267  1.00  0.00     0.131 C 
HETATM    8  C   UNL     1     -43.604 -51.597  13.232  1.00  0.00     0.318 C 
HETATM    9  O   UNL     1     -43.533 -50.371  13.310  1.00  0.00    -0.247 OA
HETATM   10  N   UNL     1     -42.472 -52.352  13.169  1.00  0.00    -0.343 N 
HETATM   11  H   UNL     1     -42.507 -53.356  13.140  1.00  0.00     0.164 HD
ENDROOT
BRANCH  10  12
HETATM   12  C   UNL     1     -41.144 -51.758  13.189  1.00  0.00     0.132 C 
BRANCH  12  13
HETATM   13  C   UNL     1     -40.620 -51.435  11.787  1.00  0.00     0.096 C 
BRANCH  13  14
HETATM   14  C   UNL     1     -40.649 -49.959  11.528  1.00  0.00     0.088 A 
HETATM   15  N   UNL     1     -41.689 -49.310  11.037  1.00  0.00    -0.354 N 
HETATM   16  C   UNL     1     -41.315 -47.996  10.957  1.00  0.00     0.107 A 
ATOM     17  HN  UNL     1     -42.590 -49.707  10.772  1.00  0.00     0.166 HD
HETATM   18  C   UNL     1     -40.025 -47.836  11.392  1.00  0.00     0.114 A 
HETATM   19  N   UNL     1     -39.601 -49.094  11.742  1.00  0.00    -0.289 N 
BRANCH  19  20
HETATM   20  C   UNL     1     -38.284 -49.415  12.257  1.00  0.00     0.465 C 
HETATM   21  F   UNL     1     -37.361 -49.455  11.258  1.00  0.00    -0.191 F 
HETATM   22  F   UNL     1     -37.867 -48.464  13.132  1.00  0.00    -0.191 F 
ENDBRANCH  19  20
ENDBRANCH  13  14
ENDBRANCH  12  13
ENDBRANCH  10  12
TORSDOF 4
ENDMDL
MODEL 4
REMARK VINA RESULT:      -6.0      3.472      7.209
REMARK  4 active torsions:
REMARK  status: ('A' for Active; 'I' for Inactive)
REMARK       I    between atoms: N_6  and  C_8 
REMARK       I    between atoms: C_8  and  N_10 
REMARK    1  A    between atoms: N_10  and  C_11 
REMARK    2  A    between atoms: C_11  and  C_12 
REMARK    3  A    between atoms: C_12  and  C_13 
REMARK    4  A    between atoms: N_18  and  C_19 
ROOT
HETATM    1  C   UNL     1     -45.616 -51.203  14.533  1.00  0.00     0.011 C 
HETATM    2  C   UNL     1     -46.466 -52.359  13.995  1.00  0.00    -0.000 C 
HETATM    3  C   UNL     1     -46.742 -53.414  15.078  1.00  0.00     0.007 C 
HETATM    4  C   UNL     1     -45.505 -54.252  15.406  1.00  0.00     0.020 C 
HETATM    5  C   UNL     1     -44.872 -54.832  14.141  1.00  0.00     0.127 C 
HETATM    6  N   UNL     1     -44.610 -53.770  13.166  1.00  0.00    -0.334 N 
HETATM    7  C   UNL     1     -45.802 -53.016  12.776  1.00  0.00     0.131 C 
HETATM    8  C   UNL     1     -43.390 -53.366  12.665  1.00  0.00     0.318 C 
HETATM    9  O   UNL     1     -43.263 -52.374  11.947  1.00  0.00    -0.247 OA
HETATM   10  N   UNL     1     -42.303 -54.104  13.022  1.00  0.00    -0.343 N 
HETATM   11  H   UNL     1     -42.380 -54.897  13.635  1.00  0.00     0.164 HD
ENDROOT
BRANCH  10  12
HETATM   12  C   UNL     1     -40.959 -53.766  12.581  1.00  0.00     0.132 C 
BRANCH  12  13
HETATM   13  C   UNL     1     -40.337 -52.629  13.397  1.00  0.00     0.096 C 
BRANCH  13  14
HETATM   14  C   UNL     1     -40.038 -51.444  12.530  1.00  0.00     0.088 A 
HETATM   15  N   UNL     1     -40.851 -50.977  11.600  1.00  0.00    -0.354 N 
HETATM   16  C   UNL     1     -40.217 -49.899  11.045  1.00  0.00     0.107 A 
ATOM     17  HN  UNL     1     -41.768 -51.346  11.347  1.00  0.00     0.166 HD
HETATM   18  C   UNL     1     -38.993 -49.706  11.632  1.00  0.00     0.114 A 
HETATM   19  N   UNL     1     -38.878 -50.704  12.569  1.00  0.00    -0.289 N 
BRANCH  19  20
HETATM   20  C   UNL     1     -37.735 -50.902  13.439  1.00  0.00     0.465 C 
HETATM   21  F   UNL     1     -36.670 -51.390  12.746  1.00  0.00    -0.191 F 
HETATM   22  F   UNL     1     -37.337 -49.723  13.982  1.00  0.00    -0.191 F 
ENDBRANCH  19  20
ENDBRANCH  13  14
ENDBRANCH  12  13
ENDBRANCH  10  12
TORSDOF 4
ENDMDL
MODEL 5
REMARK VINA RESULT:      -5.9      1.677      2.121
REMARK  4 active torsions:
REMARK  status: ('A' for Active; 'I' for Inactive)
REMARK       I    between atoms: N_6  and  C_8 
REMARK       I    between atoms: C_8  and  N_10 
REMARK    1  A    between atoms: N_10  and  C_11 
REMARK    2  A    between atoms: C_11  and  C_12 
REMARK    3  A    between atoms: C_12  and  C_13 
REMARK    4  A    between atoms: N_18  and  C_19 
ROOT
HETATM    1  C   UNL     1     -38.991 -48.923  14.009  1.00  0.00     0.011 C 
HETATM    2  C   UNL     1     -38.828 -48.569  12.527  1.00  0.00    -0.000 C 
HETATM    3  C   UNL     1     -39.761 -47.420  12.111  1.00  0.00     0.007 C 
HETATM    4  C   UNL     1     -41.224 -47.858  12.021  1.00  0.00     0.020 C 
HETATM    5  C   UNL     1     -41.380 -49.109  11.156  1.00  0.00     0.127 C 
HETATM    6  N   UNL     1     -40.486 -50.170  11.625  1.00  0.00    -0.334 N 
HETATM    7  C   UNL     1     -39.071 -49.794  11.633  1.00  0.00     0.131 C 
HETATM    8  C   UNL     1     -40.833 -51.409  12.124  1.00  0.00     0.318 C 
HETATM    9  O   UNL     1     -40.011 -52.181  12.616  1.00  0.00    -0.247 OA
HETATM   10  N   UNL     1     -42.152 -51.743  12.077  1.00  0.00    -0.343 N 
HETATM   11  H   UNL     1     -42.844 -51.112  11.711  1.00  0.00     0.164 HD
ENDROOT
BRANCH  10  12
HETATM   12  C   UNL     1     -42.649 -53.008  12.595  1.00  0.00     0.132 C 
BRANCH  12  13
HETATM   13  C   UNL     1     -44.047 -53.352  12.073  1.00  0.00     0.096 C 
BRANCH  13  14
HETATM   14  C   UNL     1     -45.110 -52.776  12.960  1.00  0.00     0.088 A 
HETATM   15  N   UNL     1     -45.571 -51.543  12.864  1.00  0.00    -0.354 N 
HETATM   16  C   UNL     1     -46.522 -51.414  13.840  1.00  0.00     0.107 A 
ATOM     17  HN  UNL     1     -45.278 -50.829  12.197  1.00  0.00     0.166 HD
HETATM   18  C   UNL     1     -46.639 -52.580  14.553  1.00  0.00     0.114 A 
HETATM   19  N   UNL     1     -45.725 -53.440  13.996  1.00  0.00    -0.289 N 
BRANCH  19  20
HETATM   20  C   UNL     1     -45.490 -54.802  14.434  1.00  0.00     0.465 C 
HETATM   21  F   UNL     1     -45.816 -55.694  13.459  1.00  0.00    -0.191 F 
HETATM   22  F   UNL     1     -44.175 -54.996  14.713  1.00  0.00    -0.191 F 
ENDBRANCH  19  20
ENDBRANCH  13  14
ENDBRANCH  12  13
ENDBRANCH  10  12
TORSDOF 4
ENDMDL
MODEL 6
REMARK VINA RESULT:      -5.8      3.623      6.733
REMARK  4 active torsions:
REMARK  status: ('A' for Active; 'I' for Inactive)
REMARK       I    between atoms: N_6  and  C_8 
REMARK       I    between atoms: C_8  and  N_10 
REMARK    1  A    between atoms: N_10  and  C_11 
REMARK    2  A    between atoms: C_11  and  C_12 
REMARK    3  A    between atoms: C_12  and  C_13 
REMARK    4  A    between atoms: N_18  and  C_19 
ROOT
HETATM    1  C   UNL     1     -41.048 -54.401  13.452  1.00  0.00     0.011 C 
HETATM    2  C   UNL     1     -42.163 -53.919  14.386  1.00  0.00    -0.000 C 
HETATM    3  C   UNL     1     -43.554 -54.295  13.852  1.00  0.00     0.007 C 
HETATM    4  C   UNL     1     -43.966 -53.448  12.645  1.00  0.00     0.020 C 
HETATM    5  C   UNL     1     -43.809 -51.955  12.933  1.00  0.00     0.127 C 
HETATM    6  N   UNL     1     -42.455 -51.664  13.409  1.00  0.00    -0.334 N 
HETATM    7  C   UNL     1     -42.079 -52.403  14.615  1.00  0.00     0.131 C 
HETATM    8  C   UNL     1     -41.502 -50.865  12.812  1.00  0.00     0.318 C 
HETATM    9  O   UNL     1     -40.346 -50.789  13.224  1.00  0.00    -0.247 OA
HETATM   10  N   UNL     1     -41.890 -50.167  11.708  1.00  0.00    -0.343 N 
HETATM   11  H   UNL     1     -42.820 -50.242  11.334  1.00  0.00     0.164 HD
ENDROOT
BRANCH  10  12
HETATM   12  C   UNL     1     -40.972 -49.310  10.973  1.00  0.00     0.132 C 
BRANCH  12  13
HETATM   13  C   UNL     1     -41.294 -47.822  11.136  1.00  0.00     0.096 C 
BRANCH  13  14
HETATM   14  C   UNL     1     -42.239 -47.354  10.071  1.00  0.00     0.088 A 
HETATM   15  N   UNL     1     -42.697 -48.116   9.095  1.00  0.00    -0.354 N 
HETATM   16  C   UNL     1     -43.524 -47.323   8.348  1.00  0.00     0.107 A 
ATOM     17  HN  UNL     1     -42.478 -49.099   8.931  1.00  0.00     0.166 HD
HETATM   18  C   UNL     1     -43.567 -46.053   8.863  1.00  0.00     0.114 A 
HETATM   19  N   UNL     1     -42.734 -46.075   9.954  1.00  0.00    -0.289 N 
BRANCH  19  20
HETATM   20  C   UNL     1     -42.461 -44.942  10.818  1.00  0.00     0.465 C 
HETATM   21  F   UNL     1     -42.733 -45.239  12.118  1.00  0.00    -0.191 F 
HETATM   22  F   UNL     1     -41.147 -44.604  10.763  1.00  0.00    -0.191 F 
ENDBRANCH  19  20
ENDBRANCH  13  14
ENDBRANCH  12  13
ENDBRANCH  10  12
TORSDOF 4
ENDMDL
MODEL 7
REMARK VINA RESULT:      -5.8      3.912      6.582
REMARK  4 active torsions:
REMARK  status: ('A' for Active; 'I' for Inactive)
REMARK       I    between atoms: N_6  and  C_8 
REMARK       I    between atoms: C_8  and  N_10 
REMARK    1  A    between atoms: N_10  and  C_11 
REMARK    2  A    between atoms: C_11  and  C_12 
REMARK    3  A    between atoms: C_12  and  C_13 
REMARK    4  A    between atoms: N_18  and  C_19 
ROOT
HETATM    1  C   UNL     1     -45.573 -51.224  14.875  1.00  0.00     0.011 C 
HETATM    2  C   UNL     1     -46.473 -52.024  13.927  1.00  0.00    -0.000 C 
HETATM    3  C   UNL     1     -47.081 -53.252  14.621  1.00  0.00     0.007 C 
HETATM    4  C   UNL     1     -46.052 -54.362  14.854  1.00  0.00     0.020 C 
HETATM    5  C   UNL     1     -45.299 -54.702  13.569  1.00  0.00     0.127 C 
HETATM    6  N   UNL     1     -44.722 -53.493  12.977  1.00  0.00    -0.334 N 
HETATM    7  C   UNL     1     -45.707 -52.456  12.667  1.00  0.00     0.131 C 
HETATM    8  C   UNL     1     -43.388 -53.206  12.772  1.00  0.00     0.318 C 
HETATM    9  O   UNL     1     -42.997 -52.104  12.387  1.00  0.00    -0.247 OA
HETATM   10  N   UNL     1     -42.497 -54.200  13.042  1.00  0.00    -0.343 N 
HETATM   11  H   UNL     1     -42.793 -55.095  13.390  1.00  0.00     0.164 HD
ENDROOT
BRANCH  10  12
HETATM   12  C   UNL     1     -41.062 -54.014  12.891  1.00  0.00     0.132 C 
BRANCH  12  13
HETATM   13  C   UNL     1     -40.413 -53.387  14.128  1.00  0.00     0.096 C 
BRANCH  13  14
HETATM   14  C   UNL     1     -39.793 -54.435  15.001  1.00  0.00     0.088 A 
HETATM   15  N   UNL     1     -38.547 -54.856  14.888  1.00  0.00    -0.354 N 
HETATM   16  C   UNL     1     -38.374 -55.802  15.861  1.00  0.00     0.107 A 
ATOM     17  HN  UNL     1     -37.853 -54.541  14.210  1.00  0.00     0.166 HD
HETATM   18  C   UNL     1     -39.531 -55.972  16.577  1.00  0.00     0.114 A 
HETATM   19  N   UNL     1     -40.437 -55.108  16.014  1.00  0.00    -0.289 N 
BRANCH  19  20
HETATM   20  C   UNL     1     -41.812 -54.946  16.445  1.00  0.00     0.465 C 
HETATM   21  F   UNL     1     -42.653 -55.723  15.710  1.00  0.00    -0.191 F 
HETATM   22  F   UNL     1     -41.957 -55.333  17.739  1.00  0.00    -0.191 F 
ENDBRANCH  19  20
ENDBRANCH  13  14
ENDBRANCH  12  13
ENDBRANCH  10  12
TORSDOF 4
ENDMDL
MODEL 8
REMARK VINA RESULT:      -5.7      2.044      2.696
REMARK  4 active torsions:
REMARK  status: ('A' for Active; 'I' for Inactive)
REMARK       I    between atoms: N_6  and  C_8 
REMARK       I    between atoms: C_8  and  N_10 
REMARK    1  A    between atoms: N_10  and  C_11 
REMARK    2  A    between atoms: C_11  and  C_12 
REMARK    3  A    between atoms: C_12  and  C_13 
REMARK    4  A    between atoms: N_18  and  C_19 
ROOT
HETATM    1  C   UNL     1     -38.946 -49.085  15.324  1.00  0.00     0.011 C 
HETATM    2  C   UNL     1     -38.123 -48.477  14.184  1.00  0.00    -0.000 C 
HETATM    3  C   UNL     1     -38.774 -47.198  13.633  1.00  0.00     0.007 C 
HETATM    4  C   UNL     1     -40.026 -47.491  12.801  1.00  0.00     0.020 C 
HETATM    5  C   UNL     1     -39.748 -48.542  11.727  1.00  0.00     0.127 C 
HETATM    6  N   UNL     1     -39.157 -49.742  12.325  1.00  0.00    -0.334 N 
HETATM    7  C   UNL     1     -37.911 -49.491  13.050  1.00  0.00     0.131 C 
HETATM    8  C   UNL     1     -39.679 -51.019  12.350  1.00  0.00     0.318 C 
HETATM    9  O   UNL     1     -39.166 -51.934  12.993  1.00  0.00    -0.247 OA
HETATM   10  N   UNL     1     -40.823 -51.229  11.642  1.00  0.00    -0.343 N 
HETATM   11  H   UNL     1     -41.277 -50.487  11.138  1.00  0.00     0.164 HD
ENDROOT
BRANCH  10  12
HETATM   12  C   UNL     1     -41.486 -52.524  11.610  1.00  0.00     0.132 C 
BRANCH  12  13
HETATM   13  C   UNL     1     -42.758 -52.558  12.462  1.00  0.00     0.096 C 
BRANCH  13  14
HETATM   14  C   UNL     1     -42.628 -53.544  13.584  1.00  0.00     0.088 A 
HETATM   15  N   UNL     1     -41.540 -53.700  14.316  1.00  0.00    -0.354 N 
HETATM   16  C   UNL     1     -41.828 -54.684  15.222  1.00  0.00     0.107 A 
ATOM     17  HN  UNL     1     -40.661 -53.191  14.224  1.00  0.00     0.166 HD
HETATM   18  C   UNL     1     -43.106 -55.147  15.039  1.00  0.00     0.114 A 
HETATM   19  N   UNL     1     -43.606 -54.426  13.983  1.00  0.00    -0.289 N 
BRANCH  19  20
HETATM   20  C   UNL     1     -44.936 -54.579  13.426  1.00  0.00     0.465 C 
HETATM   21  F   UNL     1     -45.481 -55.775  13.778  1.00  0.00    -0.191 F 
HETATM   22  F   UNL     1     -45.768 -53.618  13.902  1.00  0.00    -0.191 F 
ENDBRANCH  19  20
ENDBRANCH  13  14
ENDBRANCH  12  13
ENDBRANCH  10  12
TORSDOF 4
ENDMDL
MODEL 9
REMARK VINA RESULT:      -5.6      3.662      7.449
REMARK  4 active torsions:
REMARK  status: ('A' for Active; 'I' for Inactive)
REMARK       I    between atoms: N_6  and  C_8 
REMARK       I    between atoms: C_8  and  N_10 
REMARK    1  A    between atoms: N_10  and  C_11 
REMARK    2  A    between atoms: C_11  and  C_12 
REMARK    3  A    between atoms: C_12  and  C_13 
REMARK    4  A    between atoms: N_18  and  C_19 
ROOT
HETATM    1  C   UNL     1     -45.120 -54.901  13.952  1.00  0.00     0.011 C 
HETATM    2  C   UNL     1     -45.616 -53.772  14.862  1.00  0.00    -0.000 C 
HETATM    3  C   UNL     1     -46.784 -53.001  14.227  1.00  0.00     0.007 C 
HETATM    4  C   UNL     1     -46.334 -52.103  13.072  1.00  0.00     0.020 C 
HETATM    5  C   UNL     1     -45.168 -51.205  13.486  1.00  0.00     0.127 C 
HETATM    6  N   UNL     1     -44.081 -52.005  14.055  1.00  0.00    -0.334 N 
HETATM    7  C   UNL     1     -44.477 -52.803  15.216  1.00  0.00     0.131 C 
HETATM    8  C   UNL     1     -42.796 -52.147  13.575  1.00  0.00     0.318 C 
HETATM    9  O   UNL     1     -41.993 -52.949  14.052  1.00  0.00    -0.247 OA
HETATM   10  N   UNL     1     -42.448 -51.371  12.511  1.00  0.00    -0.343 N 
HETATM   11  H   UNL     1     -43.099 -50.736  12.085  1.00  0.00     0.164 HD
ENDROOT
BRANCH  10  12
HETATM   12  C   UNL     1     -41.131 -51.446  11.897  1.00  0.00     0.132 C 
BRANCH  12  13
HETATM   13  C   UNL     1     -40.638 -50.089  11.388  1.00  0.00     0.096 C 
BRANCH  13  14
HETATM   14  C   UNL     1     -39.696 -49.455  12.367  1.00  0.00     0.088 A 
HETATM   15  N   UNL     1     -40.065 -48.620  13.321  1.00  0.00    -0.354 N 
HETATM   16  C   UNL     1     -38.922 -48.276  13.990  1.00  0.00     0.107 A 
ATOM     17  HN  UNL     1     -41.012 -48.295  13.518  1.00  0.00     0.166 HD
HETATM   18  C   UNL     1     -37.834 -48.899  13.435  1.00  0.00     0.114 A 
HETATM   19  N   UNL     1     -38.333 -49.639  12.391  1.00  0.00    -0.289 N 
BRANCH  19  20
HETATM   20  C   UNL     1     -37.539 -50.468  11.504  1.00  0.00     0.465 C 
HETATM   21  F   UNL     1     -36.753 -49.708  10.694  1.00  0.00    -0.191 F 
HETATM   22  F   UNL     1     -36.704 -51.268  12.216  1.00  0.00    -0.191 F 
ENDBRANCH  19  20
ENDBRANCH  13  14
ENDBRANCH  12  13
ENDBRANCH  10  12
TORSDOF 4
ENDMDL
