MODEL 1
REMARK VINA RESULT:      -7.0      0.000      0.000
REMARK  2 active torsions:
REMARK  status: ('A' for Active; 'I' for Inactive)
REMARK    1  A    between atoms: C_8  and  N_9 
REMARK       I    between atoms: N_9  and  C_10 
REMARK       I    between atoms: C_10  and  N_12 
REMARK    2  A    between atoms: N_12  and  C_13 
ROOT
HETATM    1  N   UNL     1     -41.343 -51.444  11.416  1.00  0.00    -0.294 N 
HETATM    2  C   UNL     1     -42.199 -51.942  12.372  1.00  0.00     0.322 C 
HETATM    3  O   UNL     1     -42.162 -51.704  13.569  1.00  0.00    -0.247 OA
HETATM    4  N   UNL     1     -43.136 -52.775  11.803  1.00  0.00    -0.336 N 
HETATM    5  H   UNL     1     -41.019 -52.139  10.762  1.00  0.00     0.172 HD
HETATM    6  H   UNL     1     -43.029 -52.999  10.824  1.00  0.00     0.164 HD
ENDROOT
BRANCH   1   7
HETATM    7  C   UNL     1     -40.313 -50.541  11.703  1.00  0.00     0.114 A 
HETATM    8  C   UNL     1     -40.391 -49.163  11.471  1.00  0.00    -0.018 A 
HETATM    9  C   UNL     1     -41.564 -48.491  10.823  1.00  0.00     0.052 C 
HETATM   10  C   UNL     1     -39.278 -48.390  11.828  1.00  0.00     0.012 A 
HETATM   11  C   UNL     1     -38.144 -48.997  12.353  1.00  0.00     0.018 A 
HETATM   12  C   UNL     1     -38.148 -50.371  12.487  1.00  0.00     0.089 A 
HETATM   13  N   UNL     1     -39.193 -51.155  12.149  1.00  0.00    -0.352 N 
ATOM     14  HN  UNL     1     -39.142 -52.170  12.228  1.00  0.00     0.166 HD
ENDBRANCH   1   7
BRANCH   4  15
HETATM   15  C   UNL     1     -44.086 -53.553  12.589  1.00  0.00     0.121 C 
HETATM   16  C   UNL     1     -43.361 -54.545  13.515  1.00  0.00     0.057 C 
HETATM   17  C   UNL     1     -43.845 -54.233  14.931  1.00  0.00     0.275 C 
HETATM   18  N   UNL     1     -45.111 -53.550  14.712  1.00  0.00     0.095 N 
HETATM   19  C   UNL     1     -45.609 -52.792  15.856  1.00  0.00     0.273 C 
HETATM   20  C   UNL     1     -44.876 -52.669  13.560  1.00  0.00     0.245 C 
HETATM   21  C   UNL     1     -46.942 -52.125  15.490  1.00  0.00     0.030 C 
HETATM   22  C   UNL     1     -46.865 -51.321  14.185  1.00  0.00     0.004 C 
HETATM   23  C   UNL     1     -46.215 -52.135  13.062  1.00  0.00     0.038 C 
ENDBRANCH   4  15
TORSDOF 2
ENDMDL
MODEL 2
REMARK VINA RESULT:      -6.9      1.588      2.690
REMARK  2 active torsions:
REMARK  status: ('A' for Active; 'I' for Inactive)
REMARK    1  A    between atoms: C_8  and  N_9 
REMARK       I    between atoms: N_9  and  C_10 
REMARK       I    between atoms: C_10  and  N_12 
REMARK    2  A    between atoms: N_12  and  C_13 
ROOT
HETATM    1  N   UNL     1     -40.577 -50.843  11.136  1.00  0.00    -0.294 N 
HETATM    2  C   UNL     1     -41.206 -51.629  12.074  1.00  0.00     0.322 C 
HETATM    3  O   UNL     1     -41.856 -51.234  13.030  1.00  0.00    -0.247 OA
HETATM    4  N   UNL     1     -41.008 -52.965  11.806  1.00  0.00    -0.336 N 
HETATM    5  H   UNL     1     -39.641 -51.145  10.918  1.00  0.00     0.172 HD
HETATM    6  H   UNL     1     -40.372 -53.201  11.058  1.00  0.00     0.164 HD
ENDROOT
BRANCH   1   7
HETATM    7  C   UNL     1     -40.640 -49.445  11.139  1.00  0.00     0.114 A 
HETATM    8  C   UNL     1     -39.632 -48.615  11.643  1.00  0.00    -0.018 A 
HETATM    9  C   UNL     1     -38.386 -49.124  12.304  1.00  0.00     0.052 C 
HETATM   10  C   UNL     1     -39.840 -47.232  11.560  1.00  0.00     0.012 A 
HETATM   11  C   UNL     1     -41.023 -46.734  11.029  1.00  0.00     0.018 A 
HETATM   12  C   UNL     1     -41.979 -47.638  10.614  1.00  0.00     0.089 A 
HETATM   13  N   UNL     1     -41.825 -48.977  10.682  1.00  0.00    -0.352 N 
ATOM     14  HN  UNL     1     -42.571 -49.612  10.400  1.00  0.00     0.166 HD
ENDBRANCH   1   7
BRANCH   4  15
HETATM   15  C   UNL     1     -41.441 -54.028  12.705  1.00  0.00     0.121 C 
HETATM   16  C   UNL     1     -40.462 -54.194  13.879  1.00  0.00     0.057 C 
HETATM   17  C   UNL     1     -41.295 -54.031  15.150  1.00  0.00     0.275 C 
HETATM   18  N   UNL     1     -42.650 -54.325  14.707  1.00  0.00     0.095 N 
HETATM   19  C   UNL     1     -43.706 -53.870  15.606  1.00  0.00     0.273 C 
HETATM   20  C   UNL     1     -42.768 -53.684  13.389  1.00  0.00     0.245 C 
HETATM   21  C   UNL     1     -45.076 -54.241  15.019  1.00  0.00     0.030 C 
HETATM   22  C   UNL     1     -45.243 -53.782  13.565  1.00  0.00     0.004 C 
HETATM   23  C   UNL     1     -44.037 -54.182  12.708  1.00  0.00     0.038 C 
ENDBRANCH   4  15
TORSDOF 2
ENDMDL
MODEL 3
REMARK VINA RESULT:      -6.8      2.463      6.733
REMARK  2 active torsions:
REMARK  status: ('A' for Active; 'I' for Inactive)
REMARK    1  A    between atoms: C_8  and  N_9 
REMARK       I    between atoms: N_9  and  C_10 
REMARK       I    between atoms: C_10  and  N_12 
REMARK    2  A    between atoms: N_12  and  C_13 
ROOT
HETATM    1  N   UNL     1     -42.707 -51.914  12.314  1.00  0.00    -0.294 N 
HETATM    2  C   UNL     1     -42.981 -50.598  12.610  1.00  0.00     0.322 C 
HETATM    3  O   UNL     1     -43.780 -50.194  13.440  1.00  0.00    -0.247 OA
HETATM    4  N   UNL     1     -42.224 -49.753  11.829  1.00  0.00    -0.336 N 
HETATM    5  H   UNL     1     -42.659 -52.104  11.326  1.00  0.00     0.172 HD
HETATM    6  H   UNL     1     -41.666 -50.169  11.097  1.00  0.00     0.164 HD
ENDROOT
BRANCH   1   7
HETATM    7  C   UNL     1     -43.304 -52.990  12.980  1.00  0.00     0.114 A 
HETATM    8  C   UNL     1     -42.596 -53.949  13.714  1.00  0.00    -0.018 A 
HETATM    9  C   UNL     1     -41.102 -53.979  13.823  1.00  0.00     0.052 C 
HETATM   10  C   UNL     1     -43.343 -54.958  14.336  1.00  0.00     0.012 A 
HETATM   11  C   UNL     1     -44.723 -55.003  14.182  1.00  0.00     0.018 A 
HETATM   12  C   UNL     1     -45.318 -54.043  13.388  1.00  0.00     0.089 A 
HETATM   13  N   UNL     1     -44.638 -53.058  12.765  1.00  0.00    -0.352 N 
ATOM     14  HN  UNL     1     -45.111 -52.391  12.155  1.00  0.00     0.166 HD
ENDBRANCH   1   7
BRANCH   4  15
HETATM   15  C   UNL     1     -42.399 -48.306  11.826  1.00  0.00     0.121 C 
HETATM   16  C   UNL     1     -41.043 -47.582  11.822  1.00  0.00     0.057 C 
HETATM   17  C   UNL     1     -41.054 -46.668  10.597  1.00  0.00     0.275 C 
HETATM   18  N   UNL     1     -42.473 -46.494  10.318  1.00  0.00     0.095 N 
HETATM   19  C   UNL     1     -42.783 -45.994   8.982  1.00  0.00     0.273 C 
HETATM   20  C   UNL     1     -43.069 -47.820  10.536  1.00  0.00     0.245 C 
HETATM   21  C   UNL     1     -44.304 -45.861   8.824  1.00  0.00     0.030 C 
HETATM   22  C   UNL     1     -45.056 -47.143   9.209  1.00  0.00     0.004 C 
HETATM   23  C   UNL     1     -44.587 -47.682  10.564  1.00  0.00     0.038 C 
ENDBRANCH   4  15
TORSDOF 2
ENDMDL
MODEL 4
REMARK VINA RESULT:      -6.8      1.616      6.843
REMARK  2 active torsions:
REMARK  status: ('A' for Active; 'I' for Inactive)
REMARK    1  A    between atoms: C_8  and  N_9 
REMARK       I    between atoms: N_9  and  C_10 
REMARK       I    between atoms: C_10  and  N_12 
REMARK    2  A    between atoms: N_12  and  C_13 
ROOT
HETATM    1  N   UNL     1     -42.198 -52.411  11.734  1.00  0.00    -0.294 N 
HETATM    2  C   UNL     1     -41.639 -51.202  12.081  1.00  0.00     0.322 C 
HETATM    3  O   UNL     1     -41.841 -50.582  13.114  1.00  0.00    -0.247 OA
HETATM    4  N   UNL     1     -40.797 -50.750  11.090  1.00  0.00    -0.336 N 
HETATM    5  H   UNL     1     -42.530 -52.445  10.784  1.00  0.00     0.172 HD
HETATM    6  H   UNL     1     -40.769 -51.273  10.226  1.00  0.00     0.164 HD
ENDROOT
BRANCH   1   7
HETATM    7  C   UNL     1     -43.067 -53.123  12.569  1.00  0.00     0.114 A 
HETATM    8  C   UNL     1     -42.645 -54.000  13.575  1.00  0.00    -0.018 A 
HETATM    9  C   UNL     1     -41.208 -54.337  13.839  1.00  0.00     0.052 C 
HETATM   10  C   UNL     1     -43.641 -54.626  14.337  1.00  0.00     0.012 A 
HETATM   11  C   UNL     1     -44.982 -54.396  14.059  1.00  0.00     0.018 A 
HETATM   12  C   UNL     1     -45.292 -53.559  13.006  1.00  0.00     0.089 A 
HETATM   13  N   UNL     1     -44.367 -52.941  12.242  1.00  0.00    -0.352 N 
ATOM     14  HN  UNL     1     -44.637 -52.360  11.448  1.00  0.00     0.166 HD
ENDBRANCH   1   7
BRANCH   4  15
HETATM   15  C   UNL     1     -40.171 -49.434  11.121  1.00  0.00     0.121 C 
HETATM   16  C   UNL     1     -41.218 -48.318  10.970  1.00  0.00     0.057 C 
HETATM   17  C   UNL     1     -41.052 -47.414  12.192  1.00  0.00     0.275 C 
HETATM   18  N   UNL     1     -39.693 -47.691  12.634  1.00  0.00     0.095 N 
HETATM   19  C   UNL     1     -39.392 -47.271  14.000  1.00  0.00     0.273 C 
HETATM   20  C   UNL     1     -39.529 -49.143  12.482  1.00  0.00     0.245 C 
HETATM   21  C   UNL     1     -37.935 -47.621  14.335  1.00  0.00     0.030 C 
HETATM   22  C   UNL     1     -37.593 -49.087  14.035  1.00  0.00     0.004 C 
HETATM   23  C   UNL     1     -38.054 -49.494  12.631  1.00  0.00     0.038 C 
ENDBRANCH   4  15
TORSDOF 2
ENDMDL
MODEL 5
REMARK VINA RESULT:      -6.7      2.799      6.845
REMARK  2 active torsions:
REMARK  status: ('A' for Active; 'I' for Inactive)
REMARK    1  A    between atoms: C_8  and  N_9 
REMARK       I    between atoms: N_9  and  C_10 
REMARK       I    between atoms: C_10  and  N_12 
REMARK    2  A    between atoms: N_12  and  C_13 
ROOT
HETATM    1  N   UNL     1     -42.209 -50.882  12.391  1.00  0.00    -0.294 N 
HETATM    2  C   UNL     1     -41.535 -50.043  11.533  1.00  0.00     0.322 C 
HETATM    3  O   UNL     1     -40.377 -50.163  11.166  1.00  0.00    -0.247 OA
HETATM    4  N   UNL     1     -42.346 -49.009  11.122  1.00  0.00    -0.336 N 
HETATM    5  H   UNL     1     -42.743 -50.397  13.093  1.00  0.00     0.172 HD
HETATM    6  H   UNL     1     -43.255 -48.928  11.556  1.00  0.00     0.164 HD
ENDROOT
BRANCH   1   7
HETATM    7  C   UNL     1     -41.641 -52.038  12.937  1.00  0.00     0.114 A 
HETATM    8  C   UNL     1     -42.308 -53.264  13.045  1.00  0.00    -0.018 A 
HETATM    9  C   UNL     1     -43.739 -53.472  12.649  1.00  0.00     0.052 C 
HETATM   10  C   UNL     1     -41.595 -54.334  13.603  1.00  0.00     0.012 A 
HETATM   11  C   UNL     1     -40.295 -54.148  14.055  1.00  0.00     0.018 A 
HETATM   12  C   UNL     1     -39.749 -52.883  13.957  1.00  0.00     0.089 A 
HETATM   13  N   UNL     1     -40.401 -51.824  13.434  1.00  0.00    -0.352 N 
ATOM     14  HN  UNL     1     -39.976 -50.897  13.414  1.00  0.00     0.166 HD
ENDBRANCH   1   7
BRANCH   4  15
HETATM   15  C   UNL     1     -41.862 -47.892  10.319  1.00  0.00     0.121 C 
HETATM   16  C   UNL     1     -42.988 -47.303   9.453  1.00  0.00     0.057 C 
HETATM   17  C   UNL     1     -43.066 -45.820   9.812  1.00  0.00     0.275 C 
HETATM   18  N   UNL     1     -41.752 -45.538  10.372  1.00  0.00     0.095 N 
HETATM   19  C   UNL     1     -41.666 -44.310  11.156  1.00  0.00     0.273 C 
HETATM   20  C   UNL     1     -41.428 -46.712  11.194  1.00  0.00     0.245 C 
HETATM   21  C   UNL     1     -40.235 -44.137  11.685  1.00  0.00     0.030 C 
HETATM   22  C   UNL     1     -39.714 -45.387  12.408  1.00  0.00     0.004 C 
HETATM   23  C   UNL     1     -39.954 -46.654  11.581  1.00  0.00     0.038 C 
ENDBRANCH   4  15
TORSDOF 2
ENDMDL
MODEL 6
REMARK VINA RESULT:      -6.6      2.795      7.017
REMARK  2 active torsions:
REMARK  status: ('A' for Active; 'I' for Inactive)
REMARK    1  A    between atoms: C_8  and  N_9 
REMARK       I    between atoms: N_9  and  C_10 
REMARK       I    between atoms: C_10  and  N_12 
REMARK    2  A    between atoms: N_12  and  C_13 
ROOT
HETATM    1  N   UNL     1     -44.910 -51.154  12.751  1.00  0.00    -0.294 N 
HETATM    2  C   UNL     1     -43.661 -50.600  12.912  1.00  0.00     0.322 C 
HETATM    3  O   UNL     1     -42.745 -51.062  13.574  1.00  0.00    -0.247 OA
HETATM    4  N   UNL     1     -43.558 -49.416  12.217  1.00  0.00    -0.336 N 
HETATM    5  H   UNL     1     -45.662 -50.489  12.842  1.00  0.00     0.172 HD
HETATM    6  H   UNL     1     -44.395 -49.055  11.783  1.00  0.00     0.164 HD
ENDROOT
BRANCH   1   7
HETATM    7  C   UNL     1     -45.285 -52.379  13.315  1.00  0.00     0.114 A 
HETATM    8  C   UNL     1     -46.242 -52.516  14.327  1.00  0.00    -0.018 A 
HETATM    9  C   UNL     1     -46.938 -51.359  14.980  1.00  0.00     0.052 C 
HETATM   10  C   UNL     1     -46.517 -53.815  14.776  1.00  0.00     0.012 A 
HETATM   11  C   UNL     1     -45.826 -54.898  14.248  1.00  0.00     0.018 A 
HETATM   12  C   UNL     1     -44.858 -54.648  13.295  1.00  0.00     0.089 A 
HETATM   13  N   UNL     1     -44.556 -53.415  12.839  1.00  0.00    -0.352 N 
ATOM     14  HN  UNL     1     -43.808 -53.268  12.162  1.00  0.00     0.166 HD
ENDBRANCH   1   7
BRANCH   4  15
HETATM   15  C   UNL     1     -42.397 -48.539  12.312  1.00  0.00     0.121 C 
HETATM   16  C   UNL     1     -41.687 -48.408  10.955  1.00  0.00     0.057 C 
HETATM   17  C   UNL     1     -41.645 -46.913  10.641  1.00  0.00     0.275 C 
HETATM   18  N   UNL     1     -41.793 -46.289  11.948  1.00  0.00     0.095 N 
HETATM   19  C   UNL     1     -42.179 -44.882  11.919  1.00  0.00     0.273 C 
HETATM   20  C   UNL     1     -42.801 -47.098  12.646  1.00  0.00     0.245 C 
HETATM   21  C   UNL     1     -42.300 -44.353  13.356  1.00  0.00     0.030 C 
HETATM   22  C   UNL     1     -43.191 -45.236  14.241  1.00  0.00     0.004 C 
HETATM   23  C   UNL     1     -42.810 -46.715  14.121  1.00  0.00     0.038 C 
ENDBRANCH   4  15
TORSDOF 2
ENDMDL
MODEL 7
REMARK VINA RESULT:      -5.9      1.981      2.535
REMARK  2 active torsions:
REMARK  status: ('A' for Active; 'I' for Inactive)
REMARK    1  A    between atoms: C_8  and  N_9 
REMARK       I    between atoms: N_9  and  C_10 
REMARK       I    between atoms: C_10  and  N_12 
REMARK    2  A    between atoms: N_12  and  C_13 
ROOT
HETATM    1  N   UNL     1     -40.333 -51.087  14.254  1.00  0.00    -0.294 N 
HETATM    2  C   UNL     1     -41.558 -51.006  13.632  1.00  0.00     0.322 C 
HETATM    3  O   UNL     1     -42.058 -50.003  13.147  1.00  0.00    -0.247 OA
HETATM    4  N   UNL     1     -42.182 -52.233  13.621  1.00  0.00    -0.336 N 
HETATM    5  H   UNL     1     -40.350 -51.613  15.113  1.00  0.00     0.172 HD
HETATM    6  H   UNL     1     -41.746 -52.984  14.136  1.00  0.00     0.164 HD
ENDROOT
BRANCH   1   7
HETATM    7  C   UNL     1     -39.462 -49.999  14.377  1.00  0.00     0.114 A 
HETATM    8  C   UNL     1     -38.218 -49.913  13.741  1.00  0.00    -0.018 A 
HETATM    9  C   UNL     1     -37.635 -51.008  12.899  1.00  0.00     0.052 C 
HETATM   10  C   UNL     1     -37.469 -48.748  13.954  1.00  0.00     0.012 A 
HETATM   11  C   UNL     1     -37.948 -47.753  14.796  1.00  0.00     0.018 A 
HETATM   12  C   UNL     1     -39.160 -47.962  15.424  1.00  0.00     0.089 A 
HETATM   13  N   UNL     1     -39.911 -49.070  15.253  1.00  0.00    -0.352 N 
ATOM     14  HN  UNL     1     -40.783 -49.203  15.765  1.00  0.00     0.166 HD
ENDBRANCH   1   7
BRANCH   4  15
HETATM   15  C   UNL     1     -43.549 -52.423  13.151  1.00  0.00     0.121 C 
HETATM   16  C   UNL     1     -43.746 -53.833  12.570  1.00  0.00     0.057 C 
HETATM   17  C   UNL     1     -44.902 -54.456  13.353  1.00  0.00     0.275 C 
HETATM   18  N   UNL     1     -45.611 -53.301  13.884  1.00  0.00     0.095 N 
HETATM   19  C   UNL     1     -46.523 -53.590  14.986  1.00  0.00     0.273 C 
HETATM   20  C   UNL     1     -44.558 -52.366  14.303  1.00  0.00     0.245 C 
HETATM   21  C   UNL     1     -47.199 -52.292  15.448  1.00  0.00     0.030 C 
HETATM   22  C   UNL     1     -46.193 -51.169  15.738  1.00  0.00     0.004 C 
HETATM   23  C   UNL     1     -45.187 -51.008  14.594  1.00  0.00     0.038 C 
ENDBRANCH   4  15
TORSDOF 2
ENDMDL
MODEL 8
REMARK VINA RESULT:      -5.8      2.557      3.685
REMARK  2 active torsions:
REMARK  status: ('A' for Active; 'I' for Inactive)
REMARK    1  A    between atoms: C_8  and  N_9 
REMARK       I    between atoms: N_9  and  C_10 
REMARK       I    between atoms: C_10  and  N_12 
REMARK    2  A    between atoms: N_12  and  C_13 
ROOT
HETATM    1  N   UNL     1     -40.670 -48.513  13.013  1.00  0.00    -0.294 N 
HETATM    2  C   UNL     1     -40.753 -49.757  12.431  1.00  0.00     0.322 C 
HETATM    3  O   UNL     1     -40.998 -49.992  11.258  1.00  0.00    -0.247 OA
HETATM    4  N   UNL     1     -40.522 -50.748  13.359  1.00  0.00    -0.336 N 
HETATM    5  H   UNL     1     -41.147 -48.448  13.897  1.00  0.00     0.172 HD
HETATM    6  H   UNL     1     -40.431 -50.470  14.325  1.00  0.00     0.164 HD
ENDROOT
BRANCH   1   7
HETATM    7  C   UNL     1     -40.824 -47.320  12.298  1.00  0.00     0.114 A 
HETATM    8  C   UNL     1     -41.885 -46.425  12.483  1.00  0.00    -0.018 A 
HETATM    9  C   UNL     1     -43.025 -46.669  13.426  1.00  0.00     0.052 C 
HETATM   10  C   UNL     1     -41.888 -45.264  11.699  1.00  0.00     0.012 A 
HETATM   11  C   UNL     1     -40.888 -45.054  10.757  1.00  0.00     0.018 A 
HETATM   12  C   UNL     1     -39.919 -46.027  10.611  1.00  0.00     0.089 A 
HETATM   13  N   UNL     1     -39.882 -47.162  11.340  1.00  0.00    -0.352 N 
ATOM     14  HN  UNL     1     -39.170 -47.874  11.175  1.00  0.00     0.166 HD
ENDBRANCH   1   7
BRANCH   4  15
HETATM   15  C   UNL     1     -40.679 -52.166  13.060  1.00  0.00     0.121 C 
HETATM   16  C   UNL     1     -39.698 -53.018  13.882  1.00  0.00     0.057 C 
HETATM   17  C   UNL     1     -40.552 -54.023  14.653  1.00  0.00     0.275 C 
HETATM   18  N   UNL     1     -41.787 -54.078  13.883  1.00  0.00     0.095 N 
HETATM   19  C   UNL     1     -42.929 -54.651  14.588  1.00  0.00     0.273 C 
HETATM   20  C   UNL     1     -42.054 -52.687  13.492  1.00  0.00     0.245 C 
HETATM   21  C   UNL     1     -44.157 -54.646  13.667  1.00  0.00     0.030 C 
HETATM   22  C   UNL     1     -44.426 -53.270  13.044  1.00  0.00     0.004 C 
HETATM   23  C   UNL     1     -43.153 -52.672  12.435  1.00  0.00     0.038 C 
ENDBRANCH   4  15
TORSDOF 2
ENDMDL
MODEL 9
REMARK VINA RESULT:      -5.8      2.525      7.103
REMARK  2 active torsions:
REMARK  status: ('A' for Active; 'I' for Inactive)
REMARK    1  A    between atoms: C_8  and  N_9 
REMARK       I    between atoms: N_9  and  C_10 
REMARK       I    between atoms: C_10  and  N_12 
REMARK    2  A    between atoms: N_12  and  C_13 
ROOT
HETATM    1  N   UNL     1     -42.721 -51.328  12.558  1.00  0.00    -0.294 N 
HETATM    2  C   UNL     1     -42.586 -50.192  13.324  1.00  0.00     0.322 C 
HETATM    3  O   UNL     1     -43.197 -49.935  14.349  1.00  0.00    -0.247 OA
HETATM    4  N   UNL     1     -41.650 -49.344  12.778  1.00  0.00    -0.336 N 
HETATM    5  H   UNL     1     -42.773 -51.145  11.570  1.00  0.00     0.172 HD
HETATM    6  H   UNL     1     -41.269 -49.586  11.874  1.00  0.00     0.164 HD
ENDROOT
BRANCH   1   7
HETATM    7  C   UNL     1     -43.578 -52.383  12.895  1.00  0.00     0.114 A 
HETATM    8  C   UNL     1     -43.142 -53.656  13.279  1.00  0.00    -0.018 A 
HETATM    9  C   UNL     1     -41.701 -54.068  13.314  1.00  0.00     0.052 C 
HETATM   10  C   UNL     1     -44.126 -54.600  13.600  1.00  0.00     0.012 A 
HETATM   11  C   UNL     1     -45.472 -54.270  13.495  1.00  0.00     0.018 A 
HETATM   12  C   UNL     1     -45.797 -53.005  13.049  1.00  0.00     0.089 A 
HETATM   13  N   UNL     1     -44.882 -52.068  12.723  1.00  0.00    -0.352 N 
ATOM     14  HN  UNL     1     -45.163 -51.156  12.361  1.00  0.00     0.166 HD
ENDBRANCH   1   7
BRANCH   4  15
HETATM   15  C   UNL     1     -41.395 -48.005  13.297  1.00  0.00     0.121 C 
HETATM   16  C   UNL     1     -40.034 -47.935  14.008  1.00  0.00     0.057 C 
HETATM   17  C   UNL     1     -39.250 -46.821  13.313  1.00  0.00     0.275 C 
HETATM   18  N   UNL     1     -40.290 -46.011  12.696  1.00  0.00     0.095 N 
HETATM   19  C   UNL     1     -39.827 -45.108  11.647  1.00  0.00     0.273 C 
HETATM   20  C   UNL     1     -41.264 -46.976  12.168  1.00  0.00     0.245 C 
HETATM   21  C   UNL     1     -41.018 -44.319  11.085  1.00  0.00     0.030 C 
HETATM   22  C   UNL     1     -42.186 -45.224  10.670  1.00  0.00     0.004 C 
HETATM   23  C   UNL     1     -42.533 -46.232  11.770  1.00  0.00     0.038 C 
ENDBRANCH   4  15
TORSDOF 2
ENDMDL
