MODEL 1
REMARK VINA RESULT:      -6.1      0.000      0.000
REMARK  3 active torsions:
REMARK  status: ('A' for Active; 'I' for Inactive)
REMARK    1  A    between atoms: C_2  and  C_3 
REMARK       I    between atoms: C_2  and  N_10 
REMARK    2  A    between atoms: C_3  and  N_4 
REMARK    3  A    between atoms: N_10  and  C_11 
ROOT
HETATM    1  O   UNL     1     -43.698 -45.008   9.136  1.00  0.00    -0.272 OA
HETATM    2  C   UNL     1     -43.142 -46.105   9.096  1.00  0.00     0.238 C 
HETATM    3  N   UNL     1     -42.065 -46.409   9.908  1.00  0.00    -0.347 N 
HETATM    4  H   UNL     1     -41.808 -47.384  10.037  1.00  0.00     0.163 HD
ENDROOT
BRANCH   3   5
HETATM    5  C   UNL     1     -41.601 -45.490  10.960  1.00  0.00     0.170 C 
HETATM    6  C   UNL     1     -40.220 -44.925  10.615  1.00  0.00     0.034 C 
HETATM    7  C   UNL     1     -39.789 -43.830  11.587  1.00  0.00     0.004 C 
HETATM    8  C   UNL     1     -39.074 -44.355  12.825  1.00  0.00     0.015 C 
HETATM    9  C   UNL     1     -39.591 -45.676  13.374  1.00  0.00     0.095 C 
HETATM   10  N   UNL     1     -41.031 -45.814  13.404  1.00  0.00    -0.261 NA
HETATM   11  C   UNL     1     -41.713 -46.253  12.298  1.00  0.00     0.220 C 
HETATM   12  H   UNL     1     -41.353 -46.345  14.206  1.00  0.00     0.130 HD
HETATM   13  O   UNL     1     -42.504 -47.191  12.435  1.00  0.00    -0.278 OA
ENDBRANCH   3   5
BRANCH   2  14
HETATM   14  C   UNL     1     -43.523 -47.188   8.111  1.00  0.00     0.250 C 
BRANCH  14  15
HETATM   15  N   UNL     1     -44.829 -47.792   8.304  1.00  0.00    -0.295 N 
HETATM   16  C   UNL     1     -45.683 -47.726   9.373  1.00  0.00     0.112 A 
HETATM   17  C   UNL     1     -46.795 -48.467   9.032  1.00  0.00     0.037 A 
HETATM   18  C   UNL     1     -46.520 -48.947   7.743  1.00  0.00     0.108 A 
HETATM   19  N   UNL     1     -45.328 -48.548   7.295  1.00  0.00    -0.310 N 
ATOM     20  HN  UNL     1     -44.891 -48.763   6.398  1.00  0.00     0.186 HD
ENDBRANCH  14  15
ENDBRANCH   2  14
TORSDOF 3
ENDMDL
MODEL 2
REMARK VINA RESULT:      -5.8      6.154      8.609
REMARK  3 active torsions:
REMARK  status: ('A' for Active; 'I' for Inactive)
REMARK    1  A    between atoms: C_2  and  C_3 
REMARK       I    between atoms: C_2  and  N_10 
REMARK    2  A    between atoms: C_3  and  N_4 
REMARK    3  A    between atoms: N_10  and  C_11 
ROOT
HETATM    1  O   UNL     1     -42.269 -50.601  12.182  1.00  0.00    -0.272 OA
HETATM    2  C   UNL     1     -41.917 -51.676  12.667  1.00  0.00     0.238 C 
HETATM    3  N   UNL     1     -42.799 -52.493  13.349  1.00  0.00    -0.347 N 
HETATM    4  H   UNL     1     -42.549 -53.467  13.500  1.00  0.00     0.163 HD
ENDROOT
BRANCH   3   5
HETATM    5  C   UNL     1     -44.238 -52.193  13.425  1.00  0.00     0.170 C 
HETATM    6  C   UNL     1     -44.603 -51.637  14.804  1.00  0.00     0.034 C 
HETATM    7  C   UNL     1     -46.046 -51.141  14.859  1.00  0.00     0.004 C 
HETATM    8  C   UNL     1     -47.054 -52.224  15.220  1.00  0.00     0.015 C 
HETATM    9  C   UNL     1     -46.763 -53.608  14.659  1.00  0.00     0.095 C 
HETATM   10  N   UNL     1     -46.311 -53.636  13.285  1.00  0.00    -0.261 NA
HETATM   11  C   UNL     1     -44.984 -53.471  12.984  1.00  0.00     0.220 C 
HETATM   12  H   UNL     1     -46.651 -54.449  12.782  1.00  0.00     0.130 HD
HETATM   13  O   UNL     1     -44.442 -54.307  12.253  1.00  0.00    -0.278 OA
ENDBRANCH   3   5
BRANCH   2  14
HETATM   14  C   UNL     1     -40.487 -52.167  12.637  1.00  0.00     0.250 C 
BRANCH  14  15
HETATM   15  N   UNL     1     -39.463 -51.140  12.558  1.00  0.00    -0.295 N 
HETATM   16  C   UNL     1     -38.570 -50.711  13.504  1.00  0.00     0.112 A 
HETATM   17  C   UNL     1     -37.812 -49.726  12.907  1.00  0.00     0.037 A 
HETATM   18  C   UNL     1     -38.322 -49.624  11.605  1.00  0.00     0.108 A 
HETATM   19  N   UNL     1     -39.328 -50.474  11.386  1.00  0.00    -0.310 N 
ATOM     20  HN  UNL     1     -39.872 -50.595  10.530  1.00  0.00     0.186 HD
ENDBRANCH  14  15
ENDBRANCH   2  14
TORSDOF 3
ENDMDL
MODEL 3
REMARK VINA RESULT:      -5.5      8.321      9.267
REMARK  3 active torsions:
REMARK  status: ('A' for Active; 'I' for Inactive)
REMARK    1  A    between atoms: C_2  and  C_3 
REMARK       I    between atoms: C_2  and  N_10 
REMARK    2  A    between atoms: C_3  and  N_4 
REMARK    3  A    between atoms: N_10  and  C_11 
ROOT
HETATM    1  O   UNL     1     -43.321 -54.375  13.900  1.00  0.00    -0.272 OA
HETATM    2  C   UNL     1     -42.635 -53.374  14.104  1.00  0.00     0.238 C 
HETATM    3  N   UNL     1     -41.396 -53.449  14.711  1.00  0.00    -0.347 N 
HETATM    4  H   UNL     1     -40.759 -52.660  14.625  1.00  0.00     0.163 HD
ENDROOT
BRANCH   3   5
HETATM    5  C   UNL     1     -40.763 -54.738  15.031  1.00  0.00     0.170 C 
HETATM    6  C   UNL     1     -40.898 -55.054  16.523  1.00  0.00     0.034 C 
HETATM    7  C   UNL     1     -40.419 -56.464  16.856  1.00  0.00     0.004 C 
HETATM    8  C   UNL     1     -38.927 -56.552  17.150  1.00  0.00     0.015 C 
HETATM    9  C   UNL     1     -38.037 -55.642  16.319  1.00  0.00     0.095 C 
HETATM   10  N   UNL     1     -38.373 -55.562  14.914  1.00  0.00    -0.261 NA
HETATM   11  C   UNL     1     -39.323 -54.678  14.472  1.00  0.00     0.220 C 
HETATM   12  H   UNL     1     -37.553 -55.465  14.324  1.00  0.00     0.130 HD
HETATM   13  O   UNL     1     -39.030 -53.923  13.540  1.00  0.00    -0.278 OA
ENDBRANCH   3   5
BRANCH   2  14
HETATM   14  C   UNL     1     -43.108 -51.972  13.791  1.00  0.00     0.250 C 
BRANCH  14  15
HETATM   15  N   UNL     1     -44.546 -51.790  13.704  1.00  0.00    -0.295 N 
HETATM   16  C   UNL     1     -45.466 -51.551  14.691  1.00  0.00     0.112 A 
HETATM   17  C   UNL     1     -46.691 -51.444  14.066  1.00  0.00     0.037 A 
HETATM   18  C   UNL     1     -46.414 -51.639  12.705  1.00  0.00     0.108 A 
HETATM   19  N   UNL     1     -45.116 -51.856  12.477  1.00  0.00    -0.310 N 
ATOM     20  HN  UNL     1     -44.658 -52.030  11.582  1.00  0.00     0.186 HD
ENDBRANCH  14  15
ENDBRANCH   2  14
TORSDOF 3
ENDMDL
MODEL 4
REMARK VINA RESULT:      -5.4      4.617      6.595
REMARK  3 active torsions:
REMARK  status: ('A' for Active; 'I' for Inactive)
REMARK    1  A    between atoms: C_2  and  C_3 
REMARK       I    between atoms: C_2  and  N_10 
REMARK    2  A    between atoms: C_3  and  N_4 
REMARK    3  A    between atoms: N_10  and  C_11 
ROOT
HETATM    1  O   UNL     1     -40.229 -48.713  12.054  1.00  0.00    -0.272 OA
HETATM    2  C   UNL     1     -41.295 -48.798  11.443  1.00  0.00     0.238 C 
HETATM    3  N   UNL     1     -42.132 -49.888  11.581  1.00  0.00    -0.347 N 
HETATM    4  H   UNL     1     -43.099 -49.806  11.279  1.00  0.00     0.163 HD
ENDROOT
BRANCH   3   5
HETATM    5  C   UNL     1     -41.868 -50.952  12.563  1.00  0.00     0.170 C 
HETATM    6  C   UNL     1     -41.180 -52.147  11.897  1.00  0.00     0.034 C 
HETATM    7  C   UNL     1     -40.724 -53.188  12.916  1.00  0.00     0.004 C 
HETATM    8  C   UNL     1     -41.792 -54.217  13.261  1.00  0.00     0.015 C 
HETATM    9  C   UNL     1     -43.218 -53.692  13.321  1.00  0.00     0.095 C 
HETATM   10  N   UNL     1     -43.379 -52.411  13.974  1.00  0.00    -0.261 NA
HETATM   11  C   UNL     1     -43.208 -51.244  13.275  1.00  0.00     0.220 C 
HETATM   12  H   UNL     1     -44.251 -52.345  14.490  1.00  0.00     0.130 HD
HETATM   13  O   UNL     1     -44.101 -50.392  13.332  1.00  0.00    -0.278 OA
ENDBRANCH   3   5
BRANCH   2  14
HETATM   14  C   UNL     1     -41.749 -47.770  10.431  1.00  0.00     0.250 C 
BRANCH  14  15
HETATM   15  N   UNL     1     -41.218 -46.429  10.603  1.00  0.00    -0.295 N 
HETATM   16  C   UNL     1     -41.840 -45.280  11.018  1.00  0.00     0.112 A 
HETATM   17  C   UNL     1     -40.876 -44.294  11.020  1.00  0.00     0.037 A 
HETATM   18  C   UNL     1     -39.707 -44.937  10.587  1.00  0.00     0.108 A 
HETATM   19  N   UNL     1     -39.906 -46.231  10.327  1.00  0.00    -0.310 N 
ATOM     20  HN  UNL     1     -39.226 -46.915   9.994  1.00  0.00     0.186 HD
ENDBRANCH  14  15
ENDBRANCH   2  14
TORSDOF 3
ENDMDL
MODEL 5
REMARK VINA RESULT:      -5.4      7.909      9.991
REMARK  3 active torsions:
REMARK  status: ('A' for Active; 'I' for Inactive)
REMARK    1  A    between atoms: C_2  and  C_3 
REMARK       I    between atoms: C_2  and  N_10 
REMARK    2  A    between atoms: C_3  and  N_4 
REMARK    3  A    between atoms: N_10  and  C_11 
ROOT
HETATM    1  O   UNL     1     -42.689 -52.801  14.362  1.00  0.00    -0.272 OA
HETATM    2  C   UNL     1     -42.511 -53.550  13.402  1.00  0.00     0.238 C 
HETATM    3  N   UNL     1     -43.558 -53.987  12.612  1.00  0.00    -0.347 N 
HETATM    4  H   UNL     1     -43.352 -54.377  11.696  1.00  0.00     0.163 HD
ENDROOT
BRANCH   3   5
HETATM    5  C   UNL     1     -44.928 -53.482  12.789  1.00  0.00     0.170 C 
HETATM    6  C   UNL     1     -44.918 -51.982  13.095  1.00  0.00     0.034 C 
HETATM    7  C   UNL     1     -46.324 -51.388  13.099  1.00  0.00     0.004 C 
HETATM    8  C   UNL     1     -47.026 -51.483  14.448  1.00  0.00     0.015 C 
HETATM    9  C   UNL     1     -46.750 -52.747  15.247  1.00  0.00     0.095 C 
HETATM   10  N   UNL     1     -46.744 -53.974  14.481  1.00  0.00    -0.261 NA
HETATM   11  C   UNL     1     -45.606 -54.390  13.839  1.00  0.00     0.220 C 
HETATM   12  H   UNL     1     -47.116 -54.760  15.005  1.00  0.00     0.130 HD
HETATM   13  O   UNL     1     -45.215 -55.546  14.033  1.00  0.00    -0.278 OA
ENDBRANCH   3   5
BRANCH   2  14
HETATM   14  C   UNL     1     -41.159 -54.126  13.044  1.00  0.00     0.250 C 
BRANCH  14  15
HETATM   15  N   UNL     1     -40.328 -54.541  14.160  1.00  0.00    -0.295 N 
HETATM   16  C   UNL     1     -38.966 -54.663  14.248  1.00  0.00     0.112 A 
HETATM   17  C   UNL     1     -38.694 -55.077  15.535  1.00  0.00     0.037 A 
HETATM   18  C   UNL     1     -39.951 -55.184  16.148  1.00  0.00     0.108 A 
HETATM   19  N   UNL     1     -40.949 -54.867  15.320  1.00  0.00    -0.310 N 
ATOM     20  HN  UNL     1     -41.950 -54.868  15.515  1.00  0.00     0.186 HD
ENDBRANCH  14  15
ENDBRANCH   2  14
TORSDOF 3
ENDMDL
MODEL 6
REMARK VINA RESULT:      -5.3      4.647      6.935
REMARK  3 active torsions:
REMARK  status: ('A' for Active; 'I' for Inactive)
REMARK    1  A    between atoms: C_2  and  C_3 
REMARK       I    between atoms: C_2  and  N_10 
REMARK    2  A    between atoms: C_3  and  N_4 
REMARK    3  A    between atoms: N_10  and  C_11 
ROOT
HETATM    1  O   UNL     1     -41.715 -48.494  10.902  1.00  0.00    -0.272 OA
HETATM    2  C   UNL     1     -41.179 -48.517  12.010  1.00  0.00     0.238 C 
HETATM    3  N   UNL     1     -41.158 -49.660  12.787  1.00  0.00    -0.347 N 
HETATM    4  H   UNL     1     -40.495 -49.718  13.556  1.00  0.00     0.163 HD
ENDROOT
BRANCH   3   5
HETATM    5  C   UNL     1     -41.656 -50.951  12.286  1.00  0.00     0.170 C 
HETATM    6  C   UNL     1     -42.807 -51.463  13.156  1.00  0.00     0.034 C 
HETATM    7  C   UNL     1     -43.469 -52.702  12.560  1.00  0.00     0.004 C 
HETATM    8  C   UNL     1     -42.806 -54.010  12.971  1.00  0.00     0.015 C 
HETATM    9  C   UNL     1     -41.292 -53.967  13.105  1.00  0.00     0.095 C 
HETATM   10  N   UNL     1     -40.599 -53.239  12.065  1.00  0.00    -0.261 NA
HETATM   11  C   UNL     1     -40.430 -51.882  12.157  1.00  0.00     0.220 C 
HETATM   12  H   UNL     1     -39.702 -53.654  11.832  1.00  0.00     0.130 HD
HETATM   13  O   UNL     1     -39.291 -51.424  12.013  1.00  0.00    -0.278 OA
ENDBRANCH   3   5
BRANCH   2  14
HETATM   14  C   UNL     1     -40.572 -47.294  12.659  1.00  0.00     0.250 C 
BRANCH  14  15
HETATM   15  N   UNL     1     -40.357 -46.152  11.788  1.00  0.00    -0.295 N 
HETATM   16  C   UNL     1     -40.647 -44.827  11.983  1.00  0.00     0.112 A 
HETATM   17  C   UNL     1     -40.224 -44.163  10.851  1.00  0.00     0.037 A 
HETATM   18  C   UNL     1     -39.699 -45.168  10.025  1.00  0.00     0.108 A 
HETATM   19  N   UNL     1     -39.781 -46.378  10.583  1.00  0.00    -0.310 N 
ATOM     20  HN  UNL     1     -39.478 -47.271  10.191  1.00  0.00     0.186 HD
ENDBRANCH  14  15
ENDBRANCH   2  14
TORSDOF 3
ENDMDL
MODEL 7
REMARK VINA RESULT:      -5.3      7.489      8.453
REMARK  3 active torsions:
REMARK  status: ('A' for Active; 'I' for Inactive)
REMARK    1  A    between atoms: C_2  and  C_3 
REMARK       I    between atoms: C_2  and  N_10 
REMARK    2  A    between atoms: C_3  and  N_4 
REMARK    3  A    between atoms: N_10  and  C_11 
ROOT
HETATM    1  O   UNL     1     -43.510 -55.742  15.312  1.00  0.00    -0.272 OA
HETATM    2  C   UNL     1     -43.815 -54.843  14.529  1.00  0.00     0.238 C 
HETATM    3  N   UNL     1     -42.961 -53.792  14.253  1.00  0.00    -0.347 N 
HETATM    4  H   UNL     1     -43.129 -53.228  13.425  1.00  0.00     0.163 HD
ENDROOT
BRANCH   3   5
HETATM    5  C   UNL     1     -41.586 -53.751  14.776  1.00  0.00     0.170 C 
HETATM    6  C   UNL     1     -41.373 -52.509  15.646  1.00  0.00     0.034 C 
HETATM    7  C   UNL     1     -40.021 -52.529  16.354  1.00  0.00     0.004 C 
HETATM    8  C   UNL     1     -38.888 -51.932  15.529  1.00  0.00     0.015 C 
HETATM    9  C   UNL     1     -38.949 -52.201  14.034  1.00  0.00     0.095 C 
HETATM   10  N   UNL     1     -39.323 -53.549  13.662  1.00  0.00    -0.261 NA
HETATM   11  C   UNL     1     -40.643 -53.904  13.562  1.00  0.00     0.220 C 
HETATM   12  H   UNL     1     -38.845 -53.867  12.825  1.00  0.00     0.130 HD
HETATM   13  O   UNL     1     -41.022 -54.458  12.524  1.00  0.00    -0.278 OA
ENDBRANCH   3   5
BRANCH   2  14
HETATM   14  C   UNL     1     -45.169 -54.755  13.861  1.00  0.00     0.250 C 
BRANCH  14  15
HETATM   15  N   UNL     1     -45.775 -53.436  13.821  1.00  0.00    -0.295 N 
HETATM   16  C   UNL     1     -46.186 -52.623  14.845  1.00  0.00     0.112 A 
HETATM   17  C   UNL     1     -46.675 -51.475  14.259  1.00  0.00     0.037 A 
HETATM   18  C   UNL     1     -46.525 -51.686  12.881  1.00  0.00     0.108 A 
HETATM   19  N   UNL     1     -45.985 -52.876  12.605  1.00  0.00    -0.310 N 
ATOM     20  HN  UNL     1     -45.778 -53.273  11.688  1.00  0.00     0.186 HD
ENDBRANCH  14  15
ENDBRANCH   2  14
TORSDOF 3
ENDMDL
MODEL 8
REMARK VINA RESULT:      -5.3      6.242      6.855
REMARK  3 active torsions:
REMARK  status: ('A' for Active; 'I' for Inactive)
REMARK    1  A    between atoms: C_2  and  C_3 
REMARK       I    between atoms: C_2  and  N_10 
REMARK    2  A    between atoms: C_3  and  N_4 
REMARK    3  A    between atoms: N_10  and  C_11 
ROOT
HETATM    1  O   UNL     1     -43.013 -51.707  14.042  1.00  0.00    -0.272 OA
HETATM    2  C   UNL     1     -42.873 -52.253  12.948  1.00  0.00     0.238 C 
HETATM    3  N   UNL     1     -41.820 -51.946  12.107  1.00  0.00    -0.347 N 
HETATM    4  H   UNL     1     -41.591 -52.588  11.352  1.00  0.00     0.163 HD
ENDROOT
BRANCH   3   5
HETATM    5  C   UNL     1     -40.731 -51.047  12.522  1.00  0.00     0.170 C 
HETATM    6  C   UNL     1     -40.456 -49.995  11.443  1.00  0.00     0.034 C 
HETATM    7  C   UNL     1     -39.464 -48.936  11.916  1.00  0.00     0.004 C 
HETATM    8  C   UNL     1     -38.006 -49.310  11.677  1.00  0.00     0.015 C 
HETATM    9  C   UNL     1     -37.666 -50.781  11.858  1.00  0.00     0.095 C 
HETATM   10  N   UNL     1     -38.275 -51.422  13.004  1.00  0.00    -0.261 NA
HETATM   11  C   UNL     1     -39.539 -51.946  12.920  1.00  0.00     0.220 C 
HETATM   12  H   UNL     1     -37.671 -52.119  13.425  1.00  0.00     0.130 HD
HETATM   13  O   UNL     1     -39.713 -53.113  13.286  1.00  0.00    -0.278 OA
ENDBRANCH   3   5
BRANCH   2  14
HETATM   14  C   UNL     1     -43.871 -53.241  12.384  1.00  0.00     0.250 C 
BRANCH  14  15
HETATM   15  N   UNL     1     -44.959 -53.620  13.268  1.00  0.00    -0.295 N 
HETATM   16  C   UNL     1     -45.290 -54.846  13.784  1.00  0.00     0.112 A 
HETATM   17  C   UNL     1     -46.400 -54.649  14.577  1.00  0.00     0.037 A 
HETATM   18  C   UNL     1     -46.673 -53.277  14.474  1.00  0.00     0.108 A 
HETATM   19  N   UNL     1     -45.807 -52.645  13.677  1.00  0.00    -0.310 N 
ATOM     20  HN  UNL     1     -45.788 -51.655  13.432  1.00  0.00     0.186 HD
ENDBRANCH  14  15
ENDBRANCH   2  14
TORSDOF 3
ENDMDL
MODEL 9
REMARK VINA RESULT:      -5.1      5.431      6.191
REMARK  3 active torsions:
REMARK  status: ('A' for Active; 'I' for Inactive)
REMARK    1  A    between atoms: C_2  and  C_3 
REMARK       I    between atoms: C_2  and  N_10 
REMARK    2  A    between atoms: C_3  and  N_4 
REMARK    3  A    between atoms: N_10  and  C_11 
ROOT
HETATM    1  O   UNL     1     -42.691 -51.087  13.951  1.00  0.00    -0.272 OA
HETATM    2  C   UNL     1     -42.474 -51.408  12.783  1.00  0.00     0.238 C 
HETATM    3  N   UNL     1     -42.106 -50.481  11.826  1.00  0.00    -0.347 N 
HETATM    4  H   UNL     1     -41.687 -50.810  10.960  1.00  0.00     0.163 HD
ENDROOT
BRANCH   3   5
HETATM    5  C   UNL     1     -41.823 -49.079  12.170  1.00  0.00     0.170 C 
HETATM    6  C   UNL     1     -43.034 -48.191  11.871  1.00  0.00     0.034 C 
HETATM    7  C   UNL     1     -42.843 -46.768  12.387  1.00  0.00     0.004 C 
HETATM    8  C   UNL     1     -42.142 -45.845  11.399  1.00  0.00     0.015 C 
HETATM    9  C   UNL     1     -41.045 -46.487  10.564  1.00  0.00     0.095 C 
HETATM   10  N   UNL     1     -40.166 -47.386  11.281  1.00  0.00    -0.261 NA
HETATM   11  C   UNL     1     -40.506 -48.702  11.455  1.00  0.00     0.220 C 
HETATM   12  H   UNL     1     -39.211 -47.348  10.940  1.00  0.00     0.130 HD
HETATM   13  O   UNL     1     -39.681 -49.566  11.138  1.00  0.00    -0.278 OA
ENDBRANCH   3   5
BRANCH   2  14
HETATM   14  C   UNL     1     -42.667 -52.816  12.265  1.00  0.00     0.250 C 
BRANCH  14  15
HETATM   15  N   UNL     1     -43.409 -53.716  13.130  1.00  0.00    -0.295 N 
HETATM   16  C   UNL     1     -44.702 -54.160  13.040  1.00  0.00     0.112 A 
HETATM   17  C   UNL     1     -44.898 -55.010  14.108  1.00  0.00     0.037 A 
HETATM   18  C   UNL     1     -43.673 -55.013  14.791  1.00  0.00     0.108 A 
HETATM   19  N   UNL     1     -42.765 -54.227  14.208  1.00  0.00    -0.310 N 
ATOM     20  HN  UNL     1     -41.805 -54.051  14.506  1.00  0.00     0.186 HD
ENDBRANCH  14  15
ENDBRANCH   2  14
TORSDOF 3
ENDMDL
