MODEL 1
REMARK VINA RESULT:      -4.8      0.000      0.000
REMARK  4 active torsions:
REMARK  status: ('A' for Active; 'I' for Inactive)
REMARK    1  A    between atoms: C_1  and  C_2 
REMARK    2  A    between atoms: C_1  and  N_10 
REMARK    3  A    between atoms: C_2  and  C_3 
REMARK    4  A    between atoms: N_10  and  C_11 
ROOT
HETATM    1  C   UNL     1     -41.901 -47.982  10.731  1.00  0.00     0.010 A 
HETATM    2  C   UNL     1     -40.888 -47.088  11.067  1.00  0.00     0.025 A 
HETATM    3  C   UNL     1     -39.704 -47.584  11.605  1.00  0.00     0.003 A 
HETATM    4  C   UNL     1     -39.562 -48.952  11.797  1.00  0.00     0.017 A 
HETATM    5  C   UNL     1     -40.621 -49.772  11.446  1.00  0.00     0.088 A 
HETATM    6  N   UNL     1     -41.782 -49.319  10.923  1.00  0.00    -0.369 N 
ATOM      7  HN  UNL     1     -42.540 -49.958  10.682  1.00  0.00     0.165 HD
ENDROOT
BRANCH   1   8
HETATM    8  C   UNL     1     -43.206 -47.487  10.157  1.00  0.00     0.087 C 
BRANCH   8   9
HETATM    9  C   UNL     1     -43.202 -47.576   8.630  1.00  0.00     0.276 C 
BRANCH   9  10
HETATM   10  N   UNL     1     -44.570 -47.680   8.099  1.00  0.00     0.088 N 
HETATM   11  H   UNL     1     -44.623 -48.494   7.486  1.00  0.00     0.316 HD
BRANCH  10  12
HETATM   12  C   UNL     1     -45.565 -47.793   9.173  1.00  0.00     0.220 A 
HETATM   13  C   UNL     1     -46.848 -48.528   8.906  1.00  0.00     0.037 A 
HETATM   14  C   UNL     1     -46.856 -47.036   9.048  1.00  0.00     0.037 A 
ENDBRANCH  10  12
ENDBRANCH   9  10
ENDBRANCH   8   9
ENDBRANCH   1   8
TORSDOF 4
ENDMDL
MODEL 2
REMARK VINA RESULT:      -4.7      5.717      6.755
REMARK  4 active torsions:
REMARK  status: ('A' for Active; 'I' for Inactive)
REMARK    1  A    between atoms: C_1  and  C_2 
REMARK    2  A    between atoms: C_1  and  N_10 
REMARK    3  A    between atoms: C_2  and  C_3 
REMARK    4  A    between atoms: N_10  and  C_11 
ROOT
HETATM    1  C   UNL     1     -43.262 -53.403  12.694  1.00  0.00     0.010 A 
HETATM    2  C   UNL     1     -42.603 -54.110  13.696  1.00  0.00     0.025 A 
HETATM    3  C   UNL     1     -41.223 -53.975  13.816  1.00  0.00     0.003 A 
HETATM    4  C   UNL     1     -40.538 -53.147  12.937  1.00  0.00     0.017 A 
HETATM    5  C   UNL     1     -41.267 -52.487  11.962  1.00  0.00     0.088 A 
HETATM    6  N   UNL     1     -42.607 -52.599  11.821  1.00  0.00    -0.369 N 
ATOM      7  HN  UNL     1     -43.106 -52.099  11.085  1.00  0.00     0.165 HD
ENDROOT
BRANCH   1   8
HETATM    8  C   UNL     1     -44.756 -53.529  12.520  1.00  0.00     0.087 C 
BRANCH   8   9
HETATM    9  C   UNL     1     -45.352 -54.478  13.561  1.00  0.00     0.276 C 
BRANCH   9  10
HETATM   10  N   UNL     1     -46.532 -53.885  14.209  1.00  0.00     0.088 N 
HETATM   11  H   UNL     1     -46.935 -54.571  14.848  1.00  0.00     0.316 HD
BRANCH  10  12
HETATM   12  C   UNL     1     -46.194 -52.655  14.938  1.00  0.00     0.220 A 
HETATM   13  C   UNL     1     -47.257 -51.976  15.755  1.00  0.00     0.037 A 
HETATM   14  C   UNL     1     -46.784 -51.354  14.475  1.00  0.00     0.037 A 
ENDBRANCH  10  12
ENDBRANCH   9  10
ENDBRANCH   8   9
ENDBRANCH   1   8
TORSDOF 4
ENDMDL
MODEL 3
REMARK VINA RESULT:      -4.5      6.209      7.142
REMARK  4 active torsions:
REMARK  status: ('A' for Active; 'I' for Inactive)
REMARK    1  A    between atoms: C_1  and  C_2 
REMARK    2  A    between atoms: C_1  and  N_10 
REMARK    3  A    between atoms: C_2  and  C_3 
REMARK    4  A    between atoms: N_10  and  C_11 
ROOT
HETATM    1  C   UNL     1     -42.702 -54.497  14.475  1.00  0.00     0.010 A 
HETATM    2  C   UNL     1     -42.339 -54.088  13.195  1.00  0.00     0.025 A 
HETATM    3  C   UNL     1     -40.988 -53.944  12.893  1.00  0.00     0.003 A 
HETATM    4  C   UNL     1     -40.038 -54.206  13.871  1.00  0.00     0.017 A 
HETATM    5  C   UNL     1     -40.483 -54.599  15.122  1.00  0.00     0.088 A 
HETATM    6  N   UNL     1     -41.787 -54.746  15.444  1.00  0.00    -0.369 N 
ATOM      7  HN  UNL     1     -42.073 -55.033  16.381  1.00  0.00     0.165 HD
ENDROOT
BRANCH   1   8
HETATM    8  C   UNL     1     -44.156 -54.654  14.849  1.00  0.00     0.087 C 
BRANCH   8   9
HETATM    9  C   UNL     1     -45.026 -54.837  13.604  1.00  0.00     0.276 C 
BRANCH   9  10
HETATM   10  N   UNL     1     -46.180 -53.925  13.624  1.00  0.00     0.088 N 
HETATM   11  H   UNL     1     -46.679 -54.046  14.506  1.00  0.00     0.316 HD
BRANCH  10  12
HETATM   12  C   UNL     1     -45.773 -52.524  13.462  1.00  0.00     0.220 A 
HETATM   13  C   UNL     1     -46.626 -51.442  14.062  1.00  0.00     0.037 A 
HETATM   14  C   UNL     1     -46.590 -51.630  12.575  1.00  0.00     0.037 A 
ENDBRANCH  10  12
ENDBRANCH   9  10
ENDBRANCH   8   9
ENDBRANCH   1   8
TORSDOF 4
ENDMDL
MODEL 4
REMARK VINA RESULT:      -4.5      4.908      7.351
REMARK  4 active torsions:
REMARK  status: ('A' for Active; 'I' for Inactive)
REMARK    1  A    between atoms: C_1  and  C_2 
REMARK    2  A    between atoms: C_1  and  N_10 
REMARK    3  A    between atoms: C_2  and  C_3 
REMARK    4  A    between atoms: N_10  and  C_11 
ROOT
HETATM    1  C   UNL     1     -42.151 -53.322  12.814  1.00  0.00     0.010 A 
HETATM    2  C   UNL     1     -42.284 -54.170  13.910  1.00  0.00     0.025 A 
HETATM    3  C   UNL     1     -43.550 -54.641  14.246  1.00  0.00     0.003 A 
HETATM    4  C   UNL     1     -44.647 -54.252  13.487  1.00  0.00     0.017 A 
HETATM    5  C   UNL     1     -44.430 -53.398  12.419  1.00  0.00     0.088 A 
HETATM    6  N   UNL     1     -43.213 -52.924  12.070  1.00  0.00    -0.369 N 
ATOM      7  HN  UNL     1     -43.098 -52.292  11.278  1.00  0.00     0.165 HD
ENDROOT
BRANCH   1   8
HETATM    8  C   UNL     1     -40.799 -52.778  12.422  1.00  0.00     0.087 C 
BRANCH   8   9
HETATM    9  C   UNL     1     -40.834 -51.253  12.306  1.00  0.00     0.276 C 
BRANCH   9  10
HETATM   10  N   UNL     1     -39.842 -50.771  11.332  1.00  0.00     0.088 N 
HETATM   11  H   UNL     1     -40.309 -50.157  10.665  1.00  0.00     0.316 HD
BRANCH  10  12
HETATM   12  C   UNL     1     -38.737 -50.058  11.986  1.00  0.00     0.220 A 
HETATM   13  C   UNL     1     -37.450 -49.859  11.234  1.00  0.00     0.037 A 
HETATM   14  C   UNL     1     -37.508 -50.829  12.376  1.00  0.00     0.037 A 
ENDBRANCH  10  12
ENDBRANCH   9  10
ENDBRANCH   8   9
ENDBRANCH   1   8
TORSDOF 4
ENDMDL
MODEL 5
REMARK VINA RESULT:      -4.5      1.936      3.352
REMARK  4 active torsions:
REMARK  status: ('A' for Active; 'I' for Inactive)
REMARK    1  A    between atoms: C_1  and  C_2 
REMARK    2  A    between atoms: C_1  and  N_10 
REMARK    3  A    between atoms: C_2  and  C_3 
REMARK    4  A    between atoms: N_10  and  C_11 
ROOT
HETATM    1  C   UNL     1     -39.824 -50.123  11.865  1.00  0.00     0.010 A 
HETATM    2  C   UNL     1     -39.561 -50.859  13.017  1.00  0.00     0.025 A 
HETATM    3  C   UNL     1     -38.247 -51.223  13.298  1.00  0.00     0.003 A 
HETATM    4  C   UNL     1     -37.234 -50.850  12.424  1.00  0.00     0.017 A 
HETATM    5  C   UNL     1     -37.581 -50.128  11.295  1.00  0.00     0.088 A 
HETATM    6  N   UNL     1     -38.847 -49.762  10.996  1.00  0.00    -0.369 N 
ATOM      7  HN  UNL     1     -39.060 -49.233  10.150  1.00  0.00     0.165 HD
ENDROOT
BRANCH   1   8
HETATM    8  C   UNL     1     -41.235 -49.718  11.515  1.00  0.00     0.087 C 
BRANCH   8   9
HETATM    9  C   UNL     1     -41.277 -48.289  10.973  1.00  0.00     0.276 C 
BRANCH   9  10
HETATM   10  N   UNL     1     -41.845 -48.250   9.617  1.00  0.00     0.088 N 
HETATM   11  H   UNL     1     -41.932 -49.207   9.271  1.00  0.00     0.316 HD
BRANCH  10  12
HETATM   12  C   UNL     1     -43.154 -47.584   9.592  1.00  0.00     0.220 A 
HETATM   13  C   UNL     1     -43.968 -47.622   8.329  1.00  0.00     0.037 A 
HETATM   14  C   UNL     1     -43.318 -46.342   8.763  1.00  0.00     0.037 A 
ENDBRANCH  10  12
ENDBRANCH   9  10
ENDBRANCH   8   9
ENDBRANCH   1   8
TORSDOF 4
ENDMDL
MODEL 6
REMARK VINA RESULT:      -4.3      6.187      7.981
REMARK  4 active torsions:
REMARK  status: ('A' for Active; 'I' for Inactive)
REMARK    1  A    between atoms: C_1  and  C_2 
REMARK    2  A    between atoms: C_1  and  N_10 
REMARK    3  A    between atoms: C_2  and  C_3 
REMARK    4  A    between atoms: N_10  and  C_11 
ROOT
HETATM    1  C   UNL     1     -45.995 -52.547  14.050  1.00  0.00     0.010 A 
HETATM    2  C   UNL     1     -46.766 -51.459  14.447  1.00  0.00     0.025 A 
HETATM    3  C   UNL     1     -47.117 -51.338  15.788  1.00  0.00     0.003 A 
HETATM    4  C   UNL     1     -46.696 -52.303  16.694  1.00  0.00     0.017 A 
HETATM    5  C   UNL     1     -45.941 -53.360  16.215  1.00  0.00     0.088 A 
HETATM    6  N   UNL     1     -45.586 -53.504  14.919  1.00  0.00    -0.369 N 
ATOM      7  HN  UNL     1     -45.031 -54.302  14.607  1.00  0.00     0.165 HD
ENDROOT
BRANCH   1   8
HETATM    8  C   UNL     1     -45.602 -52.724  12.603  1.00  0.00     0.087 C 
BRANCH   8   9
HETATM    9  C   UNL     1     -44.438 -53.708  12.467  1.00  0.00     0.276 C 
BRANCH   9  10
HETATM   10  N   UNL     1     -43.233 -53.039  11.955  1.00  0.00     0.088 N 
HETATM   11  H   UNL     1     -43.488 -52.104  11.635  1.00  0.00     0.316 HD
BRANCH  10  12
HETATM   12  C   UNL     1     -42.181 -52.953  12.975  1.00  0.00     0.220 A 
HETATM   13  C   UNL     1     -40.862 -53.630  12.724  1.00  0.00     0.037 A 
HETATM   14  C   UNL     1     -41.811 -54.191  13.741  1.00  0.00     0.037 A 
ENDBRANCH  10  12
ENDBRANCH   9  10
ENDBRANCH   8   9
ENDBRANCH   1   8
TORSDOF 4
ENDMDL
MODEL 7
REMARK VINA RESULT:      -4.3      1.739      2.441
REMARK  4 active torsions:
REMARK  status: ('A' for Active; 'I' for Inactive)
REMARK    1  A    between atoms: C_1  and  C_2 
REMARK    2  A    between atoms: C_1  and  N_10 
REMARK    3  A    between atoms: C_2  and  C_3 
REMARK    4  A    between atoms: N_10  and  C_11 
ROOT
HETATM    1  C   UNL     1     -41.230 -46.803  11.216  1.00  0.00     0.010 A 
HETATM    2  C   UNL     1     -40.932 -45.762  10.341  1.00  0.00     0.025 A 
HETATM    3  C   UNL     1     -40.159 -44.699  10.799  1.00  0.00     0.003 A 
HETATM    4  C   UNL     1     -39.709 -44.699  12.113  1.00  0.00     0.017 A 
HETATM    5  C   UNL     1     -40.059 -45.767  12.921  1.00  0.00     0.088 A 
HETATM    6  N   UNL     1     -40.808 -46.812  12.504  1.00  0.00    -0.369 N 
ATOM      7  HN  UNL     1     -41.047 -47.578  13.135  1.00  0.00     0.165 HD
ENDROOT
BRANCH   1   8
HETATM    8  C   UNL     1     -42.075 -47.969  10.764  1.00  0.00     0.087 C 
BRANCH   8   9
HETATM    9  C   UNL     1     -43.030 -47.553   9.644  1.00  0.00     0.276 C 
BRANCH   9  10
HETATM   10  N   UNL     1     -44.433 -47.755  10.038  1.00  0.00     0.088 N 
HETATM   11  H   UNL     1     -44.671 -47.079  10.765  1.00  0.00     0.316 HD
BRANCH  10  12
HETATM   12  C   UNL     1     -45.347 -47.612   8.898  1.00  0.00     0.220 A 
HETATM   13  C   UNL     1     -46.705 -47.008   9.122  1.00  0.00     0.037 A 
HETATM   14  C   UNL     1     -46.574 -48.475   8.840  1.00  0.00     0.037 A 
ENDBRANCH  10  12
ENDBRANCH   9  10
ENDBRANCH   8   9
ENDBRANCH   1   8
TORSDOF 4
ENDMDL
MODEL 8
REMARK VINA RESULT:      -4.2     20.981     22.751
REMARK  4 active torsions:
REMARK  status: ('A' for Active; 'I' for Inactive)
REMARK    1  A    between atoms: C_1  and  C_2 
REMARK    2  A    between atoms: C_1  and  N_10 
REMARK    3  A    between atoms: C_2  and  C_3 
REMARK    4  A    between atoms: N_10  and  C_11 
ROOT
HETATM    1  C   UNL     1     -26.268 -63.152  15.956  1.00  0.00     0.010 A 
HETATM    2  C   UNL     1     -27.554 -63.147  15.422  1.00  0.00     0.025 A 
HETATM    3  C   UNL     1     -28.583 -63.749  16.140  1.00  0.00     0.003 A 
HETATM    4  C   UNL     1     -28.304 -64.342  17.365  1.00  0.00     0.017 A 
HETATM    5  C   UNL     1     -26.997 -64.312  17.820  1.00  0.00     0.088 A 
HETATM    6  N   UNL     1     -25.978 -63.736  17.145  1.00  0.00    -0.369 N 
ATOM      7  HN  UNL     1     -25.027 -63.741  17.514  1.00  0.00     0.165 HD
ENDROOT
BRANCH   1   8
HETATM    8  C   UNL     1     -25.121 -62.522  15.205  1.00  0.00     0.087 C 
BRANCH   8   9
HETATM    9  C   UNL     1     -24.967 -61.046  15.575  1.00  0.00     0.276 C 
BRANCH   9  10
HETATM   10  N   UNL     1     -25.634 -60.178  14.592  1.00  0.00     0.088 N 
HETATM   11  H   UNL     1     -26.287 -59.567  15.084  1.00  0.00     0.316 HD
BRANCH  10  12
HETATM   12  C   UNL     1     -24.670 -59.376  13.829  1.00  0.00     0.220 A 
HETATM   13  C   UNL     1     -25.144 -58.130  13.134  1.00  0.00     0.037 A 
HETATM   14  C   UNL     1     -24.779 -59.343  12.332  1.00  0.00     0.037 A 
ENDBRANCH  10  12
ENDBRANCH   9  10
ENDBRANCH   8   9
ENDBRANCH   1   8
TORSDOF 4
ENDMDL
MODEL 9
REMARK VINA RESULT:      -4.2      2.012      5.919
REMARK  4 active torsions:
REMARK  status: ('A' for Active; 'I' for Inactive)
REMARK    1  A    between atoms: C_1  and  C_2 
REMARK    2  A    between atoms: C_1  and  N_10 
REMARK    3  A    between atoms: C_2  and  C_3 
REMARK    4  A    between atoms: N_10  and  C_11 
ROOT
HETATM    1  C   UNL     1     -41.992 -47.830  10.218  1.00  0.00     0.010 A 
HETATM    2  C   UNL     1     -42.143 -46.553  10.750  1.00  0.00     0.025 A 
HETATM    3  C   UNL     1     -42.986 -45.652  10.106  1.00  0.00     0.003 A 
HETATM    4  C   UNL     1     -43.651 -46.045   8.952  1.00  0.00     0.017 A 
HETATM    5  C   UNL     1     -43.438 -47.330   8.483  1.00  0.00     0.088 A 
HETATM    6  N   UNL     1     -42.625 -48.225   9.086  1.00  0.00    -0.369 N 
ATOM      7  HN  UNL     1     -42.492 -49.162   8.704  1.00  0.00     0.165 HD
ENDROOT
BRANCH   1   8
HETATM    8  C   UNL     1     -41.077 -48.835  10.877  1.00  0.00     0.087 C 
BRANCH   8   9
HETATM    9  C   UNL     1     -40.547 -48.303  12.209  1.00  0.00     0.276 C 
BRANCH   9  10
HETATM   10  N   UNL     1     -39.097 -48.518  12.329  1.00  0.00     0.088 N 
HETATM   11  H   UNL     1     -38.832 -48.426  13.310  1.00  0.00     0.316 HD
BRANCH  10  12
HETATM   12  C   UNL     1     -38.697 -49.836  11.820  1.00  0.00     0.220 A 
HETATM   13  C   UNL     1     -37.565 -50.564  12.489  1.00  0.00     0.037 A 
HETATM   14  C   UNL     1     -37.372 -49.972  11.125  1.00  0.00     0.037 A 
ENDBRANCH  10  12
ENDBRANCH   9  10
ENDBRANCH   8   9
ENDBRANCH   1   8
TORSDOF 4
ENDMDL
