MODEL 1
REMARK VINA RESULT:      -5.5      0.000      0.000
REMARK  3 active torsions:
REMARK  status: ('A' for Active; 'I' for Inactive)
REMARK    1  A    between atoms: C_2  and  C_3 
REMARK       I    between atoms: C_3  and  N_5 
REMARK    2  A    between atoms: N_5  and  C_6 
REMARK    3  A    between atoms: C_9  and  N_13 
ROOT
HETATM    1  C   UNL     1     -40.868 -52.035  12.410  1.00  0.00     0.050 A 
HETATM    2  C   UNL     1     -41.143 -53.355  12.724  1.00  0.00     0.035 A 
HETATM    3  C   UNL     1     -42.461 -53.779  12.884  1.00  0.00     0.051 A 
HETATM    4  C   UNL     1     -43.523 -52.893  12.728  1.00  0.00     0.103 A 
HETATM    5  N   UNL     1     -43.265 -51.591  12.464  1.00  0.00    -0.350 N 
ATOM      6  HN  UNL     1     -44.026 -50.919  12.374  1.00  0.00     0.166 HD
HETATM    7  C   UNL     1     -41.967 -51.194  12.319  1.00  0.00     0.119 A 
ENDROOT
BRANCH   1   8
HETATM    8  N   UNL     1     -39.553 -51.546  12.222  1.00  0.00    -0.326 N 
HETATM    9  C   UNL     1     -38.690 -51.208  13.255  1.00  0.00     0.221 C 
HETATM   10  O   UNL     1     -38.902 -51.398  14.448  1.00  0.00    -0.273 OA
HETATM   11  H   UNL     1     -39.183 -51.551  11.280  1.00  0.00     0.169 HD
BRANCH   9  12
HETATM   12  C   UNL     1     -37.401 -50.566  12.784  1.00  0.00     0.098 C 
HETATM   13  C   UNL     1     -37.572 -49.993  11.381  1.00  0.00     0.014 C 
ENDBRANCH   9  12
ENDBRANCH   1   8
BRANCH   4  14
HETATM   14  N   UNL     1     -44.825 -53.314  12.892  1.00  0.00    -0.363 N 
HETATM   15  C   UNL     1     -45.977 -52.412  12.762  1.00  0.00     0.150 C 
HETATM   16  C   UNL     1     -46.702 -52.257  14.108  1.00  0.00     0.187 C 
HETATM   17  O   UNL     1     -47.057 -53.530  14.669  1.00  0.00    -0.388 OA
HETATM   18  C   UNL     1     -45.871 -54.314  14.893  1.00  0.00     0.187 C 
HETATM   19  C   UNL     1     -45.112 -54.575  13.584  1.00  0.00     0.150 C 
ENDBRANCH   4  14
TORSDOF 3
ENDMDL
MODEL 2
REMARK VINA RESULT:      -5.4      4.898      7.767
REMARK  3 active torsions:
REMARK  status: ('A' for Active; 'I' for Inactive)
REMARK    1  A    between atoms: C_2  and  C_3 
REMARK       I    between atoms: C_3  and  N_5 
REMARK    2  A    between atoms: N_5  and  C_6 
REMARK    3  A    between atoms: C_9  and  N_13 
ROOT
HETATM    1  C   UNL     1     -42.545 -47.572  10.926  1.00  0.00     0.050 A 
HETATM    2  C   UNL     1     -42.363 -48.749  11.631  1.00  0.00     0.035 A 
HETATM    3  C   UNL     1     -41.088 -49.131  12.044  1.00  0.00     0.051 A 
HETATM    4  C   UNL     1     -39.978 -48.340  11.766  1.00  0.00     0.103 A 
HETATM    5  N   UNL     1     -40.136 -47.209  11.040  1.00  0.00    -0.350 N 
ATOM      6  HN  UNL     1     -39.332 -46.629  10.800  1.00  0.00     0.166 HD
HETATM    7  C   UNL     1     -41.391 -46.856  10.637  1.00  0.00     0.119 A 
ENDROOT
BRANCH   1   8
HETATM    8  N   UNL     1     -43.814 -47.123  10.490  1.00  0.00    -0.326 N 
HETATM    9  C   UNL     1     -44.278 -47.239   9.187  1.00  0.00     0.221 C 
HETATM   10  O   UNL     1     -43.712 -47.843   8.283  1.00  0.00    -0.273 OA
HETATM   11  H   UNL     1     -44.464 -46.800  11.196  1.00  0.00     0.169 HD
BRANCH   9  12
HETATM   12  C   UNL     1     -45.603 -46.541   8.950  1.00  0.00     0.098 C 
HETATM   13  C   UNL     1     -46.752 -47.540   9.030  1.00  0.00     0.014 C 
ENDBRANCH   9  12
ENDBRANCH   1   8
BRANCH   4  14
HETATM   14  N   UNL     1     -38.717 -48.723  12.172  1.00  0.00    -0.363 N 
HETATM   15  C   UNL     1     -37.955 -49.789  11.507  1.00  0.00     0.150 C 
HETATM   16  C   UNL     1     -37.751 -50.983  12.453  1.00  0.00     0.187 C 
HETATM   17  O   UNL     1     -37.164 -50.579  13.699  1.00  0.00    -0.388 OA
HETATM   18  C   UNL     1     -38.024 -49.633  14.360  1.00  0.00     0.187 C 
HETATM   19  C   UNL     1     -38.233 -48.372  13.512  1.00  0.00     0.150 C 
ENDBRANCH   4  14
TORSDOF 3
ENDMDL
MODEL 3
REMARK VINA RESULT:      -5.4      3.661      6.824
REMARK  3 active torsions:
REMARK  status: ('A' for Active; 'I' for Inactive)
REMARK    1  A    between atoms: C_2  and  C_3 
REMARK       I    between atoms: C_3  and  N_5 
REMARK    2  A    between atoms: N_5  and  C_6 
REMARK    3  A    between atoms: C_9  and  N_13 
ROOT
HETATM    1  C   UNL     1     -42.725 -51.332  12.982  1.00  0.00     0.050 A 
HETATM    2  C   UNL     1     -43.405 -50.135  13.124  1.00  0.00     0.035 A 
HETATM    3  C   UNL     1     -43.028 -49.021  12.376  1.00  0.00     0.051 A 
HETATM    4  C   UNL     1     -41.971 -49.088  11.472  1.00  0.00     0.103 A 
HETATM    5  N   UNL     1     -41.271 -50.240  11.357  1.00  0.00    -0.350 N 
ATOM      6  HN  UNL     1     -40.475 -50.303  10.723  1.00  0.00     0.166 HD
HETATM    7  C   UNL     1     -41.650 -51.317  12.105  1.00  0.00     0.119 A 
ENDROOT
BRANCH   1   8
HETATM    8  N   UNL     1     -43.067 -52.502  13.703  1.00  0.00    -0.326 N 
HETATM    9  C   UNL     1     -43.921 -53.488  13.231  1.00  0.00     0.221 C 
HETATM   10  O   UNL     1     -44.390 -53.539  12.099  1.00  0.00    -0.273 OA
HETATM   11  H   UNL     1     -42.570 -52.681  14.566  1.00  0.00     0.169 HD
BRANCH   9  12
HETATM   12  C   UNL     1     -44.242 -54.556  14.257  1.00  0.00     0.098 C 
HETATM   13  C   UNL     1     -45.530 -55.282  13.885  1.00  0.00     0.014 C 
ENDBRANCH   9  12
ENDBRANCH   1   8
BRANCH   4  14
HETATM   14  N   UNL     1     -41.598 -47.983  10.738  1.00  0.00    -0.363 N 
HETATM   15  C   UNL     1     -40.590 -47.020  11.203  1.00  0.00     0.150 C 
HETATM   16  C   UNL     1     -41.226 -45.644  11.453  1.00  0.00     0.187 C 
HETATM   17  O   UNL     1     -41.949 -45.176  10.305  1.00  0.00    -0.388 OA
HETATM   18  C   UNL     1     -43.005 -46.099   9.983  1.00  0.00     0.187 C 
HETATM   19  C   UNL     1     -42.454 -47.493   9.652  1.00  0.00     0.150 C 
ENDBRANCH   4  14
TORSDOF 3
ENDMDL
MODEL 4
REMARK VINA RESULT:      -5.0      3.374      4.217
REMARK  3 active torsions:
REMARK  status: ('A' for Active; 'I' for Inactive)
REMARK    1  A    between atoms: C_2  and  C_3 
REMARK       I    between atoms: C_3  and  N_5 
REMARK    2  A    between atoms: N_5  and  C_6 
REMARK    3  A    between atoms: C_9  and  N_13 
ROOT
HETATM    1  C   UNL     1     -41.589 -48.367  11.241  1.00  0.00     0.050 A 
HETATM    2  C   UNL     1     -42.757 -48.161  11.954  1.00  0.00     0.035 A 
HETATM    3  C   UNL     1     -43.381 -49.226  12.601  1.00  0.00     0.051 A 
HETATM    4  C   UNL     1     -42.845 -50.510  12.551  1.00  0.00     0.103 A 
HETATM    5  N   UNL     1     -41.727 -50.731  11.822  1.00  0.00    -0.350 N 
ATOM      6  HN  UNL     1     -41.333 -51.669  11.748  1.00  0.00     0.166 HD
HETATM    7  C   UNL     1     -41.135 -49.678  11.188  1.00  0.00     0.119 A 
ENDROOT
BRANCH   1   8
HETATM    8  N   UNL     1     -40.901 -47.326  10.572  1.00  0.00    -0.326 N 
HETATM    9  C   UNL     1     -40.217 -46.304  11.215  1.00  0.00     0.221 C 
HETATM   10  O   UNL     1     -40.018 -46.232  12.423  1.00  0.00    -0.273 OA
HETATM   11  H   UNL     1     -40.809 -47.397   9.567  1.00  0.00     0.169 HD
BRANCH   9  12
HETATM   12  C   UNL     1     -39.700 -45.234  10.274  1.00  0.00     0.098 C 
HETATM   13  C   UNL     1     -40.048 -43.847  10.803  1.00  0.00     0.014 C 
ENDBRANCH   9  12
ENDBRANCH   1   8
BRANCH   4  14
HETATM   14  N   UNL     1     -43.467 -51.561  13.189  1.00  0.00    -0.363 N 
HETATM   15  C   UNL     1     -42.940 -52.932  13.166  1.00  0.00     0.150 C 
HETATM   16  C   UNL     1     -43.896 -53.870  12.411  1.00  0.00     0.187 C 
HETATM   17  O   UNL     1     -45.231 -53.799  12.934  1.00  0.00    -0.388 OA
HETATM   18  C   UNL     1     -45.736 -52.458  12.807  1.00  0.00     0.187 C 
HETATM   19  C   UNL     1     -44.876 -51.455  13.588  1.00  0.00     0.150 C 
ENDBRANCH   4  14
TORSDOF 3
ENDMDL
MODEL 5
REMARK VINA RESULT:      -5.0      5.603      8.107
REMARK  3 active torsions:
REMARK  status: ('A' for Active; 'I' for Inactive)
REMARK    1  A    between atoms: C_2  and  C_3 
REMARK       I    between atoms: C_3  and  N_5 
REMARK    2  A    between atoms: N_5  and  C_6 
REMARK    3  A    between atoms: C_9  and  N_13 
ROOT
HETATM    1  C   UNL     1     -43.208 -47.702  10.863  1.00  0.00     0.050 A 
HETATM    2  C   UNL     1     -42.066 -48.208  10.266  1.00  0.00     0.035 A 
HETATM    3  C   UNL     1     -40.835 -48.114  10.914  1.00  0.00     0.051 A 
HETATM    4  C   UNL     1     -40.728 -47.520  12.168  1.00  0.00     0.103 A 
HETATM    5  N   UNL     1     -41.830 -46.984  12.742  1.00  0.00    -0.350 N 
ATOM      6  HN  UNL     1     -41.769 -46.518  13.648  1.00  0.00     0.166 HD
HETATM    7  C   UNL     1     -43.024 -47.077  12.089  1.00  0.00     0.119 A 
ENDROOT
BRANCH   1   8
HETATM    8  N   UNL     1     -44.488 -47.777  10.263  1.00  0.00    -0.326 N 
HETATM    9  C   UNL     1     -44.954 -46.889   9.304  1.00  0.00     0.221 C 
HETATM   10  O   UNL     1     -44.289 -46.009   8.768  1.00  0.00    -0.273 OA
HETATM   11  H   UNL     1     -45.052 -48.593  10.465  1.00  0.00     0.169 HD
BRANCH   9  12
HETATM   12  C   UNL     1     -46.411 -47.098   8.939  1.00  0.00     0.098 C 
HETATM   13  C   UNL     1     -46.708 -48.583   8.764  1.00  0.00     0.014 C 
ENDBRANCH   9  12
ENDBRANCH   1   8
BRANCH   4  14
HETATM   14  N   UNL     1     -39.509 -47.426  12.803  1.00  0.00    -0.363 N 
HETATM   15  C   UNL     1     -38.618 -48.579  12.994  1.00  0.00     0.150 C 
HETATM   16  C   UNL     1     -38.468 -48.910  14.487  1.00  0.00     0.187 C 
HETATM   17  O   UNL     1     -38.059 -47.763  15.247  1.00  0.00    -0.388 OA
HETATM   18  C   UNL     1     -39.040 -46.718  15.122  1.00  0.00     0.187 C 
HETATM   19  C   UNL     1     -39.210 -46.275  13.663  1.00  0.00     0.150 C 
ENDBRANCH   4  14
TORSDOF 3
ENDMDL
MODEL 6
REMARK VINA RESULT:      -5.0      3.451      4.671
REMARK  3 active torsions:
REMARK  status: ('A' for Active; 'I' for Inactive)
REMARK    1  A    between atoms: C_2  and  C_3 
REMARK       I    between atoms: C_3  and  N_5 
REMARK    2  A    between atoms: N_5  and  C_6 
REMARK    3  A    between atoms: C_9  and  N_13 
ROOT
HETATM    1  C   UNL     1     -41.105 -48.551  11.103  1.00  0.00     0.050 A 
HETATM    2  C   UNL     1     -42.217 -48.710  11.912  1.00  0.00     0.035 A 
HETATM    3  C   UNL     1     -42.503 -49.952  12.477  1.00  0.00     0.051 A 
HETATM    4  C   UNL     1     -41.680 -51.050  12.247  1.00  0.00     0.103 A 
HETATM    5  N   UNL     1     -40.615 -50.918  11.424  1.00  0.00    -0.350 N 
ATOM      6  HN  UNL     1     -40.015 -51.717  11.219  1.00  0.00     0.166 HD
HETATM    7  C   UNL     1     -40.356 -49.697  10.873  1.00  0.00     0.119 A 
ENDROOT
BRANCH   1   8
HETATM    8  N   UNL     1     -40.754 -47.314  10.511  1.00  0.00    -0.326 N 
HETATM    9  C   UNL     1     -40.059 -46.306  11.163  1.00  0.00     0.221 C 
HETATM   10  O   UNL     1     -39.558 -46.395  12.280  1.00  0.00    -0.273 OA
HETATM   11  H   UNL     1     -40.922 -47.206   9.519  1.00  0.00     0.169 HD
BRANCH   9  12
HETATM   12  C   UNL     1     -39.946 -45.027  10.358  1.00  0.00     0.098 C 
HETATM   13  C   UNL     1     -40.346 -43.826  11.208  1.00  0.00     0.014 C 
ENDBRANCH   9  12
ENDBRANCH   1   8
BRANCH   4  14
HETATM   14  N   UNL     1     -41.969 -52.278  12.804  1.00  0.00    -0.363 N 
HETATM   15  C   UNL     1     -42.886 -52.442  13.940  1.00  0.00     0.150 C 
HETATM   16  C   UNL     1     -42.131 -52.954  15.178  1.00  0.00     0.187 C 
HETATM   17  O   UNL     1     -41.388 -54.148  14.890  1.00  0.00    -0.388 OA
HETATM   18  C   UNL     1     -40.419 -53.884  13.859  1.00  0.00     0.187 C 
HETATM   19  C   UNL     1     -41.091 -53.427  12.557  1.00  0.00     0.150 C 
ENDBRANCH   4  14
TORSDOF 3
ENDMDL
MODEL 7
REMARK VINA RESULT:      -5.0      3.464      4.305
REMARK  3 active torsions:
REMARK  status: ('A' for Active; 'I' for Inactive)
REMARK    1  A    between atoms: C_2  and  C_3 
REMARK       I    between atoms: C_3  and  N_5 
REMARK    2  A    between atoms: N_5  and  C_6 
REMARK    3  A    between atoms: C_9  and  N_13 
ROOT
HETATM    1  C   UNL     1     -41.017 -48.747  11.801  1.00  0.00     0.050 A 
HETATM    2  C   UNL     1     -42.086 -49.042  12.629  1.00  0.00     0.035 A 
HETATM    3  C   UNL     1     -42.478 -50.365  12.826  1.00  0.00     0.051 A 
HETATM    4  C   UNL     1     -41.805 -51.413  12.203  1.00  0.00     0.103 A 
HETATM    5  N   UNL     1     -40.786 -51.134  11.357  1.00  0.00    -0.350 N 
ATOM      6  HN  UNL     1     -40.298 -51.884  10.868  1.00  0.00     0.166 HD
HETATM    7  C   UNL     1     -40.422 -49.832  11.172  1.00  0.00     0.119 A 
ENDROOT
BRANCH   1   8
HETATM    8  N   UNL     1     -40.562 -47.427  11.571  1.00  0.00    -0.326 N 
HETATM    9  C   UNL     1     -41.121 -46.559  10.645  1.00  0.00     0.221 C 
HETATM   10  O   UNL     1     -42.141 -46.771   9.998  1.00  0.00    -0.273 OA
HETATM   11  H   UNL     1     -39.859 -47.058  12.200  1.00  0.00     0.169 HD
BRANCH   9  12
HETATM   12  C   UNL     1     -40.352 -45.262  10.486  1.00  0.00     0.098 C 
HETATM   13  C   UNL     1     -39.686 -44.873  11.801  1.00  0.00     0.014 C 
ENDBRANCH   9  12
ENDBRANCH   1   8
BRANCH   4  14
HETATM   14  N   UNL     1     -42.199 -52.719  12.396  1.00  0.00    -0.363 N 
HETATM   15  C   UNL     1     -43.607 -53.115  12.538  1.00  0.00     0.150 C 
HETATM   16  C   UNL     1     -43.878 -53.667  13.947  1.00  0.00     0.187 C 
HETATM   17  O   UNL     1     -42.969 -54.725  14.285  1.00  0.00    -0.388 OA
HETATM   18  C   UNL     1     -41.616 -54.237  14.254  1.00  0.00     0.187 C 
HETATM   19  C   UNL     1     -41.234 -53.722  12.859  1.00  0.00     0.150 C 
ENDBRANCH   4  14
TORSDOF 3
ENDMDL
MODEL 8
REMARK VINA RESULT:      -4.8      1.758      6.893
REMARK  3 active torsions:
REMARK  status: ('A' for Active; 'I' for Inactive)
REMARK    1  A    between atoms: C_2  and  C_3 
REMARK       I    between atoms: C_3  and  N_5 
REMARK    2  A    between atoms: N_5  and  C_6 
REMARK    3  A    between atoms: C_9  and  N_13 
ROOT
HETATM    1  C   UNL     1     -42.108 -53.273  12.883  1.00  0.00     0.050 A 
HETATM    2  C   UNL     1     -40.953 -53.561  13.589  1.00  0.00     0.035 A 
HETATM    3  C   UNL     1     -39.859 -52.699  13.527  1.00  0.00     0.051 A 
HETATM    4  C   UNL     1     -39.905 -51.536  12.764  1.00  0.00     0.103 A 
HETATM    5  N   UNL     1     -41.013 -51.267  12.035  1.00  0.00    -0.350 N 
ATOM      6  HN  UNL     1     -41.057 -50.435  11.446  1.00  0.00     0.166 HD
HETATM    7  C   UNL     1     -42.070 -52.127  12.102  1.00  0.00     0.119 A 
ENDROOT
BRANCH   1   8
HETATM    8  N   UNL     1     -43.257 -54.100  12.915  1.00  0.00    -0.326 N 
HETATM    9  C   UNL     1     -44.301 -53.952  13.817  1.00  0.00     0.221 C 
HETATM   10  O   UNL     1     -44.425 -53.028  14.613  1.00  0.00    -0.273 OA
HETATM   11  H   UNL     1     -43.373 -54.768  12.163  1.00  0.00     0.169 HD
BRANCH   9  12
HETATM   12  C   UNL     1     -45.333 -55.060  13.739  1.00  0.00     0.098 C 
HETATM   13  C   UNL     1     -46.529 -54.735  14.626  1.00  0.00     0.014 C 
ENDBRANCH   9  12
ENDBRANCH   1   8
BRANCH   4  14
HETATM   14  N   UNL     1     -38.820 -50.689  12.701  1.00  0.00    -0.363 N 
HETATM   15  C   UNL     1     -37.633 -50.850  13.552  1.00  0.00     0.150 C 
HETATM   16  C   UNL     1     -37.490 -49.662  14.517  1.00  0.00     0.187 C 
HETATM   17  O   UNL     1     -37.505 -48.408  13.820  1.00  0.00    -0.388 OA
HETATM   18  C   UNL     1     -38.749 -48.256  13.113  1.00  0.00     0.187 C 
HETATM   19  C   UNL     1     -38.947 -49.368  12.075  1.00  0.00     0.150 C 
ENDBRANCH   4  14
TORSDOF 3
ENDMDL
MODEL 9
REMARK VINA RESULT:      -4.7      3.986      6.897
REMARK  3 active torsions:
REMARK  status: ('A' for Active; 'I' for Inactive)
REMARK    1  A    between atoms: C_2  and  C_3 
REMARK       I    between atoms: C_3  and  N_5 
REMARK    2  A    between atoms: N_5  and  C_6 
REMARK    3  A    between atoms: C_9  and  N_13 
ROOT
HETATM    1  C   UNL     1     -43.196 -53.734  14.696  1.00  0.00     0.050 A 
HETATM    2  C   UNL     1     -43.353 -54.700  15.676  1.00  0.00     0.035 A 
HETATM    3  C   UNL     1     -42.249 -55.402  16.154  1.00  0.00     0.051 A 
HETATM    4  C   UNL     1     -40.971 -55.147  15.665  1.00  0.00     0.103 A 
HETATM    5  N   UNL     1     -40.810 -54.236  14.677  1.00  0.00    -0.350 N 
ATOM      6  HN  UNL     1     -39.886 -54.055  14.284  1.00  0.00     0.166 HD
HETATM    7  C   UNL     1     -41.905 -53.565  14.216  1.00  0.00     0.119 A 
ENDROOT
BRANCH   1   8
HETATM    8  N   UNL     1     -44.275 -52.978  14.179  1.00  0.00    -0.326 N 
HETATM    9  C   UNL     1     -45.017 -53.339  13.064  1.00  0.00     0.221 C 
HETATM   10  O   UNL     1     -44.920 -54.402  12.459  1.00  0.00    -0.273 OA
HETATM   11  H   UNL     1     -44.594 -52.186  14.722  1.00  0.00     0.169 HD
BRANCH   9  12
HETATM   12  C   UNL     1     -46.013 -52.283  12.628  1.00  0.00     0.098 C 
HETATM   13  C   UNL     1     -46.547 -51.523  13.838  1.00  0.00     0.014 C 
ENDBRANCH   9  12
ENDBRANCH   1   8
BRANCH   4  14
HETATM   14  N   UNL     1     -39.881 -55.847  16.137  1.00  0.00    -0.363 N 
HETATM   15  C   UNL     1     -39.988 -56.885  17.171  1.00  0.00     0.150 C 
HETATM   16  C   UNL     1     -39.256 -56.454  18.452  1.00  0.00     0.187 C 
HETATM   17  O   UNL     1     -37.897 -56.076  18.186  1.00  0.00    -0.388 OA
HETATM   18  C   UNL     1     -37.869 -54.969  17.267  1.00  0.00     0.187 C 
HETATM   19  C   UNL     1     -38.523 -55.331  15.927  1.00  0.00     0.150 C 
ENDBRANCH   4  14
TORSDOF 3
ENDMDL
