MODEL 1
REMARK VINA RESULT:      -6.5      0.000      0.000
REMARK  3 active torsions:
REMARK  status: ('A' for Active; 'I' for Inactive)
REMARK       I    between atoms: N_8  and  C_9 
REMARK       I    between atoms: C_9  and  N_11 
REMARK    1  A    between atoms: N_11  and  C_12 
REMARK    2  A    between atoms: C_12  and  C_13 
REMARK    3  A    between atoms: C_13  and  N_14 
ROOT
HETATM    1  C   UNL     1     -44.381 -45.721   8.984  1.00  0.00     0.078 C 
HETATM    2  C   UNL     1     -43.553 -46.710   9.716  1.00  0.00     0.066 A 
HETATM    3  N   UNL     1     -44.024 -47.819  10.247  1.00  0.00    -0.296 N 
ATOM      4  HN  UNL     1     -45.011 -48.078  10.251  1.00  0.00     0.187 HD
HETATM    5  N   UNL     1     -43.025 -48.586  10.797  1.00  0.00    -0.279 N 
ATOM      6  HN  UNL     1     -43.180 -49.486  11.252  1.00  0.00     0.189 HD
HETATM    7  C   UNL     1     -41.847 -48.023  10.666  1.00  0.00     0.169 A 
HETATM    8  N   UNL     1     -40.631 -48.520  11.035  1.00  0.00    -0.288 N 
HETATM    9  C   UNL     1     -40.415 -49.802  11.448  1.00  0.00     0.322 C 
HETATM   10  O   UNL     1     -39.282 -50.164  11.744  1.00  0.00    -0.247 OA
HETATM   11  N   UNL     1     -41.489 -50.647  11.438  1.00  0.00    -0.341 N 
HETATM   12  S   UNL     1     -41.854 -46.498   9.909  1.00  0.00    -0.038 SA
HETATM   13  H   UNL     1     -39.812 -47.941  10.934  1.00  0.00     0.172 HD
HETATM   14  H   UNL     1     -42.412 -50.220  11.441  1.00  0.00     0.164 HD
ENDROOT
BRANCH  11  15
HETATM   15  C   UNL     1     -41.372 -52.032  11.822  1.00  0.00     0.144 C 
BRANCH  15  16
HETATM   16  C   UNL     1     -41.911 -52.317  13.234  1.00  0.00     0.145 C 
BRANCH  16  17
HETATM   17  N   UNL     1     -43.368 -52.182  13.288  1.00  0.00    -0.351 N 
HETATM   18  C   UNL     1     -44.167 -53.191  12.596  1.00  0.00     0.126 C 
HETATM   19  C   UNL     1     -45.095 -53.929  13.544  1.00  0.00     0.020 C 
HETATM   20  C   UNL     1     -46.433 -53.223  13.749  1.00  0.00     0.002 C 
HETATM   21  C   UNL     1     -46.401 -51.695  13.699  1.00  0.00     0.009 C 
HETATM   22  C   UNL     1     -45.244 -51.066  14.452  1.00  0.00     0.103 C 
HETATM   23  C   UNL     1     -43.912 -50.988  13.723  1.00  0.00     0.219 C 
HETATM   24  O   UNL     1     -43.286 -49.925  13.693  1.00  0.00    -0.273 OA
ENDBRANCH  16  17
ENDBRANCH  15  16
ENDBRANCH  11  15
TORSDOF 3
ENDMDL
MODEL 2
REMARK VINA RESULT:      -6.2      1.341      1.817
REMARK  3 active torsions:
REMARK  status: ('A' for Active; 'I' for Inactive)
REMARK       I    between atoms: N_8  and  C_9 
REMARK       I    between atoms: C_9  and  N_11 
REMARK    1  A    between atoms: N_11  and  C_12 
REMARK    2  A    between atoms: C_12  and  C_13 
REMARK    3  A    between atoms: C_13  and  N_14 
ROOT
HETATM    1  C   UNL     1     -44.458 -45.853   9.023  1.00  0.00     0.078 C 
HETATM    2  C   UNL     1     -43.679 -46.835   9.815  1.00  0.00     0.066 A 
HETATM    3  N   UNL     1     -44.217 -47.793  10.541  1.00  0.00    -0.296 N 
ATOM      4  HN  UNL     1     -45.221 -47.918  10.669  1.00  0.00     0.187 HD
HETATM    5  N   UNL     1     -43.262 -48.603  11.106  1.00  0.00    -0.279 N 
ATOM      6  HN  UNL     1     -43.473 -49.406  11.700  1.00  0.00     0.189 HD
HETATM    7  C   UNL     1     -42.047 -48.220  10.792  1.00  0.00     0.169 A 
HETATM    8  N   UNL     1     -40.865 -48.818  11.122  1.00  0.00    -0.288 N 
HETATM    9  C   UNL     1     -40.758 -50.051  11.696  1.00  0.00     0.322 C 
HETATM   10  O   UNL     1     -39.650 -50.515  11.941  1.00  0.00    -0.247 OA
HETATM   11  N   UNL     1     -41.918 -50.742  11.903  1.00  0.00    -0.341 N 
HETATM   12  S   UNL     1     -41.955 -46.822   9.825  1.00  0.00    -0.038 SA
HETATM   13  H   UNL     1     -40.000 -48.370  10.865  1.00  0.00     0.172 HD
HETATM   14  H   UNL     1     -42.779 -50.202  11.925  1.00  0.00     0.164 HD
ENDROOT
BRANCH  11  15
HETATM   15  C   UNL     1     -41.924 -52.067  12.473  1.00  0.00     0.144 C 
BRANCH  15  16
HETATM   16  C   UNL     1     -43.257 -52.806  12.273  1.00  0.00     0.145 C 
BRANCH  16  17
HETATM   17  N   UNL     1     -44.235 -52.431  13.297  1.00  0.00    -0.351 N 
HETATM   18  C   UNL     1     -43.780 -52.392  14.685  1.00  0.00     0.126 C 
HETATM   19  C   UNL     1     -43.943 -51.013  15.298  1.00  0.00     0.020 C 
HETATM   20  C   UNL     1     -45.326 -50.780  15.899  1.00  0.00     0.002 C 
HETATM   21  C   UNL     1     -46.491 -51.478  15.198  1.00  0.00     0.009 C 
HETATM   22  C   UNL     1     -46.449 -51.398  13.683  1.00  0.00     0.103 C 
HETATM   23  C   UNL     1     -45.577 -52.416  12.965  1.00  0.00     0.219 C 
HETATM   24  O   UNL     1     -46.031 -53.057  12.014  1.00  0.00    -0.273 OA
ENDBRANCH  16  17
ENDBRANCH  15  16
ENDBRANCH  11  15
TORSDOF 3
ENDMDL
MODEL 3
REMARK VINA RESULT:      -6.2      3.203      6.719
REMARK  3 active torsions:
REMARK  status: ('A' for Active; 'I' for Inactive)
REMARK       I    between atoms: N_8  and  C_9 
REMARK       I    between atoms: C_9  and  N_11 
REMARK    1  A    between atoms: N_11  and  C_12 
REMARK    2  A    between atoms: C_12  and  C_13 
REMARK    3  A    between atoms: C_13  and  N_14 
ROOT
HETATM    1  C   UNL     1     -44.992 -54.778  13.489  1.00  0.00     0.078 C 
HETATM    2  C   UNL     1     -43.827 -53.992  13.018  1.00  0.00     0.066 A 
HETATM    3  N   UNL     1     -43.853 -53.182  11.980  1.00  0.00    -0.296 N 
ATOM      4  HN  UNL     1     -44.662 -53.059  11.370  1.00  0.00     0.187 HD
HETATM    5  N   UNL     1     -42.658 -52.523  11.816  1.00  0.00    -0.279 N 
ATOM      6  HN  UNL     1     -42.476 -51.848  11.074  1.00  0.00     0.189 HD
HETATM    7  C   UNL     1     -41.781 -52.868  12.728  1.00  0.00     0.169 A 
HETATM    8  N   UNL     1     -40.520 -52.377  12.911  1.00  0.00    -0.288 N 
HETATM    9  C   UNL     1     -40.017 -51.284  12.267  1.00  0.00     0.322 C 
HETATM   10  O   UNL     1     -38.876 -50.906  12.509  1.00  0.00    -0.247 OA
HETATM   11  N   UNL     1     -40.860 -50.618  11.424  1.00  0.00    -0.341 N 
HETATM   12  S   UNL     1     -42.309 -54.050  13.832  1.00  0.00    -0.038 SA
HETATM   13  H   UNL     1     -39.930 -52.788  13.616  1.00  0.00     0.172 HD
HETATM   14  H   UNL     1     -41.670 -51.129  11.082  1.00  0.00     0.164 HD
ENDROOT
BRANCH  11  15
HETATM   15  C   UNL     1     -40.449 -49.430  10.716  1.00  0.00     0.144 C 
BRANCH  15  16
HETATM   16  C   UNL     1     -41.493 -48.303  10.764  1.00  0.00     0.145 C 
BRANCH  16  17
HETATM   17  N   UNL     1     -40.970 -47.119  11.449  1.00  0.00    -0.351 N 
HETATM   18  C   UNL     1     -40.774 -47.204  12.894  1.00  0.00     0.126 C 
HETATM   19  C   UNL     1     -39.327 -46.969  13.287  1.00  0.00     0.020 C 
HETATM   20  C   UNL     1     -38.985 -45.494  13.476  1.00  0.00     0.002 C 
HETATM   21  C   UNL     1     -39.732 -44.510  12.576  1.00  0.00     0.009 C 
HETATM   22  C   UNL     1     -39.839 -44.943  11.125  1.00  0.00     0.103 C 
HETATM   23  C   UNL     1     -40.959 -45.910  10.778  1.00  0.00     0.219 C 
HETATM   24  O   UNL     1     -41.699 -45.679   9.818  1.00  0.00    -0.273 OA
ENDBRANCH  16  17
ENDBRANCH  15  16
ENDBRANCH  11  15
TORSDOF 3
ENDMDL
MODEL 4
REMARK VINA RESULT:      -6.1      2.435      3.586
REMARK  3 active torsions:
REMARK  status: ('A' for Active; 'I' for Inactive)
REMARK       I    between atoms: N_8  and  C_9 
REMARK       I    between atoms: C_9  and  N_11 
REMARK    1  A    between atoms: N_11  and  C_12 
REMARK    2  A    between atoms: C_12  and  C_13 
REMARK    3  A    between atoms: C_13  and  N_14 
ROOT
HETATM    1  C   UNL     1     -46.488 -47.756   8.815  1.00  0.00     0.078 C 
HETATM    2  C   UNL     1     -45.170 -47.481   9.435  1.00  0.00     0.066 A 
HETATM    3  N   UNL     1     -44.663 -48.175  10.433  1.00  0.00    -0.296 N 
ATOM      4  HN  UNL     1     -45.152 -48.934  10.909  1.00  0.00     0.187 HD
HETATM    5  N   UNL     1     -43.397 -47.752  10.757  1.00  0.00    -0.279 N 
ATOM      6  HN  UNL     1     -42.830 -48.164  11.499  1.00  0.00     0.189 HD
HETATM    7  C   UNL     1     -43.005 -46.756  10.000  1.00  0.00     0.169 A 
HETATM    8  N   UNL     1     -41.792 -46.127   9.998  1.00  0.00    -0.288 N 
HETATM    9  C   UNL     1     -40.695 -46.566  10.678  1.00  0.00     0.322 C 
HETATM   10  O   UNL     1     -39.641 -45.944  10.602  1.00  0.00    -0.247 OA
HETATM   11  N   UNL     1     -40.818 -47.742  11.363  1.00  0.00    -0.341 N 
HETATM   12  S   UNL     1     -44.150 -46.215   8.863  1.00  0.00    -0.038 SA
HETATM   13  H   UNL     1     -41.656 -45.326   9.402  1.00  0.00     0.172 HD
HETATM   14  H   UNL     1     -41.761 -48.045  11.593  1.00  0.00     0.164 HD
ENDROOT
BRANCH  11  15
HETATM   15  C   UNL     1     -39.715 -48.319  12.091  1.00  0.00     0.144 C 
BRANCH  15  16
HETATM   16  C   UNL     1     -40.146 -49.021  13.389  1.00  0.00     0.145 C 
BRANCH  16  17
HETATM   17  N   UNL     1     -40.498 -50.422  13.147  1.00  0.00    -0.351 N 
HETATM   18  C   UNL     1     -39.407 -51.357  12.877  1.00  0.00     0.126 C 
HETATM   19  C   UNL     1     -39.352 -52.478  13.900  1.00  0.00     0.020 C 
HETATM   20  C   UNL     1     -40.254 -53.658  13.549  1.00  0.00     0.002 C 
HETATM   21  C   UNL     1     -41.550 -53.319  12.813  1.00  0.00     0.009 C 
HETATM   22  C   UNL     1     -42.289 -52.114  13.366  1.00  0.00     0.103 C 
HETATM   23  C   UNL     1     -41.819 -50.747  12.899  1.00  0.00     0.219 C 
HETATM   24  O   UNL     1     -42.636 -49.920  12.485  1.00  0.00    -0.273 OA
ENDBRANCH  16  17
ENDBRANCH  15  16
ENDBRANCH  11  15
TORSDOF 3
ENDMDL
MODEL 5
REMARK VINA RESULT:      -5.8      4.610      6.693
REMARK  3 active torsions:
REMARK  status: ('A' for Active; 'I' for Inactive)
REMARK       I    between atoms: N_8  and  C_9 
REMARK       I    between atoms: C_9  and  N_11 
REMARK    1  A    between atoms: N_11  and  C_12 
REMARK    2  A    between atoms: C_12  and  C_13 
REMARK    3  A    between atoms: C_13  and  N_14 
ROOT
HETATM    1  C   UNL     1     -39.990 -56.377  18.463  1.00  0.00     0.078 C 
HETATM    2  C   UNL     1     -40.205 -55.766  17.130  1.00  0.00     0.066 A 
HETATM    3  N   UNL     1     -41.360 -55.762  16.496  1.00  0.00    -0.296 N 
ATOM      4  HN  UNL     1     -42.203 -56.222  16.840  1.00  0.00     0.187 HD
HETATM    5  N   UNL     1     -41.292 -55.061  15.316  1.00  0.00    -0.279 N 
ATOM      6  HN  UNL     1     -42.081 -54.934  14.681  1.00  0.00     0.189 HD
HETATM    7  C   UNL     1     -40.092 -54.576  15.103  1.00  0.00     0.169 A 
HETATM    8  N   UNL     1     -39.675 -53.785  14.072  1.00  0.00    -0.288 N 
HETATM    9  C   UNL     1     -40.508 -53.201  13.163  1.00  0.00     0.322 C 
HETATM   10  O   UNL     1     -40.042 -52.491  12.278  1.00  0.00    -0.247 OA
HETATM   11  N   UNL     1     -41.849 -53.389  13.339  1.00  0.00    -0.341 N 
HETATM   12  S   UNL     1     -38.934 -54.964  16.288  1.00  0.00    -0.038 SA
HETATM   13  H   UNL     1     -38.700 -53.542  14.002  1.00  0.00     0.172 HD
HETATM   14  H   UNL     1     -42.133 -54.181  13.910  1.00  0.00     0.164 HD
ENDROOT
BRANCH  11  15
HETATM   15  C   UNL     1     -42.825 -52.793  12.459  1.00  0.00     0.144 C 
BRANCH  15  16
HETATM   16  C   UNL     1     -44.212 -53.447  12.560  1.00  0.00     0.145 C 
BRANCH  16  17
HETATM   17  N   UNL     1     -44.880 -53.092  13.815  1.00  0.00    -0.351 N 
HETATM   18  C   UNL     1     -45.165 -51.679  14.054  1.00  0.00     0.126 C 
HETATM   19  C   UNL     1     -46.650 -51.421  14.230  1.00  0.00     0.020 C 
HETATM   20  C   UNL     1     -47.128 -51.608  15.667  1.00  0.00     0.002 C 
HETATM   21  C   UNL     1     -46.409 -52.684  16.480  1.00  0.00     0.009 C 
HETATM   22  C   UNL     1     -46.168 -53.982  15.730  1.00  0.00     0.103 C 
HETATM   23  C   UNL     1     -44.949 -54.035  14.824  1.00  0.00     0.219 C 
HETATM   24  O   UNL     1     -44.167 -54.987  14.895  1.00  0.00    -0.273 OA
ENDBRANCH  16  17
ENDBRANCH  15  16
ENDBRANCH  11  15
TORSDOF 3
ENDMDL
MODEL 6
REMARK VINA RESULT:      -5.7      4.511      5.670
REMARK  3 active torsions:
REMARK  status: ('A' for Active; 'I' for Inactive)
REMARK       I    between atoms: N_8  and  C_9 
REMARK       I    between atoms: C_9  and  N_11 
REMARK    1  A    between atoms: N_11  and  C_12 
REMARK    2  A    between atoms: C_12  and  C_13 
REMARK    3  A    between atoms: C_13  and  N_14 
ROOT
HETATM    1  C   UNL     1     -46.356 -48.599   8.148  1.00  0.00     0.078 C 
HETATM    2  C   UNL     1     -45.261 -47.817   8.769  1.00  0.00     0.066 A 
HETATM    3  N   UNL     1     -45.376 -47.153   9.901  1.00  0.00    -0.296 N 
ATOM      4  HN  UNL     1     -46.244 -47.072  10.431  1.00  0.00     0.187 HD
HETATM    5  N   UNL     1     -44.186 -46.584  10.282  1.00  0.00    -0.279 N 
ATOM      6  HN  UNL     1     -44.062 -46.033  11.132  1.00  0.00     0.189 HD
HETATM    7  C   UNL     1     -43.227 -46.831   9.421  1.00  0.00     0.169 A 
HETATM    8  N   UNL     1     -41.910 -46.478   9.504  1.00  0.00    -0.288 N 
HETATM    9  C   UNL     1     -41.321 -45.951  10.615  1.00  0.00     0.322 C 
HETATM   10  O   UNL     1     -40.126 -45.680  10.600  1.00  0.00    -0.247 OA
HETATM   11  N   UNL     1     -42.102 -45.821  11.729  1.00  0.00    -0.341 N 
HETATM   12  S   UNL     1     -43.694 -47.735   8.057  1.00  0.00    -0.038 SA
HETATM   13  H   UNL     1     -41.299 -46.679   8.729  1.00  0.00     0.172 HD
HETATM   14  H   UNL     1     -43.109 -45.812  11.588  1.00  0.00     0.164 HD
ENDROOT
BRANCH  11  15
HETATM   15  C   UNL     1     -41.578 -45.307  12.971  1.00  0.00     0.144 C 
BRANCH  15  16
HETATM   16  C   UNL     1     -41.596 -46.340  14.109  1.00  0.00     0.145 C 
BRANCH  16  17
HETATM   17  N   UNL     1     -40.377 -47.152  14.114  1.00  0.00    -0.351 N 
HETATM   18  C   UNL     1     -40.467 -48.511  13.585  1.00  0.00     0.126 C 
HETATM   19  C   UNL     1     -39.535 -48.725  12.405  1.00  0.00     0.020 C 
HETATM   20  C   UNL     1     -38.125 -49.137  12.819  1.00  0.00     0.002 C 
HETATM   21  C   UNL     1     -37.614 -48.557  14.138  1.00  0.00     0.009 C 
HETATM   22  C   UNL     1     -37.914 -47.083  14.333  1.00  0.00     0.103 C 
HETATM   23  C   UNL     1     -39.294 -46.727  14.861  1.00  0.00     0.219 C 
HETATM   24  O   UNL     1     -39.410 -45.947  15.810  1.00  0.00    -0.273 OA
ENDBRANCH  16  17
ENDBRANCH  15  16
ENDBRANCH  11  15
TORSDOF 3
ENDMDL
MODEL 7
REMARK VINA RESULT:      -5.7      3.778      5.100
REMARK  3 active torsions:
REMARK  status: ('A' for Active; 'I' for Inactive)
REMARK       I    between atoms: N_8  and  C_9 
REMARK       I    between atoms: C_9  and  N_11 
REMARK    1  A    between atoms: N_11  and  C_12 
REMARK    2  A    between atoms: C_12  and  C_13 
REMARK    3  A    between atoms: C_13  and  N_14 
ROOT
HETATM    1  C   UNL     1     -46.225 -48.251   8.359  1.00  0.00     0.078 C 
HETATM    2  C   UNL     1     -45.053 -47.644   9.035  1.00  0.00     0.066 A 
HETATM    3  N   UNL     1     -45.038 -47.274  10.299  1.00  0.00    -0.296 N 
ATOM      4  HN  UNL     1     -45.847 -47.322  10.919  1.00  0.00     0.187 HD
HETATM    5  N   UNL     1     -43.801 -46.816  10.682  1.00  0.00    -0.279 N 
ATOM      6  HN  UNL     1     -43.580 -46.488  11.623  1.00  0.00     0.189 HD
HETATM    7  C   UNL     1     -42.939 -46.850   9.694  1.00  0.00     0.169 A 
HETATM    8  N   UNL     1     -41.612 -46.530   9.724  1.00  0.00    -0.288 N 
HETATM    9  C   UNL     1     -40.902 -46.289  10.864  1.00  0.00     0.322 C 
HETATM   10  O   UNL     1     -39.707 -46.024  10.793  1.00  0.00    -0.247 OA
HETATM   11  N   UNL     1     -41.565 -46.430  12.050  1.00  0.00    -0.341 N 
HETATM   12  S   UNL     1     -43.562 -47.395   8.208  1.00  0.00    -0.038 SA
HETATM   13  H   UNL     1     -41.085 -46.539   8.865  1.00  0.00     0.172 HD
HETATM   14  H   UNL     1     -42.581 -46.386  12.019  1.00  0.00     0.164 HD
ENDROOT
BRANCH  11  15
HETATM   15  C   UNL     1     -40.908 -46.234  13.319  1.00  0.00     0.144 C 
BRANCH  15  16
HETATM   16  C   UNL     1     -40.890 -47.498  14.194  1.00  0.00     0.145 C 
BRANCH  16  17
HETATM   17  N   UNL     1     -39.955 -48.496  13.672  1.00  0.00    -0.351 N 
HETATM   18  C   UNL     1     -38.530 -48.172  13.707  1.00  0.00     0.126 C 
HETATM   19  C   UNL     1     -37.741 -49.171  14.535  1.00  0.00     0.020 C 
HETATM   20  C   UNL     1     -37.292 -50.393  13.738  1.00  0.00     0.002 C 
HETATM   21  C   UNL     1     -38.235 -50.854  12.626  1.00  0.00     0.009 C 
HETATM   22  C   UNL     1     -39.702 -50.867  13.014  1.00  0.00     0.103 C 
HETATM   23  C   UNL     1     -40.449 -49.546  12.921  1.00  0.00     0.219 C 
HETATM   24  O   UNL     1     -41.537 -49.491  12.341  1.00  0.00    -0.273 OA
ENDBRANCH  16  17
ENDBRANCH  15  16
ENDBRANCH  11  15
TORSDOF 3
ENDMDL
MODEL 8
REMARK VINA RESULT:      -5.6      3.100      6.019
REMARK  3 active torsions:
REMARK  status: ('A' for Active; 'I' for Inactive)
REMARK       I    between atoms: N_8  and  C_9 
REMARK       I    between atoms: C_9  and  N_11 
REMARK    1  A    between atoms: N_11  and  C_12 
REMARK    2  A    between atoms: C_12  and  C_13 
REMARK    3  A    between atoms: C_13  and  N_14 
ROOT
HETATM    1  C   UNL     1     -46.538 -51.655  12.859  1.00  0.00     0.078 C 
HETATM    2  C   UNL     1     -45.096 -51.986  12.774  1.00  0.00     0.066 A 
HETATM    3  N   UNL     1     -44.132 -51.088  12.739  1.00  0.00    -0.296 N 
ATOM      4  HN  UNL     1     -44.290 -50.080  12.716  1.00  0.00     0.187 HD
HETATM    5  N   UNL     1     -42.890 -51.673  12.738  1.00  0.00    -0.279 N 
ATOM      6  HN  UNL     1     -42.013 -51.152  12.720  1.00  0.00     0.189 HD
HETATM    7  C   UNL     1     -42.965 -52.983  12.763  1.00  0.00     0.169 A 
HETATM    8  N   UNL     1     -41.941 -53.883  12.829  1.00  0.00    -0.288 N 
HETATM    9  C   UNL     1     -40.639 -53.555  13.072  1.00  0.00     0.322 C 
HETATM   10  O   UNL     1     -39.789 -54.436  13.130  1.00  0.00    -0.247 OA
HETATM   11  N   UNL     1     -40.366 -52.238  13.313  1.00  0.00    -0.341 N 
HETATM   12  S   UNL     1     -44.543 -53.618  12.742  1.00  0.00    -0.038 SA
HETATM   13  H   UNL     1     -42.148 -54.867  12.771  1.00  0.00     0.172 HD
HETATM   14  H   UNL     1     -41.050 -51.558  12.991  1.00  0.00     0.164 HD
ENDROOT
BRANCH  11  15
HETATM   15  C   UNL     1     -39.032 -51.779  13.615  1.00  0.00     0.144 C 
BRANCH  15  16
HETATM   16  C   UNL     1     -38.513 -50.729  12.619  1.00  0.00     0.145 C 
BRANCH  16  17
HETATM   17  N   UNL     1     -39.154 -49.430  12.830  1.00  0.00    -0.351 N 
HETATM   18  C   UNL     1     -38.958 -48.781  14.125  1.00  0.00     0.126 C 
HETATM   19  C   UNL     1     -38.289 -47.425  13.986  1.00  0.00     0.020 C 
HETATM   20  C   UNL     1     -39.276 -46.289  13.732  1.00  0.00     0.002 C 
HETATM   21  C   UNL     1     -40.519 -46.648  12.916  1.00  0.00     0.009 C 
HETATM   22  C   UNL     1     -40.243 -47.516  11.703  1.00  0.00     0.103 C 
HETATM   23  C   UNL     1     -40.128 -49.013  11.941  1.00  0.00     0.219 C 
HETATM   24  O   UNL     1     -40.759 -49.802  11.233  1.00  0.00    -0.273 OA
ENDBRANCH  16  17
ENDBRANCH  15  16
ENDBRANCH  11  15
TORSDOF 3
ENDMDL
MODEL 9
REMARK VINA RESULT:      -5.6      4.056      6.467
REMARK  3 active torsions:
REMARK  status: ('A' for Active; 'I' for Inactive)
REMARK       I    between atoms: N_8  and  C_9 
REMARK       I    between atoms: C_9  and  N_11 
REMARK    1  A    between atoms: N_11  and  C_12 
REMARK    2  A    between atoms: C_12  and  C_13 
REMARK    3  A    between atoms: C_13  and  N_14 
ROOT
HETATM    1  C   UNL     1     -46.713 -51.815  12.041  1.00  0.00     0.078 C 
HETATM    2  C   UNL     1     -45.683 -52.680  12.664  1.00  0.00     0.066 A 
HETATM    3  N   UNL     1     -44.401 -52.638  12.362  1.00  0.00    -0.296 N 
ATOM      4  HN  UNL     1     -44.004 -52.043  11.634  1.00  0.00     0.187 HD
HETATM    5  N   UNL     1     -43.664 -53.493  13.145  1.00  0.00    -0.279 N 
ATOM      6  HN  UNL     1     -42.652 -53.604  13.073  1.00  0.00     0.189 HD
HETATM    7  C   UNL     1     -44.417 -54.149  13.995  1.00  0.00     0.169 A 
HETATM    8  N   UNL     1     -44.023 -55.031  14.961  1.00  0.00    -0.288 N 
HETATM    9  C   UNL     1     -42.727 -55.242  15.330  1.00  0.00     0.322 C 
HETATM   10  O   UNL     1     -42.471 -56.044  16.222  1.00  0.00    -0.247 OA
HETATM   11  N   UNL     1     -41.775 -54.476  14.720  1.00  0.00    -0.341 N 
HETATM   12  S   UNL     1     -46.083 -53.823  13.890  1.00  0.00    -0.038 SA
HETATM   13  H   UNL     1     -44.724 -55.514  15.500  1.00  0.00     0.172 HD
HETATM   14  H   UNL     1     -42.027 -54.046  13.834  1.00  0.00     0.164 HD
ENDROOT
BRANCH  11  15
HETATM   15  C   UNL     1     -40.376 -54.589  15.055  1.00  0.00     0.144 C 
BRANCH  15  16
HETATM   16  C   UNL     1     -39.445 -54.049  13.957  1.00  0.00     0.145 C 
BRANCH  16  17
HETATM   17  N   UNL     1     -39.557 -52.594  13.829  1.00  0.00    -0.351 N 
HETATM   18  C   UNL     1     -39.180 -51.782  14.983  1.00  0.00     0.126 C 
HETATM   19  C   UNL     1     -38.046 -50.826  14.659  1.00  0.00     0.020 C 
HETATM   20  C   UNL     1     -38.523 -49.502  14.069  1.00  0.00     0.002 C 
HETATM   21  C   UNL     1     -39.778 -49.567  13.199  1.00  0.00     0.009 C 
HETATM   22  C   UNL     1     -39.805 -50.729  12.223  1.00  0.00     0.103 C 
HETATM   23  C   UNL     1     -40.270 -52.071  12.765  1.00  0.00     0.219 C 
HETATM   24  O   UNL     1     -41.125 -52.720  12.158  1.00  0.00    -0.273 OA
ENDBRANCH  16  17
ENDBRANCH  15  16
ENDBRANCH  11  15
TORSDOF 3
ENDMDL
