MODEL 1
REMARK VINA RESULT:      -6.2      0.000      0.000
REMARK  6 active torsions:
REMARK  status: ('A' for Active; 'I' for Inactive)
REMARK    1  A    between atoms: C_2  and  C_3 
REMARK    2  A    between atoms: C_3  and  C_5 
REMARK    3  A    between atoms: C_3  and  N_7 
REMARK    4  A    between atoms: C_5  and  O_6 
REMARK       I    between atoms: N_7  and  C_8 
REMARK       I    between atoms: C_8  and  N_10 
REMARK    5  A    between atoms: N_10  and  C_11 
REMARK    6  A    between atoms: C_14  and  N_18 
ROOT
HETATM    1  C   UNL     1     -40.241 -50.600  11.739  1.00  0.00     0.051 A 
HETATM    2  C   UNL     1     -38.989 -50.368  12.279  1.00  0.00     0.035 A 
HETATM    3  C   UNL     1     -38.526 -51.206  13.303  1.00  0.00     0.051 A 
HETATM    4  C   UNL     1     -39.329 -52.232  13.815  1.00  0.00     0.103 A 
HETATM    5  N   UNL     1     -40.584 -52.391  13.349  1.00  0.00    -0.350 N 
ATOM      6  HN  UNL     1     -41.205 -53.091  13.755  1.00  0.00     0.166 HD
HETATM    7  C   UNL     1     -41.004 -51.602  12.327  1.00  0.00     0.119 A 
ENDROOT
BRANCH   1   8
HETATM    8  N   UNL     1     -40.668 -49.879  10.599  1.00  0.00    -0.308 N 
HETATM    9  C   UNL     1     -41.505 -48.795  10.776  1.00  0.00     0.321 C 
HETATM   10  N   UNL     1     -41.874 -48.200   9.589  1.00  0.00    -0.332 N 
HETATM   11  O   UNL     1     -41.933 -48.424  11.861  1.00  0.00    -0.247 OA
HETATM   12  H   UNL     1     -41.155 -48.177   8.876  1.00  0.00     0.165 HD
HETATM   13  H   UNL     1     -40.872 -50.411   9.766  1.00  0.00     0.170 HD
BRANCH  10  14
HETATM   14  C   UNL     1     -42.897 -47.123   9.560  1.00  0.00     0.051 C 
HETATM   15  C   UNL     1     -43.338 -46.831   8.106  1.00  0.00     0.041 C 
BRANCH  14  16
HETATM   16  C   UNL     1     -44.182 -47.585  10.307  1.00  0.00     0.028 C 
HETATM   17  C   UNL     1     -45.480 -47.524   9.514  1.00  0.00     0.007 C 
ENDBRANCH  14  16
BRANCH  14  18
HETATM   18  C   UNL     1     -42.320 -45.828  10.210  1.00  0.00     0.194 C 
BRANCH  18  19
HETATM   19  O   UNL     1     -41.037 -45.482   9.690  1.00  0.00    -0.398 OA
HETATM   20  H   UNL     1     -40.389 -45.717  10.377  1.00  0.00     0.209 HD
ENDBRANCH  18  19
ENDBRANCH  14  18
ENDBRANCH  10  14
ENDBRANCH   1   8
BRANCH   4  21
HETATM   21  N   UNL     1     -38.889 -53.050  14.839  1.00  0.00    -0.363 N 
HETATM   22  C   UNL     1     -39.032 -54.511  14.776  1.00  0.00     0.150 C 
HETATM   23  C   UNL     1     -40.097 -55.019  15.764  1.00  0.00     0.187 C 
HETATM   24  O   UNL     1     -39.860 -54.543  17.096  1.00  0.00    -0.388 OA
HETATM   25  C   UNL     1     -39.905 -53.104  17.111  1.00  0.00     0.187 C 
HETATM   26  C   UNL     1     -38.820 -52.505  16.206  1.00  0.00     0.150 C 
ENDBRANCH   4  21
TORSDOF 6
ENDMDL
MODEL 2
REMARK VINA RESULT:      -6.0      3.052      3.591
REMARK  6 active torsions:
REMARK  status: ('A' for Active; 'I' for Inactive)
REMARK    1  A    between atoms: C_2  and  C_3 
REMARK    2  A    between atoms: C_3  and  C_5 
REMARK    3  A    between atoms: C_3  and  N_7 
REMARK    4  A    between atoms: C_5  and  O_6 
REMARK       I    between atoms: N_7  and  C_8 
REMARK       I    between atoms: C_8  and  N_10 
REMARK    5  A    between atoms: N_10  and  C_11 
REMARK    6  A    between atoms: C_14  and  N_18 
ROOT
HETATM    1  C   UNL     1     -41.612 -48.770  12.612  1.00  0.00     0.051 A 
HETATM    2  C   UNL     1     -41.133 -47.727  13.385  1.00  0.00     0.035 A 
HETATM    3  C   UNL     1     -39.816 -47.785  13.861  1.00  0.00     0.051 A 
HETATM    4  C   UNL     1     -39.006 -48.899  13.610  1.00  0.00     0.103 A 
HETATM    5  N   UNL     1     -39.512 -49.952  12.938  1.00  0.00    -0.350 N 
ATOM      6  HN  UNL     1     -38.957 -50.798  12.803  1.00  0.00     0.166 HD
HETATM    7  C   UNL     1     -40.773 -49.865  12.444  1.00  0.00     0.119 A 
ENDROOT
BRANCH   1   8
HETATM    8  N   UNL     1     -42.875 -48.667  11.983  1.00  0.00    -0.308 N 
HETATM    9  C   UNL     1     -42.944 -48.101  10.725  1.00  0.00     0.321 C 
HETATM   10  N   UNL     1     -44.231 -48.030  10.236  1.00  0.00    -0.332 N 
HETATM   11  O   UNL     1     -41.982 -47.650  10.118  1.00  0.00    -0.247 OA
HETATM   12  H   UNL     1     -44.827 -48.812  10.477  1.00  0.00     0.165 HD
HETATM   13  H   UNL     1     -43.666 -48.441  12.568  1.00  0.00     0.170 HD
BRANCH  10  14
HETATM   14  C   UNL     1     -44.529 -47.308   8.973  1.00  0.00     0.051 C 
HETATM   15  C   UNL     1     -44.043 -48.124   7.753  1.00  0.00     0.041 C 
BRANCH  14  16
HETATM   16  C   UNL     1     -46.068 -47.155   8.793  1.00  0.00     0.028 C 
HETATM   17  C   UNL     1     -46.890 -48.430   8.918  1.00  0.00     0.007 C 
ENDBRANCH  14  16
BRANCH  14  18
HETATM   18  C   UNL     1     -43.837 -45.910   8.987  1.00  0.00     0.194 C 
BRANCH  18  19
HETATM   19  O   UNL     1     -42.750 -45.831   8.068  1.00  0.00    -0.398 OA
HETATM   20  H   UNL     1     -42.044 -45.334   8.518  1.00  0.00     0.209 HD
ENDBRANCH  18  19
ENDBRANCH  14  18
ENDBRANCH  10  14
ENDBRANCH   1   8
BRANCH   4  21
HETATM   21  N   UNL     1     -37.713 -48.974  14.093  1.00  0.00    -0.363 N 
HETATM   22  C   UNL     1     -37.167 -50.220  14.650  1.00  0.00     0.150 C 
HETATM   23  C   UNL     1     -36.992 -50.129  16.176  1.00  0.00     0.187 C 
HETATM   24  O   UNL     1     -36.233 -48.973  16.559  1.00  0.00    -0.388 OA
HETATM   25  C   UNL     1     -36.917 -47.782  16.129  1.00  0.00     0.187 C 
HETATM   26  C   UNL     1     -37.071 -47.749  14.602  1.00  0.00     0.150 C 
ENDBRANCH   4  21
TORSDOF 6
ENDMDL
MODEL 3
REMARK VINA RESULT:      -6.0      3.671      7.444
REMARK  6 active torsions:
REMARK  status: ('A' for Active; 'I' for Inactive)
REMARK    1  A    between atoms: C_2  and  C_3 
REMARK    2  A    between atoms: C_3  and  C_5 
REMARK    3  A    between atoms: C_3  and  N_7 
REMARK    4  A    between atoms: C_5  and  O_6 
REMARK       I    between atoms: N_7  and  C_8 
REMARK       I    between atoms: C_8  and  N_10 
REMARK    5  A    between atoms: N_10  and  C_11 
REMARK    6  A    between atoms: C_14  and  N_18 
ROOT
HETATM    1  C   UNL     1     -41.107 -49.161  11.623  1.00  0.00     0.051 A 
HETATM    2  C   UNL     1     -40.198 -48.797  12.600  1.00  0.00     0.035 A 
HETATM    3  C   UNL     1     -39.692 -47.490  12.602  1.00  0.00     0.051 A 
HETATM    4  C   UNL     1     -40.054 -46.574  11.607  1.00  0.00     0.103 A 
HETATM    5  N   UNL     1     -40.866 -46.965  10.605  1.00  0.00    -0.350 N 
ATOM      6  HN  UNL     1     -41.088 -46.332   9.837  1.00  0.00     0.166 HD
HETATM    7  C   UNL     1     -41.384 -48.219  10.639  1.00  0.00     0.119 A 
ENDROOT
BRANCH   1   8
HETATM    8  N   UNL     1     -41.758 -50.416  11.689  1.00  0.00    -0.308 N 
HETATM    9  C   UNL     1     -42.832 -50.561  12.544  1.00  0.00     0.321 C 
HETATM   10  N   UNL     1     -43.357 -51.836  12.540  1.00  0.00    -0.332 N 
HETATM   11  O   UNL     1     -43.252 -49.678  13.280  1.00  0.00    -0.247 OA
HETATM   12  H   UNL     1     -43.356 -52.299  11.639  1.00  0.00     0.165 HD
HETATM   13  H   UNL     1     -41.178 -51.241  11.631  1.00  0.00     0.170 HD
BRANCH  10  14
HETATM   14  C   UNL     1     -44.409 -52.232  13.510  1.00  0.00     0.051 C 
HETATM   15  C   UNL     1     -43.965 -51.911  14.956  1.00  0.00     0.041 C 
BRANCH  14  16
HETATM   16  C   UNL     1     -45.701 -51.397  13.269  1.00  0.00     0.028 C 
HETATM   17  C   UNL     1     -46.715 -51.384  14.404  1.00  0.00     0.007 C 
ENDBRANCH  14  16
BRANCH  14  18
HETATM   18  C   UNL     1     -44.708 -53.757  13.373  1.00  0.00     0.194 C 
BRANCH  18  19
HETATM   19  O   UNL     1     -44.240 -54.295  12.138  1.00  0.00    -0.398 OA
HETATM   20  H   UNL     1     -44.393 -55.256  12.181  1.00  0.00     0.209 HD
ENDBRANCH  18  19
ENDBRANCH  14  18
ENDBRANCH  10  14
ENDBRANCH   1   8
BRANCH   4  21
HETATM   21  N   UNL     1     -39.544 -45.289  11.589  1.00  0.00    -0.363 N 
HETATM   22  C   UNL     1     -39.051 -44.637  12.811  1.00  0.00     0.150 C 
HETATM   23  C   UNL     1     -39.994 -43.511  13.271  1.00  0.00     0.187 C 
HETATM   24  O   UNL     1     -40.267 -42.578  12.217  1.00  0.00    -0.388 OA
HETATM   25  C   UNL     1     -40.906 -43.258  11.121  1.00  0.00     0.187 C 
HETATM   26  C   UNL     1     -40.001 -44.356  10.545  1.00  0.00     0.150 C 
ENDBRANCH   4  21
TORSDOF 6
ENDMDL
MODEL 4
REMARK VINA RESULT:      -5.9      3.953      8.290
REMARK  6 active torsions:
REMARK  status: ('A' for Active; 'I' for Inactive)
REMARK    1  A    between atoms: C_2  and  C_3 
REMARK    2  A    between atoms: C_3  and  C_5 
REMARK    3  A    between atoms: C_3  and  N_7 
REMARK    4  A    between atoms: C_5  and  O_6 
REMARK       I    between atoms: N_7  and  C_8 
REMARK       I    between atoms: C_8  and  N_10 
REMARK    5  A    between atoms: N_10  and  C_11 
REMARK    6  A    between atoms: C_14  and  N_18 
ROOT
HETATM    1  C   UNL     1     -42.693 -49.746  13.359  1.00  0.00     0.051 A 
HETATM    2  C   UNL     1     -43.082 -48.432  13.552  1.00  0.00     0.035 A 
HETATM    3  C   UNL     1     -42.973 -47.529  12.486  1.00  0.00     0.051 A 
HETATM    4  C   UNL     1     -42.433 -47.924  11.257  1.00  0.00     0.103 A 
HETATM    5  N   UNL     1     -41.969 -49.180  11.107  1.00  0.00    -0.350 N 
ATOM      6  HN  UNL     1     -41.512 -49.466  10.240  1.00  0.00     0.166 HD
HETATM    7  C   UNL     1     -42.120 -50.058  12.131  1.00  0.00     0.119 A 
ENDROOT
BRANCH   1   8
HETATM    8  N   UNL     1     -42.942 -50.715  14.358  1.00  0.00    -0.308 N 
HETATM    9  C   UNL     1     -44.035 -51.547  14.217  1.00  0.00     0.321 C 
HETATM   10  N   UNL     1     -44.186 -52.423  15.271  1.00  0.00    -0.332 N 
HETATM   11  O   UNL     1     -44.833 -51.486  13.291  1.00  0.00    -0.247 OA
HETATM   12  H   UNL     1     -43.322 -52.779  15.661  1.00  0.00     0.165 HD
HETATM   13  H   UNL     1     -42.761 -50.450  15.315  1.00  0.00     0.170 HD
BRANCH  10  14
HETATM   14  C   UNL     1     -45.390 -53.284  15.382  1.00  0.00     0.051 C 
HETATM   15  C   UNL     1     -45.564 -53.792  16.833  1.00  0.00     0.041 C 
BRANCH  14  16
HETATM   16  C   UNL     1     -46.671 -52.457  15.067  1.00  0.00     0.028 C 
HETATM   17  C   UNL     1     -47.217 -51.605  16.204  1.00  0.00     0.007 C 
ENDBRANCH  14  16
BRANCH  14  18
HETATM   18  C   UNL     1     -45.267 -54.495  14.407  1.00  0.00     0.194 C 
BRANCH  18  19
HETATM   19  O   UNL     1     -45.982 -54.292  13.190  1.00  0.00    -0.398 OA
HETATM   20  H   UNL     1     -46.742 -53.725  13.409  1.00  0.00     0.209 HD
ENDBRANCH  18  19
ENDBRANCH  14  18
ENDBRANCH  10  14
ENDBRANCH   1   8
BRANCH   4  21
HETATM   21  N   UNL     1     -42.303 -47.034  10.207  1.00  0.00    -0.363 N 
HETATM   22  C   UNL     1     -41.829 -45.658  10.414  1.00  0.00     0.150 C 
HETATM   23  C   UNL     1     -42.964 -44.636  10.227  1.00  0.00     0.187 C 
HETATM   24  O   UNL     1     -43.637 -44.806   8.972  1.00  0.00    -0.388 OA
HETATM   25  C   UNL     1     -44.222 -46.120   8.911  1.00  0.00     0.187 C 
HETATM   26  C   UNL     1     -43.149 -47.212   9.013  1.00  0.00     0.150 C 
ENDBRANCH   4  21
TORSDOF 6
ENDMDL
MODEL 5
REMARK VINA RESULT:      -5.6      3.171      8.243
REMARK  6 active torsions:
REMARK  status: ('A' for Active; 'I' for Inactive)
REMARK    1  A    between atoms: C_2  and  C_3 
REMARK    2  A    between atoms: C_3  and  C_5 
REMARK    3  A    between atoms: C_3  and  N_7 
REMARK    4  A    between atoms: C_5  and  O_6 
REMARK       I    between atoms: N_7  and  C_8 
REMARK       I    between atoms: C_8  and  N_10 
REMARK    5  A    between atoms: N_10  and  C_11 
REMARK    6  A    between atoms: C_14  and  N_18 
ROOT
HETATM    1  C   UNL     1     -41.566 -47.346  10.703  1.00  0.00     0.051 A 
HETATM    2  C   UNL     1     -40.386 -46.647  10.881  1.00  0.00     0.035 A 
HETATM    3  C   UNL     1     -40.442 -45.258  11.064  1.00  0.00     0.051 A 
HETATM    4  C   UNL     1     -41.661 -44.572  11.018  1.00  0.00     0.103 A 
HETATM    5  N   UNL     1     -42.795 -45.248  10.749  1.00  0.00    -0.350 N 
ATOM      6  HN  UNL     1     -43.683 -44.755  10.647  1.00  0.00     0.166 HD
HETATM    7  C   UNL     1     -42.734 -46.597  10.618  1.00  0.00     0.119 A 
ENDROOT
BRANCH   1   8
HETATM    8  N   UNL     1     -41.557 -48.760  10.679  1.00  0.00    -0.308 N 
HETATM    9  C   UNL     1     -41.832 -49.445  11.846  1.00  0.00     0.321 C 
HETATM   10  N   UNL     1     -41.761 -50.814  11.698  1.00  0.00    -0.332 N 
HETATM   11  O   UNL     1     -42.059 -48.908  12.922  1.00  0.00    -0.247 OA
HETATM   12  H   UNL     1     -42.092 -51.168  10.810  1.00  0.00     0.165 HD
HETATM   13  H   UNL     1     -40.856 -49.209  10.107  1.00  0.00     0.170 HD
BRANCH  10  14
HETATM   14  C   UNL     1     -41.864 -51.715  12.874  1.00  0.00     0.051 C 
HETATM   15  C   UNL     1     -40.969 -51.206  14.029  1.00  0.00     0.041 C 
BRANCH  14  16
HETATM   16  C   UNL     1     -43.318 -51.705  13.431  1.00  0.00     0.028 C 
HETATM   17  C   UNL     1     -43.463 -51.476  14.929  1.00  0.00     0.007 C 
ENDBRANCH  14  16
BRANCH  14  18
HETATM   18  C   UNL     1     -41.441 -53.160  12.471  1.00  0.00     0.194 C 
BRANCH  18  19
HETATM   19  O   UNL     1     -40.626 -53.184  11.301  1.00  0.00    -0.398 OA
HETATM   20  H   UNL     1     -39.779 -52.772  11.546  1.00  0.00     0.209 HD
ENDBRANCH  18  19
ENDBRANCH  14  18
ENDBRANCH  10  14
ENDBRANCH   1   8
BRANCH   4  21
HETATM   21  N   UNL     1     -41.723 -43.200  11.178  1.00  0.00    -0.363 N 
HETATM   22  C   UNL     1     -40.606 -42.438  11.752  1.00  0.00     0.150 C 
HETATM   23  C   UNL     1     -40.942 -41.919  13.162  1.00  0.00     0.187 C 
HETATM   24  O   UNL     1     -42.178 -41.191  13.183  1.00  0.00    -0.388 OA
HETATM   25  C   UNL     1     -43.254 -42.053  12.771  1.00  0.00     0.187 C 
HETATM   26  C   UNL     1     -43.042 -42.561  11.338  1.00  0.00     0.150 C 
ENDBRANCH   4  21
TORSDOF 6
ENDMDL
MODEL 6
REMARK VINA RESULT:      -5.5      1.276      1.972
REMARK  6 active torsions:
REMARK  status: ('A' for Active; 'I' for Inactive)
REMARK    1  A    between atoms: C_2  and  C_3 
REMARK    2  A    between atoms: C_3  and  C_5 
REMARK    3  A    between atoms: C_3  and  N_7 
REMARK    4  A    between atoms: C_5  and  O_6 
REMARK       I    between atoms: N_7  and  C_8 
REMARK       I    between atoms: C_8  and  N_10 
REMARK    5  A    between atoms: N_10  and  C_11 
REMARK    6  A    between atoms: C_14  and  N_18 
ROOT
HETATM    1  C   UNL     1     -40.611 -51.435  12.020  1.00  0.00     0.051 A 
HETATM    2  C   UNL     1     -39.587 -51.346  12.946  1.00  0.00     0.035 A 
HETATM    3  C   UNL     1     -39.415 -52.389  13.868  1.00  0.00     0.051 A 
HETATM    4  C   UNL     1     -40.290 -53.481  13.895  1.00  0.00     0.103 A 
HETATM    5  N   UNL     1     -41.342 -53.512  13.053  1.00  0.00    -0.350 N 
ATOM      6  HN  UNL     1     -42.026 -54.267  13.102  1.00  0.00     0.166 HD
HETATM    7  C   UNL     1     -41.472 -52.520  12.135  1.00  0.00     0.119 A 
ENDROOT
BRANCH   1   8
HETATM    8  N   UNL     1     -40.710 -50.484  10.977  1.00  0.00    -0.308 N 
HETATM    9  C   UNL     1     -41.495 -49.365  11.172  1.00  0.00     0.321 C 
HETATM   10  N   UNL     1     -41.534 -48.535  10.073  1.00  0.00    -0.332 N 
HETATM   11  O   UNL     1     -42.144 -49.147  12.187  1.00  0.00    -0.247 OA
HETATM   12  H   UNL     1     -40.666 -48.465   9.555  1.00  0.00     0.165 HD
HETATM   13  H   UNL     1     -40.744 -50.837  10.032  1.00  0.00     0.170 HD
BRANCH  10  14
HETATM   14  C   UNL     1     -42.451 -47.367  10.029  1.00  0.00     0.051 C 
HETATM   15  C   UNL     1     -43.558 -47.506  11.100  1.00  0.00     0.041 C 
BRANCH  14  16
HETATM   16  C   UNL     1     -41.677 -46.065  10.387  1.00  0.00     0.028 C 
HETATM   17  C   UNL     1     -42.274 -45.211  11.497  1.00  0.00     0.007 C 
ENDBRANCH  14  16
BRANCH  14  18
HETATM   18  C   UNL     1     -43.094 -47.252   8.613  1.00  0.00     0.194 C 
BRANCH  18  19
HETATM   19  O   UNL     1     -42.712 -46.056   7.936  1.00  0.00    -0.398 OA
HETATM   20  H   UNL     1     -43.533 -45.659   7.595  1.00  0.00     0.209 HD
ENDBRANCH  18  19
ENDBRANCH  14  18
ENDBRANCH  10  14
ENDBRANCH   1   8
BRANCH   4  21
HETATM   21  N   UNL     1     -40.141 -54.502  14.814  1.00  0.00    -0.363 N 
HETATM   22  C   UNL     1     -41.206 -54.848  15.766  1.00  0.00     0.150 C 
HETATM   23  C   UNL     1     -40.836 -54.439  17.202  1.00  0.00     0.187 C 
HETATM   24  O   UNL     1     -39.556 -54.957  17.593  1.00  0.00    -0.388 OA
HETATM   25  C   UNL     1     -38.537 -54.438  16.718  1.00  0.00     0.187 C 
HETATM   26  C   UNL     1     -38.784 -54.863  15.264  1.00  0.00     0.150 C 
ENDBRANCH   4  21
TORSDOF 6
ENDMDL
MODEL 7
REMARK VINA RESULT:      -5.4      2.227      8.128
REMARK  6 active torsions:
REMARK  status: ('A' for Active; 'I' for Inactive)
REMARK    1  A    between atoms: C_2  and  C_3 
REMARK    2  A    between atoms: C_3  and  C_5 
REMARK    3  A    between atoms: C_3  and  N_7 
REMARK    4  A    between atoms: C_5  and  O_6 
REMARK       I    between atoms: N_7  and  C_8 
REMARK       I    between atoms: C_8  and  N_10 
REMARK    5  A    between atoms: N_10  and  C_11 
REMARK    6  A    between atoms: C_14  and  N_18 
ROOT
HETATM    1  C   UNL     1     -40.449 -49.607  11.647  1.00  0.00     0.051 A 
HETATM    2  C   UNL     1     -41.730 -49.200  11.319  1.00  0.00     0.035 A 
HETATM    3  C   UNL     1     -41.934 -47.879  10.898  1.00  0.00     0.051 A 
HETATM    4  C   UNL     1     -40.877 -46.962  10.856  1.00  0.00     0.103 A 
HETATM    5  N   UNL     1     -39.651 -47.341  11.268  1.00  0.00    -0.350 N 
ATOM      6  HN  UNL     1     -38.884 -46.670  11.307  1.00  0.00     0.166 HD
HETATM    7  C   UNL     1     -39.456 -48.635  11.631  1.00  0.00     0.119 A 
ENDROOT
BRANCH   1   8
HETATM    8  N   UNL     1     -40.184 -50.971  11.917  1.00  0.00    -0.308 N 
HETATM    9  C   UNL     1     -40.383 -51.444  13.198  1.00  0.00     0.321 C 
HETATM   10  N   UNL     1     -40.059 -52.777  13.338  1.00  0.00    -0.332 N 
HETATM   11  O   UNL     1     -40.751 -50.753  14.139  1.00  0.00    -0.247 OA
HETATM   12  H   UNL     1     -40.279 -53.359  12.539  1.00  0.00     0.165 HD
HETATM   13  H   UNL     1     -39.388 -51.386  11.455  1.00  0.00     0.170 HD
BRANCH  10  14
HETATM   14  C   UNL     1     -40.050 -53.425  14.674  1.00  0.00     0.051 C 
HETATM   15  C   UNL     1     -39.681 -52.400  15.773  1.00  0.00     0.041 C 
BRANCH  14  16
HETATM   16  C   UNL     1     -41.477 -53.933  15.032  1.00  0.00     0.028 C 
HETATM   17  C   UNL     1     -42.404 -54.219  13.859  1.00  0.00     0.007 C 
ENDBRANCH  14  16
BRANCH  14  18
HETATM   18  C   UNL     1     -39.030 -54.604  14.683  1.00  0.00     0.194 C 
BRANCH  18  19
HETATM   19  O   UNL     1     -38.735 -55.080  13.372  1.00  0.00    -0.398 OA
HETATM   20  H   UNL     1     -39.379 -54.661  12.775  1.00  0.00     0.209 HD
ENDBRANCH  18  19
ENDBRANCH  14  18
ENDBRANCH  10  14
ENDBRANCH   1   8
BRANCH   4  21
HETATM   21  N   UNL     1     -41.073 -45.652  10.462  1.00  0.00    -0.363 N 
HETATM   22  C   UNL     1     -39.966 -44.686  10.414  1.00  0.00     0.150 C 
HETATM   23  C   UNL     1     -40.083 -43.636  11.534  1.00  0.00     0.187 C 
HETATM   24  O   UNL     1     -41.371 -43.003  11.541  1.00  0.00    -0.388 OA
HETATM   25  C   UNL     1     -42.394 -43.990  11.764  1.00  0.00     0.187 C 
HETATM   26  C   UNL     1     -42.403 -45.044  10.648  1.00  0.00     0.150 C 
ENDBRANCH   4  21
TORSDOF 6
ENDMDL
MODEL 8
REMARK VINA RESULT:      -5.3      3.447      7.510
REMARK  6 active torsions:
REMARK  status: ('A' for Active; 'I' for Inactive)
REMARK    1  A    between atoms: C_2  and  C_3 
REMARK    2  A    between atoms: C_3  and  C_5 
REMARK    3  A    between atoms: C_3  and  N_7 
REMARK    4  A    between atoms: C_5  and  O_6 
REMARK       I    between atoms: N_7  and  C_8 
REMARK       I    between atoms: C_8  and  N_10 
REMARK    5  A    between atoms: N_10  and  C_11 
REMARK    6  A    between atoms: C_14  and  N_18 
ROOT
HETATM    1  C   UNL     1     -41.366 -49.219  11.849  1.00  0.00     0.051 A 
HETATM    2  C   UNL     1     -41.945 -48.188  11.131  1.00  0.00     0.035 A 
HETATM    3  C   UNL     1     -41.323 -46.932  11.128  1.00  0.00     0.051 A 
HETATM    4  C   UNL     1     -40.164 -46.697  11.878  1.00  0.00     0.103 A 
HETATM    5  N   UNL     1     -39.661 -47.680  12.650  1.00  0.00    -0.350 N 
ATOM      6  HN  UNL     1     -38.856 -47.508  13.253  1.00  0.00     0.166 HD
HETATM    7  C   UNL     1     -40.245 -48.904  12.610  1.00  0.00     0.119 A 
ENDROOT
BRANCH   1   8
HETATM    8  N   UNL     1     -41.875 -50.534  11.741  1.00  0.00    -0.308 N 
HETATM    9  C   UNL     1     -42.929 -50.906  12.552  1.00  0.00     0.321 C 
HETATM   10  N   UNL     1     -43.310 -52.219  12.373  1.00  0.00    -0.332 N 
HETATM   11  O   UNL     1     -43.443 -50.178  13.390  1.00  0.00    -0.247 OA
HETATM   12  H   UNL     1     -43.257 -52.556  11.420  1.00  0.00     0.165 HD
HETATM   13  H   UNL     1     -41.209 -51.277  11.584  1.00  0.00     0.170 HD
BRANCH  10  14
HETATM   14  C   UNL     1     -44.315 -52.850  13.266  1.00  0.00     0.051 C 
HETATM   15  C   UNL     1     -44.356 -54.380  13.041  1.00  0.00     0.041 C 
BRANCH  14  16
HETATM   16  C   UNL     1     -43.908 -52.653  14.755  1.00  0.00     0.028 C 
HETATM   17  C   UNL     1     -42.746 -53.500  15.253  1.00  0.00     0.007 C 
ENDBRANCH  14  16
BRANCH  14  18
HETATM   18  C   UNL     1     -45.723 -52.237  12.996  1.00  0.00     0.194 C 
BRANCH  18  19
HETATM   19  O   UNL     1     -46.260 -52.636  11.736  1.00  0.00    -0.398 OA
HETATM   20  H   UNL     1     -46.333 -51.828  11.199  1.00  0.00     0.209 HD
ENDBRANCH  18  19
ENDBRANCH  14  18
ENDBRANCH  10  14
ENDBRANCH   1   8
BRANCH   4  21
HETATM   21  N   UNL     1     -39.557 -45.456  11.897  1.00  0.00    -0.363 N 
HETATM   22  C   UNL     1     -39.103 -44.837  13.151  1.00  0.00     0.150 C 
HETATM   23  C   UNL     1     -39.986 -43.639  13.543  1.00  0.00     0.187 C 
HETATM   24  O   UNL     1     -40.109 -42.693  12.472  1.00  0.00    -0.388 OA
HETATM   25  C   UNL     1     -40.720 -43.327  11.333  1.00  0.00     0.187 C 
HETATM   26  C   UNL     1     -39.864 -44.495  10.823  1.00  0.00     0.150 C 
ENDBRANCH   4  21
TORSDOF 6
ENDMDL
MODEL 9
REMARK VINA RESULT:      -5.3      3.242      4.294
REMARK  6 active torsions:
REMARK  status: ('A' for Active; 'I' for Inactive)
REMARK    1  A    between atoms: C_2  and  C_3 
REMARK    2  A    between atoms: C_3  and  C_5 
REMARK    3  A    between atoms: C_3  and  N_7 
REMARK    4  A    between atoms: C_5  and  O_6 
REMARK       I    between atoms: N_7  and  C_8 
REMARK       I    between atoms: C_8  and  N_10 
REMARK    5  A    between atoms: N_10  and  C_11 
REMARK    6  A    between atoms: C_14  and  N_18 
ROOT
HETATM    1  C   UNL     1     -41.946 -49.302  13.314  1.00  0.00     0.051 A 
HETATM    2  C   UNL     1     -43.272 -49.635  13.528  1.00  0.00     0.035 A 
HETATM    3  C   UNL     1     -43.655 -50.981  13.441  1.00  0.00     0.051 A 
HETATM    4  C   UNL     1     -42.733 -51.974  13.093  1.00  0.00     0.103 A 
HETATM    5  N   UNL     1     -41.465 -51.629  12.793  1.00  0.00    -0.350 N 
ATOM      6  HN  UNL     1     -40.796 -52.330  12.475  1.00  0.00     0.166 HD
HETATM    7  C   UNL     1     -41.095 -50.330  12.924  1.00  0.00     0.119 A 
ENDROOT
BRANCH   1   8
HETATM    8  N   UNL     1     -41.497 -47.983  13.554  1.00  0.00    -0.308 N 
HETATM    9  C   UNL     1     -41.547 -47.068  12.521  1.00  0.00     0.321 C 
HETATM   10  N   UNL     1     -41.052 -45.830  12.872  1.00  0.00    -0.332 N 
HETATM   11  O   UNL     1     -41.930 -47.327  11.388  1.00  0.00    -0.247 OA
HETATM   12  H   UNL     1     -41.255 -45.539  13.821  1.00  0.00     0.165 HD
HETATM   13  H   UNL     1     -40.690 -47.870  14.150  1.00  0.00     0.170 HD
BRANCH  10  14
HETATM   14  C   UNL     1     -40.871 -44.763  11.855  1.00  0.00     0.051 C 
HETATM   15  C   UNL     1     -42.242 -44.246  11.359  1.00  0.00     0.041 C 
BRANCH  14  16
HETATM   16  C   UNL     1     -40.161 -43.532  12.491  1.00  0.00     0.028 C 
HETATM   17  C   UNL     1     -40.358 -43.340  13.988  1.00  0.00     0.007 C 
ENDBRANCH  14  16
BRANCH  14  18
HETATM   18  C   UNL     1     -40.044 -45.313  10.653  1.00  0.00     0.194 C 
BRANCH  18  19
HETATM   19  O   UNL     1     -40.810 -45.390   9.453  1.00  0.00    -0.398 OA
HETATM   20  H   UNL     1     -41.471 -46.091   9.592  1.00  0.00     0.209 HD
ENDBRANCH  18  19
ENDBRANCH  14  18
ENDBRANCH  10  14
ENDBRANCH   1   8
BRANCH   4  21
HETATM   21  N   UNL     1     -43.106 -53.300  12.985  1.00  0.00    -0.363 N 
HETATM   22  C   UNL     1     -44.469 -53.690  12.594  1.00  0.00     0.150 C 
HETATM   23  C   UNL     1     -45.247 -54.289  13.779  1.00  0.00     0.187 C 
HETATM   24  O   UNL     1     -44.525 -55.357  14.408  1.00  0.00    -0.388 OA
HETATM   25  C   UNL     1     -43.274 -54.861  14.918  1.00  0.00     0.187 C 
HETATM   26  C   UNL     1     -42.393 -54.309  13.789  1.00  0.00     0.150 C 
ENDBRANCH   4  21
TORSDOF 6
ENDMDL
