MODEL 1
REMARK VINA RESULT:      -6.5      0.000      0.000
REMARK  5 active torsions:
REMARK  status: ('A' for Active; 'I' for Inactive)
REMARK    1  A    between atoms: C_4  and  N_5 
REMARK       I    between atoms: N_5  and  C_6 
REMARK       I    between atoms: C_6  and  N_8 
REMARK    2  A    between atoms: N_8  and  C_9 
REMARK    3  A    between atoms: C_9  and  C_10 
REMARK    4  A    between atoms: C_10  and  C_11 
REMARK    5  A    between atoms: C_11  and  N_12 
ROOT
HETATM    1  N   UNL     1     -42.230 -48.267   9.473  1.00  0.00    -0.309 N 
HETATM    2  C   UNL     1     -41.708 -48.652  10.690  1.00  0.00     0.320 C 
HETATM    3  O   UNL     1     -42.171 -48.391  11.794  1.00  0.00    -0.247 OA
HETATM    4  N   UNL     1     -40.553 -49.387  10.571  1.00  0.00    -0.343 N 
HETATM    5  H   UNL     1     -41.798 -48.653   8.648  1.00  0.00     0.170 HD
HETATM    6  H   UNL     1     -40.136 -49.542   9.667  1.00  0.00     0.164 HD
ENDROOT
BRANCH   1   7
HETATM    7  C   UNL     1     -43.351 -47.422   9.279  1.00  0.00     0.039 A 
HETATM    8  C   UNL     1     -44.659 -47.896   9.222  1.00  0.00     0.054 A 
HETATM    9  C   UNL     1     -45.712 -47.005   9.058  1.00  0.00     0.007 A 
HETATM   10  C   UNL     1     -47.122 -47.518   9.033  1.00  0.00     0.068 C 
HETATM   11  N   UNL     1     -45.524 -45.673   8.942  1.00  0.00    -0.369 N 
HETATM   12  C   UNL     1     -44.249 -45.228   8.998  1.00  0.00     0.090 A 
ATOM     13  HN  UNL     1     -46.308 -45.033   8.818  1.00  0.00     0.165 HD
HETATM   14  C   UNL     1     -43.143 -46.049   9.167  1.00  0.00     0.046 A 
ENDBRANCH   1   7
BRANCH   4  15
HETATM   15  C   UNL     1     -39.848 -49.827  11.764  1.00  0.00     0.126 C 
BRANCH  15  16
HETATM   16  C   UNL     1     -38.348 -49.571  11.664  1.00  0.00     0.039 C 
BRANCH  16  17
HETATM   17  C   UNL     1     -37.533 -50.782  12.131  1.00  0.00     0.127 C 
BRANCH  17  18
HETATM   18  N   UNL     1     -37.679 -51.001  13.561  1.00  0.00    -0.352 N 
HETATM   19  C   UNL     1     -37.397 -49.963  14.521  1.00  0.00     0.126 C 
HETATM   20  C   UNL     1     -37.919 -50.496  15.841  1.00  0.00     0.029 C 
HETATM   21  C   UNL     1     -38.882 -51.617  15.478  1.00  0.00     0.104 C 
HETATM   22  C   UNL     1     -38.522 -51.981  14.064  1.00  0.00     0.219 C 
HETATM   23  O   UNL     1     -38.982 -52.926  13.442  1.00  0.00    -0.273 OA
ENDBRANCH  17  18
ENDBRANCH  16  17
ENDBRANCH  15  16
ENDBRANCH   4  15
TORSDOF 5
ENDMDL
MODEL 2
REMARK VINA RESULT:      -6.5      2.597      3.217
REMARK  5 active torsions:
REMARK  status: ('A' for Active; 'I' for Inactive)
REMARK    1  A    between atoms: C_4  and  N_5 
REMARK       I    between atoms: N_5  and  C_6 
REMARK       I    between atoms: C_6  and  N_8 
REMARK    2  A    between atoms: N_8  and  C_9 
REMARK    3  A    between atoms: C_9  and  C_10 
REMARK    4  A    between atoms: C_10  and  C_11 
REMARK    5  A    between atoms: C_11  and  N_12 
ROOT
HETATM    1  N   UNL     1     -42.221 -48.322   9.546  1.00  0.00    -0.309 N 
HETATM    2  C   UNL     1     -41.752 -48.745  10.772  1.00  0.00     0.320 C 
HETATM    3  O   UNL     1     -42.241 -48.488  11.865  1.00  0.00    -0.247 OA
HETATM    4  N   UNL     1     -40.619 -49.517  10.675  1.00  0.00    -0.343 N 
HETATM    5  H   UNL     1     -41.776 -48.707   8.728  1.00  0.00     0.170 HD
HETATM    6  H   UNL     1     -40.178 -49.671   9.783  1.00  0.00     0.164 HD
ENDROOT
BRANCH   1   7
HETATM    7  C   UNL     1     -43.305 -47.435   9.333  1.00  0.00     0.039 A 
HETATM    8  C   UNL     1     -44.631 -47.859   9.264  1.00  0.00     0.054 A 
HETATM    9  C   UNL     1     -45.646 -46.930   9.081  1.00  0.00     0.007 A 
HETATM   10  C   UNL     1     -47.075 -47.387   9.043  1.00  0.00     0.068 C 
HETATM   11  N   UNL     1     -45.406 -45.607   8.958  1.00  0.00    -0.369 N 
HETATM   12  C   UNL     1     -44.116 -45.211   9.026  1.00  0.00     0.090 A 
ATOM     13  HN  UNL     1     -46.163 -44.937   8.819  1.00  0.00     0.165 HD
HETATM   14  C   UNL     1     -43.044 -46.072   9.214  1.00  0.00     0.046 A 
ENDBRANCH   1   7
BRANCH   4  15
HETATM   15  C   UNL     1     -39.967 -50.001  11.882  1.00  0.00     0.126 C 
BRANCH  15  16
HETATM   16  C   UNL     1     -40.375 -51.433  12.212  1.00  0.00     0.039 C 
BRANCH  16  17
HETATM   17  C   UNL     1     -41.014 -51.536  13.601  1.00  0.00     0.127 C 
BRANCH  17  18
HETATM   18  N   UNL     1     -42.310 -52.194  13.542  1.00  0.00    -0.352 N 
HETATM   19  C   UNL     1     -43.494 -51.499  13.105  1.00  0.00     0.126 C 
HETATM   20  C   UNL     1     -44.545 -52.579  12.936  1.00  0.00     0.029 C 
HETATM   21  C   UNL     1     -43.773 -53.889  12.845  1.00  0.00     0.104 C 
HETATM   22  C   UNL     1     -42.421 -53.571  13.421  1.00  0.00     0.219 C 
HETATM   23  O   UNL     1     -41.542 -54.388  13.643  1.00  0.00    -0.273 OA
ENDBRANCH  17  18
ENDBRANCH  16  17
ENDBRANCH  15  16
ENDBRANCH   4  15
TORSDOF 5
ENDMDL
MODEL 3
REMARK VINA RESULT:      -6.4      3.820      4.580
REMARK  5 active torsions:
REMARK  status: ('A' for Active; 'I' for Inactive)
REMARK    1  A    between atoms: C_4  and  N_5 
REMARK       I    between atoms: N_5  and  C_6 
REMARK       I    between atoms: C_6  and  N_8 
REMARK    2  A    between atoms: N_8  and  C_9 
REMARK    3  A    between atoms: C_9  and  C_10 
REMARK    4  A    between atoms: C_10  and  C_11 
REMARK    5  A    between atoms: C_11  and  N_12 
ROOT
HETATM    1  N   UNL     1     -41.037 -49.377  10.575  1.00  0.00    -0.309 N 
HETATM    2  C   UNL     1     -41.073 -50.121  11.735  1.00  0.00     0.320 C 
HETATM    3  O   UNL     1     -41.628 -49.809  12.781  1.00  0.00    -0.247 OA
HETATM    4  N   UNL     1     -40.390 -51.309  11.632  1.00  0.00    -0.343 N 
HETATM    5  H   UNL     1     -40.635 -49.816   9.762  1.00  0.00     0.170 HD
HETATM    6  H   UNL     1     -39.876 -51.534  10.795  1.00  0.00     0.164 HD
ENDROOT
BRANCH   1   7
HETATM    7  C   UNL     1     -41.561 -48.071  10.409  1.00  0.00     0.039 A 
HETATM    8  C   UNL     1     -42.753 -47.810   9.735  1.00  0.00     0.054 A 
HETATM    9  C   UNL     1     -43.221 -46.507   9.635  1.00  0.00     0.007 A 
HETATM   10  C   UNL     1     -44.523 -46.235   8.940  1.00  0.00     0.068 C 
HETATM   11  N   UNL     1     -42.560 -45.456  10.166  1.00  0.00    -0.369 N 
HETATM   12  C   UNL     1     -41.406 -45.723  10.816  1.00  0.00     0.090 A 
ATOM     13  HN  UNL     1     -42.916 -44.503  10.081  1.00  0.00     0.165 HD
HETATM   14  C   UNL     1     -40.873 -46.996  10.967  1.00  0.00     0.046 A 
ENDBRANCH   1   7
BRANCH   4  15
HETATM   15  C   UNL     1     -40.288 -52.189  12.785  1.00  0.00     0.126 C 
BRANCH  15  16
HETATM   16  C   UNL     1     -41.018 -53.508  12.560  1.00  0.00     0.039 C 
BRANCH  16  17
HETATM   17  C   UNL     1     -41.630 -54.049  13.857  1.00  0.00     0.127 C 
BRANCH  17  18
HETATM   18  N   UNL     1     -43.082 -53.982  13.827  1.00  0.00    -0.352 N 
HETATM   19  C   UNL     1     -43.788 -53.262  12.798  1.00  0.00     0.126 C 
HETATM   20  C   UNL     1     -45.243 -53.654  12.970  1.00  0.00     0.029 C 
HETATM   21  C   UNL     1     -45.226 -54.932  13.797  1.00  0.00     0.104 C 
HETATM   22  C   UNL     1     -43.866 -54.949  14.439  1.00  0.00     0.219 C 
HETATM   23  O   UNL     1     -43.497 -55.750  15.283  1.00  0.00    -0.273 OA
ENDBRANCH  17  18
ENDBRANCH  16  17
ENDBRANCH  15  16
ENDBRANCH   4  15
TORSDOF 5
ENDMDL
MODEL 4
REMARK VINA RESULT:      -6.3      4.417      5.489
REMARK  5 active torsions:
REMARK  status: ('A' for Active; 'I' for Inactive)
REMARK    1  A    between atoms: C_4  and  N_5 
REMARK       I    between atoms: N_5  and  C_6 
REMARK       I    between atoms: C_6  and  N_8 
REMARK    2  A    between atoms: N_8  and  C_9 
REMARK    3  A    between atoms: C_9  and  C_10 
REMARK    4  A    between atoms: C_10  and  C_11 
REMARK    5  A    between atoms: C_11  and  N_12 
ROOT
HETATM    1  N   UNL     1     -41.479 -49.858  11.086  1.00  0.00    -0.309 N 
HETATM    2  C   UNL     1     -41.967 -50.421  12.247  1.00  0.00     0.320 C 
HETATM    3  O   UNL     1     -42.579 -49.839  13.134  1.00  0.00    -0.247 OA
HETATM    4  N   UNL     1     -41.692 -51.763  12.348  1.00  0.00    -0.343 N 
HETATM    5  H   UNL     1     -41.095 -50.487  10.399  1.00  0.00     0.170 HD
HETATM    6  H   UNL     1     -41.131 -52.226  11.651  1.00  0.00     0.164 HD
ENDROOT
BRANCH   1   7
HETATM    7  C   UNL     1     -41.519 -48.482  10.750  1.00  0.00     0.039 A 
HETATM    8  C   UNL     1     -42.558 -47.907  10.021  1.00  0.00     0.054 A 
HETATM    9  C   UNL     1     -42.544 -46.545   9.752  1.00  0.00     0.007 A 
HETATM   10  C   UNL     1     -43.683 -45.924   8.998  1.00  0.00     0.068 C 
HETATM   11  N   UNL     1     -41.548 -45.733  10.167  1.00  0.00    -0.369 N 
HETATM   12  C   UNL     1     -40.546 -46.305  10.872  1.00  0.00     0.090 A 
ATOM     13  HN  UNL     1     -41.551 -44.735   9.957  1.00  0.00     0.165 HD
HETATM   14  C   UNL     1     -40.487 -47.655  11.189  1.00  0.00     0.046 A 
ENDBRANCH   1   7
BRANCH   4  15
HETATM   15  C   UNL     1     -42.094 -52.497  13.538  1.00  0.00     0.126 C 
BRANCH  15  16
HETATM   16  C   UNL     1     -42.790 -53.808  13.189  1.00  0.00     0.039 C 
BRANCH  16  17
HETATM   17  C   UNL     1     -44.179 -53.571  12.586  1.00  0.00     0.127 C 
BRANCH  17  18
HETATM   18  N   UNL     1     -45.071 -52.933  13.541  1.00  0.00    -0.352 N 
HETATM   19  C   UNL     1     -45.622 -51.622  13.306  1.00  0.00     0.126 C 
HETATM   20  C   UNL     1     -46.680 -51.443  14.377  1.00  0.00     0.029 C 
HETATM   21  C   UNL     1     -46.993 -52.845  14.882  1.00  0.00     0.104 C 
HETATM   22  C   UNL     1     -45.817 -53.674  14.445  1.00  0.00     0.219 C 
HETATM   23  O   UNL     1     -45.621 -54.837  14.762  1.00  0.00    -0.273 OA
ENDBRANCH  17  18
ENDBRANCH  16  17
ENDBRANCH  15  16
ENDBRANCH   4  15
TORSDOF 5
ENDMDL
MODEL 5
REMARK VINA RESULT:      -6.3      4.224      6.323
REMARK  5 active torsions:
REMARK  status: ('A' for Active; 'I' for Inactive)
REMARK    1  A    between atoms: C_4  and  N_5 
REMARK       I    between atoms: N_5  and  C_6 
REMARK       I    between atoms: C_6  and  N_8 
REMARK    2  A    between atoms: N_8  and  C_9 
REMARK    3  A    between atoms: C_9  and  C_10 
REMARK    4  A    between atoms: C_10  and  C_11 
REMARK    5  A    between atoms: C_11  and  N_12 
ROOT
HETATM    1  N   UNL     1     -42.835 -52.342  11.942  1.00  0.00    -0.309 N 
HETATM    2  C   UNL     1     -41.664 -51.848  12.478  1.00  0.00     0.320 C 
HETATM    3  O   UNL     1     -41.367 -51.813  13.666  1.00  0.00    -0.247 OA
HETATM    4  N   UNL     1     -40.802 -51.360  11.525  1.00  0.00    -0.343 N 
HETATM    5  H   UNL     1     -42.887 -52.405  10.937  1.00  0.00     0.170 HD
HETATM    6  H   UNL     1     -41.075 -51.327  10.556  1.00  0.00     0.164 HD
ENDROOT
BRANCH   1   7
HETATM    7  C   UNL     1     -43.949 -52.817  12.677  1.00  0.00     0.039 A 
HETATM    8  C   UNL     1     -44.854 -51.971  13.316  1.00  0.00     0.054 A 
HETATM    9  C   UNL     1     -45.941 -52.507  13.995  1.00  0.00     0.007 A 
HETATM   10  C   UNL     1     -46.932 -51.591  14.651  1.00  0.00     0.068 C 
HETATM   11  N   UNL     1     -46.165 -53.836  14.072  1.00  0.00    -0.369 N 
HETATM   12  C   UNL     1     -45.279 -54.643  13.448  1.00  0.00     0.090 A 
ATOM     13  HN  UNL     1     -46.966 -54.213  14.579  1.00  0.00     0.165 HD
HETATM   14  C   UNL     1     -44.172 -54.190  12.744  1.00  0.00     0.046 A 
ENDBRANCH   1   7
BRANCH   4  15
HETATM   15  C   UNL     1     -39.543 -50.756  11.929  1.00  0.00     0.126 C 
BRANCH  15  16
HETATM   16  C   UNL     1     -39.476 -49.278  11.559  1.00  0.00     0.039 C 
BRANCH  16  17
HETATM   17  C   UNL     1     -40.323 -48.417  12.503  1.00  0.00     0.127 C 
BRANCH  17  18
HETATM   18  N   UNL     1     -41.354 -47.692  11.778  1.00  0.00    -0.352 N 
HETATM   19  C   UNL     1     -41.029 -46.695  10.789  1.00  0.00     0.126 C 
HETATM   20  C   UNL     1     -42.342 -46.384  10.098  1.00  0.00     0.029 C 
HETATM   21  C   UNL     1     -43.261 -47.554  10.420  1.00  0.00     0.104 C 
HETATM   22  C   UNL     1     -42.630 -48.212  11.616  1.00  0.00     0.219 C 
HETATM   23  O   UNL     1     -43.127 -49.121  12.262  1.00  0.00    -0.273 OA
ENDBRANCH  17  18
ENDBRANCH  16  17
ENDBRANCH  15  16
ENDBRANCH   4  15
TORSDOF 5
ENDMDL
MODEL 6
REMARK VINA RESULT:      -6.2      4.849      7.121
REMARK  5 active torsions:
REMARK  status: ('A' for Active; 'I' for Inactive)
REMARK    1  A    between atoms: C_4  and  N_5 
REMARK       I    between atoms: N_5  and  C_6 
REMARK       I    between atoms: C_6  and  N_8 
REMARK    2  A    between atoms: N_8  and  C_9 
REMARK    3  A    between atoms: C_9  and  C_10 
REMARK    4  A    between atoms: C_10  and  C_11 
REMARK    5  A    between atoms: C_11  and  N_12 
ROOT
HETATM    1  N   UNL     1     -42.117 -51.656  12.108  1.00  0.00    -0.309 N 
HETATM    2  C   UNL     1     -41.968 -52.583  13.118  1.00  0.00     0.320 C 
HETATM    3  O   UNL     1     -41.133 -52.553  14.013  1.00  0.00    -0.247 OA
HETATM    4  N   UNL     1     -42.874 -53.613  13.038  1.00  0.00    -0.343 N 
HETATM    5  H   UNL     1     -42.922 -51.758  11.509  1.00  0.00     0.170 HD
HETATM    6  H   UNL     1     -43.515 -53.673  12.264  1.00  0.00     0.164 HD
ENDROOT
BRANCH   1   7
HETATM    7  C   UNL     1     -41.272 -50.544  11.869  1.00  0.00     0.039 A 
HETATM    8  C   UNL     1     -39.883 -50.644  11.812  1.00  0.00     0.054 A 
HETATM    9  C   UNL     1     -39.119 -49.516  11.545  1.00  0.00     0.007 A 
HETATM   10  C   UNL     1     -37.626 -49.635  11.449  1.00  0.00     0.068 C 
HETATM   11  N   UNL     1     -39.667 -48.299  11.339  1.00  0.00    -0.369 N 
HETATM   12  C   UNL     1     -41.015 -48.218  11.398  1.00  0.00     0.090 A 
ATOM     13  HN  UNL     1     -39.091 -47.479  11.148  1.00  0.00     0.165 HD
HETATM   14  C   UNL     1     -41.851 -49.296  11.652  1.00  0.00     0.046 A 
ENDBRANCH   1   7
BRANCH   4  15
HETATM   15  C   UNL     1     -42.818 -54.702  14.000  1.00  0.00     0.126 C 
BRANCH  15  16
HETATM   16  C   UNL     1     -44.068 -54.755  14.872  1.00  0.00     0.039 C 
BRANCH  16  17
HETATM   17  C   UNL     1     -45.347 -54.818  14.029  1.00  0.00     0.127 C 
BRANCH  17  18
HETATM   18  N   UNL     1     -46.132 -53.601  14.164  1.00  0.00    -0.352 N 
HETATM   19  C   UNL     1     -46.472 -53.056  15.454  1.00  0.00     0.126 C 
HETATM   20  C   UNL     1     -47.045 -51.682  15.161  1.00  0.00     0.029 C 
HETATM   21  C   UNL     1     -46.576 -51.335  13.755  1.00  0.00     0.104 C 
HETATM   22  C   UNL     1     -46.184 -52.655  13.151  1.00  0.00     0.219 C 
HETATM   23  O   UNL     1     -45.868 -52.828  11.984  1.00  0.00    -0.273 OA
ENDBRANCH  17  18
ENDBRANCH  16  17
ENDBRANCH  15  16
ENDBRANCH   4  15
TORSDOF 5
ENDMDL
MODEL 7
REMARK VINA RESULT:      -6.2      2.775      8.024
REMARK  5 active torsions:
REMARK  status: ('A' for Active; 'I' for Inactive)
REMARK    1  A    between atoms: C_4  and  N_5 
REMARK       I    between atoms: N_5  and  C_6 
REMARK       I    between atoms: C_6  and  N_8 
REMARK    2  A    between atoms: N_8  and  C_9 
REMARK    3  A    between atoms: C_9  and  C_10 
REMARK    4  A    between atoms: C_10  and  C_11 
REMARK    5  A    between atoms: C_11  and  N_12 
ROOT
HETATM    1  N   UNL     1     -41.521 -51.064  11.386  1.00  0.00    -0.309 N 
HETATM    2  C   UNL     1     -41.420 -49.749  11.790  1.00  0.00     0.320 C 
HETATM    3  O   UNL     1     -41.299 -49.350  12.942  1.00  0.00    -0.247 OA
HETATM    4  N   UNL     1     -41.478 -48.860  10.743  1.00  0.00    -0.343 N 
HETATM    5  H   UNL     1     -41.503 -51.240  10.394  1.00  0.00     0.170 HD
HETATM    6  H   UNL     1     -41.646 -49.184   9.805  1.00  0.00     0.164 HD
ENDROOT
BRANCH   1   7
HETATM    7  C   UNL     1     -41.593 -52.192  12.240  1.00  0.00     0.039 A 
HETATM    8  C   UNL     1     -40.469 -52.798  12.795  1.00  0.00     0.054 A 
HETATM    9  C   UNL     1     -40.617 -53.885  13.647  1.00  0.00     0.007 A 
HETATM   10  C   UNL     1     -39.405 -54.512  14.271  1.00  0.00     0.068 C 
HETATM   11  N   UNL     1     -41.825 -54.397  13.967  1.00  0.00    -0.369 N 
HETATM   12  C   UNL     1     -42.907 -53.799  13.420  1.00  0.00     0.090 A 
ATOM     13  HN  UNL     1     -41.917 -55.198  14.591  1.00  0.00     0.165 HD
HETATM   14  C   UNL     1     -42.846 -52.706  12.566  1.00  0.00     0.046 A 
ENDBRANCH   1   7
BRANCH   4  15
HETATM   15  C   UNL     1     -41.438 -47.430  11.004  1.00  0.00     0.126 C 
BRANCH  15  16
HETATM   16  C   UNL     1     -42.804 -46.779  10.818  1.00  0.00     0.039 C 
BRANCH  16  17
HETATM   17  C   UNL     1     -43.166 -46.631   9.337  1.00  0.00     0.127 C 
BRANCH  17  18
HETATM   18  N   UNL     1     -44.245 -47.530   8.961  1.00  0.00    -0.352 N 
HETATM   19  C   UNL     1     -45.566 -47.410   9.526  1.00  0.00     0.126 C 
HETATM   20  C   UNL     1     -46.435 -48.334   8.696  1.00  0.00     0.029 C 
HETATM   21  C   UNL     1     -45.656 -48.583   7.411  1.00  0.00     0.104 C 
HETATM   22  C   UNL     1     -44.241 -48.204   7.748  1.00  0.00     0.219 C 
HETATM   23  O   UNL     1     -43.275 -48.375   7.021  1.00  0.00    -0.273 OA
ENDBRANCH  17  18
ENDBRANCH  16  17
ENDBRANCH  15  16
ENDBRANCH   4  15
TORSDOF 5
ENDMDL
MODEL 8
REMARK VINA RESULT:      -6.1      1.650      1.986
REMARK  5 active torsions:
REMARK  status: ('A' for Active; 'I' for Inactive)
REMARK    1  A    between atoms: C_4  and  N_5 
REMARK       I    between atoms: N_5  and  C_6 
REMARK       I    between atoms: C_6  and  N_8 
REMARK    2  A    between atoms: N_8  and  C_9 
REMARK    3  A    between atoms: C_9  and  C_10 
REMARK    4  A    between atoms: C_10  and  C_11 
REMARK    5  A    between atoms: C_11  and  N_12 
ROOT
HETATM    1  N   UNL     1     -41.983 -48.198   9.549  1.00  0.00    -0.309 N 
HETATM    2  C   UNL     1     -41.633 -48.846  10.715  1.00  0.00     0.320 C 
HETATM    3  O   UNL     1     -42.267 -48.849  11.763  1.00  0.00    -0.247 OA
HETATM    4  N   UNL     1     -40.443 -49.525  10.615  1.00  0.00    -0.343 N 
HETATM    5  H   UNL     1     -41.416 -48.382   8.736  1.00  0.00     0.170 HD
HETATM    6  H   UNL     1     -39.888 -49.467   9.776  1.00  0.00     0.164 HD
ENDROOT
BRANCH   1   7
HETATM    7  C   UNL     1     -43.097 -47.340   9.378  1.00  0.00     0.039 A 
HETATM    8  C   UNL     1     -44.403 -47.808   9.246  1.00  0.00     0.054 A 
HETATM    9  C   UNL     1     -45.451 -46.906   9.110  1.00  0.00     0.007 A 
HETATM   10  C   UNL     1     -46.859 -47.414   9.004  1.00  0.00     0.068 C 
HETATM   11  N   UNL     1     -45.261 -45.570   9.092  1.00  0.00    -0.369 N 
HETATM   12  C   UNL     1     -43.989 -45.131   9.220  1.00  0.00     0.090 A 
ATOM     13  HN  UNL     1     -46.041 -44.921   8.987  1.00  0.00     0.165 HD
HETATM   14  C   UNL     1     -42.887 -45.963   9.367  1.00  0.00     0.046 A 
ENDBRANCH   1   7
BRANCH   4  15
HETATM   15  C   UNL     1     -39.906 -50.221  11.773  1.00  0.00     0.126 C 
BRANCH  15  16
HETATM   16  C   UNL     1     -38.540 -49.677  12.180  1.00  0.00     0.039 C 
BRANCH  16  17
HETATM   17  C   UNL     1     -38.655 -48.613  13.277  1.00  0.00     0.127 C 
BRANCH  17  18
HETATM   18  N   UNL     1     -38.120 -49.094  14.541  1.00  0.00    -0.352 N 
HETATM   19  C   UNL     1     -38.425 -50.410  15.043  1.00  0.00     0.126 C 
HETATM   20  C   UNL     1     -37.484 -50.612  16.215  1.00  0.00     0.029 C 
HETATM   21  C   UNL     1     -36.377 -49.582  16.032  1.00  0.00     0.104 C 
HETATM   22  C   UNL     1     -36.957 -48.569  15.084  1.00  0.00     0.219 C 
HETATM   23  O   UNL     1     -36.429 -47.512  14.776  1.00  0.00    -0.273 OA
ENDBRANCH  17  18
ENDBRANCH  16  17
ENDBRANCH  15  16
ENDBRANCH   4  15
TORSDOF 5
ENDMDL
MODEL 9
REMARK VINA RESULT:      -5.9      1.945      2.962
REMARK  5 active torsions:
REMARK  status: ('A' for Active; 'I' for Inactive)
REMARK    1  A    between atoms: C_4  and  N_5 
REMARK       I    between atoms: N_5  and  C_6 
REMARK       I    between atoms: C_6  and  N_8 
REMARK    2  A    between atoms: N_8  and  C_9 
REMARK    3  A    between atoms: C_9  and  C_10 
REMARK    4  A    between atoms: C_10  and  C_11 
REMARK    5  A    between atoms: C_11  and  N_12 
ROOT
HETATM    1  N   UNL     1     -41.154 -48.924  10.521  1.00  0.00    -0.309 N 
HETATM    2  C   UNL     1     -41.388 -49.918  11.448  1.00  0.00     0.320 C 
HETATM    3  O   UNL     1     -42.317 -49.964  12.245  1.00  0.00    -0.247 OA
HETATM    4  N   UNL     1     -40.439 -50.911  11.421  1.00  0.00    -0.343 N 
HETATM    5  H   UNL     1     -40.410 -49.082   9.859  1.00  0.00     0.170 HD
HETATM    6  H   UNL     1     -39.638 -50.838  10.814  1.00  0.00     0.164 HD
ENDROOT
BRANCH   1   7
HETATM    7  C   UNL     1     -41.899 -47.727  10.380  1.00  0.00     0.039 A 
HETATM    8  C   UNL     1     -41.687 -46.603  11.176  1.00  0.00     0.054 A 
HETATM    9  C   UNL     1     -42.436 -45.453  10.962  1.00  0.00     0.007 A 
HETATM   10  C   UNL     1     -42.180 -44.233  11.798  1.00  0.00     0.068 C 
HETATM   11  N   UNL     1     -43.385 -45.372  10.005  1.00  0.00    -0.369 N 
HETATM   12  C   UNL     1     -43.580 -46.470   9.242  1.00  0.00     0.090 A 
ATOM     13  HN  UNL     1     -43.929 -44.521   9.864  1.00  0.00     0.165 HD
HETATM   14  C   UNL     1     -42.870 -47.655   9.384  1.00  0.00     0.046 A 
ENDBRANCH   1   7
BRANCH   4  15
HETATM   15  C   UNL     1     -40.511 -52.008  12.372  1.00  0.00     0.126 C 
BRANCH  15  16
HETATM   16  C   UNL     1     -39.562 -51.805  13.548  1.00  0.00     0.039 C 
BRANCH  16  17
HETATM   17  C   UNL     1     -38.273 -51.094  13.122  1.00  0.00     0.127 C 
BRANCH  17  18
HETATM   18  N   UNL     1     -38.005 -49.933  13.956  1.00  0.00    -0.352 N 
HETATM   19  C   UNL     1     -37.132 -50.006  15.101  1.00  0.00     0.126 C 
HETATM   20  C   UNL     1     -36.916 -48.566  15.522  1.00  0.00     0.029 C 
HETATM   21  C   UNL     1     -37.308 -47.723  14.316  1.00  0.00     0.104 C 
HETATM   22  C   UNL     1     -38.147 -48.642  13.471  1.00  0.00     0.219 C 
HETATM   23  O   UNL     1     -38.761 -48.310  12.470  1.00  0.00    -0.273 OA
ENDBRANCH  17  18
ENDBRANCH  16  17
ENDBRANCH  15  16
ENDBRANCH   4  15
TORSDOF 5
ENDMDL
