MODEL 1
REMARK VINA RESULT:      -6.7      0.000      0.000
REMARK  5 active torsions:
REMARK  status: ('A' for Active; 'I' for Inactive)
REMARK    1  A    between atoms: C_2  and  C_4 
REMARK    2  A    between atoms: C_4  and  C_5 
REMARK    3  A    between atoms: C_4  and  N_19 
REMARK    4  A    between atoms: C_5  and  N_6 
REMARK       I    between atoms: N_6  and  C_7 
REMARK       I    between atoms: C_7  and  N_9 
REMARK    5  A    between atoms: N_9  and  C_10 
ROOT
HETATM    1  N   UNL     1     -40.263 -48.402  10.984  1.00  0.00    -0.341 N 
HETATM    2  C   UNL     1     -40.750 -49.352  11.852  1.00  0.00     0.321 C 
HETATM    3  O   UNL     1     -41.150 -49.079  12.975  1.00  0.00    -0.247 OA
HETATM    4  N   UNL     1     -40.708 -50.609  11.297  1.00  0.00    -0.295 N 
HETATM    5  H   UNL     1     -40.070 -48.688  10.041  1.00  0.00     0.164 HD
HETATM    6  H   UNL     1     -39.929 -50.792  10.686  1.00  0.00     0.172 HD
ENDROOT
BRANCH   1   7
HETATM    7  C   UNL     1     -40.308 -46.996  11.341  1.00  0.00     0.160 C 
BRANCH   7   8
HETATM    8  C   UNL     1     -41.106 -46.005  10.396  1.00  0.00     0.244 C 
BRANCH   8   9
HETATM    9  C   UNL     1     -40.186 -44.689  10.255  1.00  0.00     0.012 C 
HETATM   10  C   UNL     1     -39.702 -44.160  11.625  1.00  0.00     0.012 C 
HETATM   11  C   UNL     1     -38.906 -44.788   9.408  1.00  0.00     0.012 C 
ENDBRANCH   8   9
BRANCH   8  12
HETATM   12  N   UNL     1     -42.513 -45.768  10.909  1.00  0.00     0.098 N 
HETATM   13  C   UNL     1     -43.302 -47.007  11.168  1.00  0.00     0.303 C 
HETATM   14  C   UNL     1     -43.645 -47.814   9.882  1.00  0.00     0.302 C 
HETATM   15  N   UNL     1     -44.351 -47.039   8.838  1.00  0.00     0.087 N 
HETATM   16  C   UNL     1     -45.770 -46.895   9.160  1.00  0.00     0.310 C 
HETATM   17  C   UNL     1     -43.712 -45.716   8.672  1.00  0.00     0.302 C 
HETATM   18  C   UNL     1     -43.402 -45.004  10.006  1.00  0.00     0.303 C 
ENDBRANCH   8  12
ENDBRANCH   7   8
ENDBRANCH   1   7
BRANCH   4  19
HETATM   19  C   UNL     1     -41.073 -51.748  12.015  1.00  0.00     0.109 A 
HETATM   20  C   UNL     1     -40.144 -52.570  12.636  1.00  0.00     0.055 A 
HETATM   21  C   UNL     1     -40.596 -53.725  13.280  1.00  0.00    -0.057 A 
HETATM   22  C   UNL     1     -39.637 -54.669  13.947  1.00  0.00     0.048 C 
HETATM   23  C   UNL     1     -41.957 -54.025  13.226  1.00  0.00     0.031 A 
HETATM   24  C   UNL     1     -42.820 -53.138  12.590  1.00  0.00     0.007 A 
HETATM   25  C   UNL     1     -44.274 -53.457  12.423  1.00  0.00     0.068 C 
HETATM   26  N   UNL     1     -42.399 -51.981  12.034  1.00  0.00    -0.346 N 
ATOM     27  HN  UNL     1     -43.060 -51.309  11.645  1.00  0.00     0.167 HD
ENDBRANCH   4  19
TORSDOF 5
ENDMDL
MODEL 2
REMARK VINA RESULT:      -6.6      2.541      4.510
REMARK  5 active torsions:
REMARK  status: ('A' for Active; 'I' for Inactive)
REMARK    1  A    between atoms: C_2  and  C_4 
REMARK    2  A    between atoms: C_4  and  C_5 
REMARK    3  A    between atoms: C_4  and  N_19 
REMARK    4  A    between atoms: C_5  and  N_6 
REMARK       I    between atoms: N_6  and  C_7 
REMARK       I    between atoms: C_7  and  N_9 
REMARK    5  A    between atoms: N_9  and  C_10 
ROOT
HETATM    1  N   UNL     1     -41.936 -50.656  11.848  1.00  0.00    -0.341 N 
HETATM    2  C   UNL     1     -42.654 -51.322  12.815  1.00  0.00     0.321 C 
HETATM    3  O   UNL     1     -42.123 -51.903  13.751  1.00  0.00    -0.247 OA
HETATM    4  N   UNL     1     -44.006 -51.254  12.572  1.00  0.00    -0.295 N 
HETATM    5  H   UNL     1     -42.449 -50.103  11.185  1.00  0.00     0.164 HD
HETATM    6  H   UNL     1     -44.278 -51.261  11.603  1.00  0.00     0.172 HD
ENDROOT
BRANCH   1   7
HETATM    7  C   UNL     1     -40.495 -50.526  11.969  1.00  0.00     0.160 C 
BRANCH   7   8
HETATM    8  C   UNL     1     -39.844 -49.105  11.708  1.00  0.00     0.244 C 
BRANCH   8   9
HETATM    9  C   UNL     1     -38.277 -49.266  12.051  1.00  0.00     0.012 C 
HETATM   10  C   UNL     1     -38.042 -49.949  13.418  1.00  0.00     0.012 C 
HETATM   11  C   UNL     1     -37.399 -50.059  11.070  1.00  0.00     0.012 C 
ENDBRANCH   8   9
BRANCH   8  12
HETATM   12  N   UNL     1     -40.573 -48.016  12.471  1.00  0.00     0.098 N 
HETATM   13  C   UNL     1     -41.941 -47.706  11.965  1.00  0.00     0.303 C 
HETATM   14  C   UNL     1     -41.956 -47.060  10.549  1.00  0.00     0.302 C 
HETATM   15  N   UNL     1     -41.137 -45.834  10.421  1.00  0.00     0.087 N 
HETATM   16  C   UNL     1     -41.832 -44.678  10.985  1.00  0.00     0.310 C 
HETATM   17  C   UNL     1     -39.826 -46.031  11.076  1.00  0.00     0.302 C 
HETATM   18  C   UNL     1     -39.920 -46.688  12.470  1.00  0.00     0.303 C 
ENDBRANCH   8  12
ENDBRANCH   7   8
ENDBRANCH   1   7
BRANCH   4  19
HETATM   19  C   UNL     1     -44.935 -51.923  13.370  1.00  0.00     0.109 A 
HETATM   20  C   UNL     1     -45.727 -51.270  14.303  1.00  0.00     0.055 A 
HETATM   21  C   UNL     1     -46.584 -52.030  15.103  1.00  0.00    -0.057 A 
HETATM   22  C   UNL     1     -47.447 -51.384  16.149  1.00  0.00     0.048 C 
HETATM   23  C   UNL     1     -46.568 -53.417  14.961  1.00  0.00     0.031 A 
HETATM   24  C   UNL     1     -45.750 -53.988  13.991  1.00  0.00     0.007 A 
HETATM   25  C   UNL     1     -45.625 -55.475  13.860  1.00  0.00     0.068 C 
HETATM   26  N   UNL     1     -44.977 -53.252  13.162  1.00  0.00    -0.346 N 
ATOM     27  HN  UNL     1     -44.447 -53.687  12.407  1.00  0.00     0.167 HD
ENDBRANCH   4  19
TORSDOF 5
ENDMDL
MODEL 3
REMARK VINA RESULT:      -6.4      1.456      3.703
REMARK  5 active torsions:
REMARK  status: ('A' for Active; 'I' for Inactive)
REMARK    1  A    between atoms: C_2  and  C_4 
REMARK    2  A    between atoms: C_4  and  C_5 
REMARK    3  A    between atoms: C_4  and  N_19 
REMARK    4  A    between atoms: C_5  and  N_6 
REMARK       I    between atoms: N_6  and  C_7 
REMARK       I    between atoms: C_7  and  N_9 
REMARK    5  A    between atoms: N_9  and  C_10 
ROOT
HETATM    1  N   UNL     1     -40.842 -49.426  10.667  1.00  0.00    -0.341 N 
HETATM    2  C   UNL     1     -41.079 -50.256  11.739  1.00  0.00     0.321 C 
HETATM    3  O   UNL     1     -40.990 -49.881  12.899  1.00  0.00    -0.247 OA
HETATM    4  N   UNL     1     -41.404 -51.526  11.326  1.00  0.00    -0.295 N 
HETATM    5  H   UNL     1     -41.057 -49.775   9.751  1.00  0.00     0.164 HD
HETATM    6  H   UNL     1     -40.942 -51.848  10.492  1.00  0.00     0.172 HD
ENDROOT
BRANCH   1   7
HETATM    7  C   UNL     1     -40.576 -48.015  10.883  1.00  0.00     0.160 C 
BRANCH   7   8
HETATM    8  C   UNL     1     -41.797 -47.005  10.845  1.00  0.00     0.244 C 
BRANCH   8   9
HETATM    9  C   UNL     1     -42.915 -47.695   9.910  1.00  0.00     0.012 C 
HETATM   10  C   UNL     1     -44.311 -47.708  10.574  1.00  0.00     0.012 C 
HETATM   11  C   UNL     1     -43.160 -47.097   8.515  1.00  0.00     0.012 C 
ENDBRANCH   8   9
BRANCH   8  12
HETATM   12  N   UNL     1     -41.354 -45.619  10.420  1.00  0.00     0.098 N 
HETATM   13  C   UNL     1     -39.960 -45.260  10.812  1.00  0.00     0.303 C 
HETATM   14  C   UNL     1     -39.756 -45.118  12.348  1.00  0.00     0.302 C 
HETATM   15  N   UNL     1     -40.672 -44.160  13.006  1.00  0.00     0.087 N 
HETATM   16  C   UNL     1     -40.232 -42.782  12.793  1.00  0.00     0.310 C 
HETATM   17  C   UNL     1     -42.050 -44.356  12.508  1.00  0.00     0.302 C 
HETATM   18  C   UNL     1     -42.143 -44.496  10.973  1.00  0.00     0.303 C 
ENDBRANCH   8  12
ENDBRANCH   7   8
ENDBRANCH   1   7
BRANCH   4  19
HETATM   19  C   UNL     1     -41.609 -52.568  12.232  1.00  0.00     0.109 A 
HETATM   20  C   UNL     1     -42.874 -53.006  12.595  1.00  0.00     0.055 A 
HETATM   21  C   UNL     1     -42.984 -54.013  13.558  1.00  0.00    -0.057 A 
HETATM   22  C   UNL     1     -44.326 -54.510  14.012  1.00  0.00     0.048 C 
HETATM   23  C   UNL     1     -41.817 -54.498  14.146  1.00  0.00     0.031 A 
HETATM   24  C   UNL     1     -40.588 -54.009  13.713  1.00  0.00     0.007 A 
HETATM   25  C   UNL     1     -39.312 -54.428  14.376  1.00  0.00     0.068 C 
HETATM   26  N   UNL     1     -40.472 -53.092  12.728  1.00  0.00    -0.346 N 
ATOM     27  HN  UNL     1     -39.559 -52.809  12.373  1.00  0.00     0.167 HD
ENDBRANCH   4  19
TORSDOF 5
ENDMDL
MODEL 4
REMARK VINA RESULT:      -6.4      1.970      3.564
REMARK  5 active torsions:
REMARK  status: ('A' for Active; 'I' for Inactive)
REMARK    1  A    between atoms: C_2  and  C_4 
REMARK    2  A    between atoms: C_4  and  C_5 
REMARK    3  A    between atoms: C_4  and  N_19 
REMARK    4  A    between atoms: C_5  and  N_6 
REMARK       I    between atoms: N_6  and  C_7 
REMARK       I    between atoms: C_7  and  N_9 
REMARK    5  A    between atoms: N_9  and  C_10 
ROOT
HETATM    1  N   UNL     1     -40.753 -51.119  11.201  1.00  0.00    -0.341 N 
HETATM    2  C   UNL     1     -41.520 -51.624  12.226  1.00  0.00     0.321 C 
HETATM    3  O   UNL     1     -42.207 -50.916  12.949  1.00  0.00    -0.247 OA
HETATM    4  N   UNL     1     -41.392 -52.989  12.323  1.00  0.00    -0.295 N 
HETATM    5  H   UNL     1     -40.317 -51.775  10.579  1.00  0.00     0.164 HD
HETATM    6  H   UNL     1     -40.482 -53.361  12.102  1.00  0.00     0.172 HD
ENDROOT
BRANCH   1   7
HETATM    7  C   UNL     1     -40.819 -49.707  10.868  1.00  0.00     0.160 C 
BRANCH   7   8
HETATM    8  C   UNL     1     -39.721 -48.739  11.474  1.00  0.00     0.244 C 
BRANCH   8   9
HETATM    9  C   UNL     1     -38.597 -49.695  12.124  1.00  0.00     0.012 C 
HETATM   10  C   UNL     1     -37.382 -49.895  11.188  1.00  0.00     0.012 C 
HETATM   11  C   UNL     1     -37.979 -49.276  13.468  1.00  0.00     0.012 C 
ENDBRANCH   8   9
BRANCH   8  12
HETATM   12  N   UNL     1     -40.340 -47.725  12.416  1.00  0.00     0.098 N 
HETATM   13  C   UNL     1     -41.794 -47.473  12.197  1.00  0.00     0.303 C 
HETATM   14  C   UNL     1     -42.114 -46.775  10.844  1.00  0.00     0.302 C 
HETATM   15  N   UNL     1     -41.397 -45.500  10.623  1.00  0.00     0.087 N 
HETATM   16  C   UNL     1     -42.024 -44.408  11.366  1.00  0.00     0.310 C 
HETATM   17  C   UNL     1     -39.976 -45.647  11.004  1.00  0.00     0.302 C 
HETATM   18  C   UNL     1     -39.765 -46.362  12.356  1.00  0.00     0.303 C 
ENDBRANCH   8  12
ENDBRANCH   7   8
ENDBRANCH   1   7
BRANCH   4  19
HETATM   19  C   UNL     1     -42.009 -53.720  13.339  1.00  0.00     0.109 A 
HETATM   20  C   UNL     1     -41.306 -54.260  14.405  1.00  0.00     0.055 A 
HETATM   21  C   UNL     1     -41.998 -55.032  15.342  1.00  0.00    -0.057 A 
HETATM   22  C   UNL     1     -41.288 -55.665  16.504  1.00  0.00     0.048 C 
HETATM   23  C   UNL     1     -43.357 -55.265  15.135  1.00  0.00     0.031 A 
HETATM   24  C   UNL     1     -43.986 -54.675  14.043  1.00  0.00     0.007 A 
HETATM   25  C   UNL     1     -45.419 -54.968  13.723  1.00  0.00     0.068 C 
HETATM   26  N   UNL     1     -43.338 -53.864  13.178  1.00  0.00    -0.346 N 
ATOM     27  HN  UNL     1     -43.837 -53.379  12.432  1.00  0.00     0.167 HD
ENDBRANCH   4  19
TORSDOF 5
ENDMDL
MODEL 5
REMARK VINA RESULT:      -6.4      1.656      7.685
REMARK  5 active torsions:
REMARK  status: ('A' for Active; 'I' for Inactive)
REMARK    1  A    between atoms: C_2  and  C_4 
REMARK    2  A    between atoms: C_4  and  C_5 
REMARK    3  A    between atoms: C_4  and  N_19 
REMARK    4  A    between atoms: C_5  and  N_6 
REMARK       I    between atoms: N_6  and  C_7 
REMARK       I    between atoms: C_7  and  N_9 
REMARK    5  A    between atoms: N_9  and  C_10 
ROOT
HETATM    1  N   UNL     1     -40.664 -51.288  11.817  1.00  0.00    -0.341 N 
HETATM    2  C   UNL     1     -40.993 -49.953  11.863  1.00  0.00     0.321 C 
HETATM    3  O   UNL     1     -41.171 -49.351  12.913  1.00  0.00    -0.247 OA
HETATM    4  N   UNL     1     -41.103 -49.419  10.601  1.00  0.00    -0.295 N 
HETATM    5  H   UNL     1     -40.414 -51.676  10.925  1.00  0.00     0.164 HD
HETATM    6  H   UNL     1     -41.468 -50.036   9.894  1.00  0.00     0.172 HD
ENDROOT
BRANCH   1   7
HETATM    7  C   UNL     1     -40.406 -52.019  13.044  1.00  0.00     0.160 C 
BRANCH   7   8
HETATM    8  C   UNL     1     -41.626 -52.721  13.772  1.00  0.00     0.244 C 
BRANCH   8   9
HETATM    9  C   UNL     1     -41.104 -54.184  14.203  1.00  0.00     0.012 C 
HETATM   10  C   UNL     1     -39.662 -54.460  13.718  1.00  0.00     0.012 C 
HETATM   11  C   UNL     1     -41.077 -54.531  15.701  1.00  0.00     0.012 C 
ENDBRANCH   8   9
BRANCH   8  12
HETATM   12  N   UNL     1     -42.870 -52.700  12.906  1.00  0.00     0.098 N 
HETATM   13  C   UNL     1     -43.844 -51.618  13.235  1.00  0.00     0.303 C 
HETATM   14  C   UNL     1     -44.520 -51.784  14.627  1.00  0.00     0.302 C 
HETATM   15  N   UNL     1     -45.200 -53.082  14.831  1.00  0.00     0.087 N 
HETATM   16  C   UNL     1     -46.502 -53.104  14.166  1.00  0.00     0.310 C 
HETATM   17  C   UNL     1     -44.342 -54.184  14.346  1.00  0.00     0.302 C 
HETATM   18  C   UNL     1     -43.710 -53.917  12.963  1.00  0.00     0.303 C 
ENDBRANCH   8  12
ENDBRANCH   7   8
ENDBRANCH   1   7
BRANCH   4  19
HETATM   19  C   UNL     1     -41.508 -48.101  10.388  1.00  0.00     0.109 A 
HETATM   20  C   UNL     1     -42.737 -47.777   9.832  1.00  0.00     0.055 A 
HETATM   21  C   UNL     1     -43.032 -46.431   9.596  1.00  0.00    -0.057 A 
HETATM   22  C   UNL     1     -44.334 -46.019   8.972  1.00  0.00     0.048 C 
HETATM   23  C   UNL     1     -42.056 -45.478   9.886  1.00  0.00     0.031 A 
HETATM   24  C   UNL     1     -40.855 -45.891  10.452  1.00  0.00     0.007 A 
HETATM   25  C   UNL     1     -39.740 -44.921  10.696  1.00  0.00     0.068 C 
HETATM   26  N   UNL     1     -40.595 -47.182  10.755  1.00  0.00    -0.346 N 
ATOM     27  HN  UNL     1     -39.740 -47.450  11.242  1.00  0.00     0.167 HD
ENDBRANCH   4  19
TORSDOF 5
ENDMDL
MODEL 6
REMARK VINA RESULT:      -6.4      2.012      3.985
REMARK  5 active torsions:
REMARK  status: ('A' for Active; 'I' for Inactive)
REMARK    1  A    between atoms: C_2  and  C_4 
REMARK    2  A    between atoms: C_4  and  C_5 
REMARK    3  A    between atoms: C_4  and  N_19 
REMARK    4  A    between atoms: C_5  and  N_6 
REMARK       I    between atoms: N_6  and  C_7 
REMARK       I    between atoms: C_7  and  N_9 
REMARK    5  A    between atoms: N_9  and  C_10 
ROOT
HETATM    1  N   UNL     1     -40.777 -50.978  11.193  1.00  0.00    -0.341 N 
HETATM    2  C   UNL     1     -41.610 -51.542  12.132  1.00  0.00     0.321 C 
HETATM    3  O   UNL     1     -42.334 -50.876  12.860  1.00  0.00    -0.247 OA
HETATM    4  N   UNL     1     -41.501 -52.912  12.141  1.00  0.00    -0.295 N 
HETATM    5  H   UNL     1     -40.309 -51.596  10.554  1.00  0.00     0.164 HD
HETATM    6  H   UNL     1     -40.584 -53.280  11.950  1.00  0.00     0.172 HD
ENDROOT
BRANCH   1   7
HETATM    7  C   UNL     1     -40.809 -49.546  10.955  1.00  0.00     0.160 C 
BRANCH   7   8
HETATM    8  C   UNL     1     -39.670 -48.651  11.599  1.00  0.00     0.244 C 
BRANCH   8   9
HETATM    9  C   UNL     1     -38.564 -49.680  12.164  1.00  0.00     0.012 C 
HETATM   10  C   UNL     1     -37.382 -49.867  11.185  1.00  0.00     0.012 C 
HETATM   11  C   UNL     1     -37.898 -49.358  13.512  1.00  0.00     0.012 C 
ENDBRANCH   8   9
BRANCH   8  12
HETATM   12  N   UNL     1     -40.241 -47.682  12.616  1.00  0.00     0.098 N 
HETATM   13  C   UNL     1     -41.705 -47.429  12.487  1.00  0.00     0.303 C 
HETATM   14  C   UNL     1     -42.100 -46.674  11.184  1.00  0.00     0.302 C 
HETATM   15  N   UNL     1     -41.399 -45.387  10.981  1.00  0.00     0.087 N 
HETATM   16  C   UNL     1     -41.989 -44.332  11.803  1.00  0.00     0.310 C 
HETATM   17  C   UNL     1     -39.959 -45.543  11.278  1.00  0.00     0.302 C 
HETATM   18  C   UNL     1     -39.674 -46.315  12.585  1.00  0.00     0.303 C 
ENDBRANCH   8  12
ENDBRANCH   7   8
ENDBRANCH   1   7
BRANCH   4  19
HETATM   19  C   UNL     1     -42.187 -53.702  13.064  1.00  0.00     0.109 A 
HETATM   20  C   UNL     1     -43.539 -53.988  12.945  1.00  0.00     0.055 A 
HETATM   21  C   UNL     1     -44.158 -54.735  13.952  1.00  0.00    -0.057 A 
HETATM   22  C   UNL     1     -45.624 -55.054  13.893  1.00  0.00     0.048 C 
HETATM   23  C   UNL     1     -43.397 -55.117  15.056  1.00  0.00     0.031 A 
HETATM   24  C   UNL     1     -42.043 -54.797  15.088  1.00  0.00     0.007 A 
HETATM   25  C   UNL     1     -41.204 -55.102  16.291  1.00  0.00     0.068 C 
HETATM   26  N   UNL     1     -41.423 -54.143  14.082  1.00  0.00    -0.346 N 
ATOM     27  HN  UNL     1     -40.415 -53.990  14.092  1.00  0.00     0.167 HD
ENDBRANCH   4  19
TORSDOF 5
ENDMDL
MODEL 7
REMARK VINA RESULT:      -6.2      2.145      7.674
REMARK  5 active torsions:
REMARK  status: ('A' for Active; 'I' for Inactive)
REMARK    1  A    between atoms: C_2  and  C_4 
REMARK    2  A    between atoms: C_4  and  C_5 
REMARK    3  A    between atoms: C_4  and  N_19 
REMARK    4  A    between atoms: C_5  and  N_6 
REMARK       I    between atoms: N_6  and  C_7 
REMARK       I    between atoms: C_7  and  N_9 
REMARK    5  A    between atoms: N_9  and  C_10 
ROOT
HETATM    1  N   UNL     1     -40.631 -52.225  11.787  1.00  0.00    -0.341 N 
HETATM    2  C   UNL     1     -41.229 -50.986  11.797  1.00  0.00     0.321 C 
HETATM    3  O   UNL     1     -42.293 -50.770  12.360  1.00  0.00    -0.247 OA
HETATM    4  N   UNL     1     -40.490 -50.067  11.092  1.00  0.00    -0.295 N 
HETATM    5  H   UNL     1     -39.702 -52.291  11.410  1.00  0.00     0.164 HD
HETATM    6  H   UNL     1     -40.005 -50.420  10.283  1.00  0.00     0.172 HD
ENDROOT
BRANCH   1   7
HETATM    7  C   UNL     1     -41.201 -53.317  12.555  1.00  0.00     0.160 C 
BRANCH   7   8
HETATM    8  C   UNL     1     -41.035 -53.296  14.131  1.00  0.00     0.244 C 
BRANCH   8   9
HETATM    9  C   UNL     1     -39.461 -53.496  14.414  1.00  0.00     0.012 C 
HETATM   10  C   UNL     1     -38.929 -52.525  15.494  1.00  0.00     0.012 C 
HETATM   11  C   UNL     1     -38.979 -54.881  14.874  1.00  0.00     0.012 C 
ENDBRANCH   8   9
BRANCH   8  12
HETATM   12  N   UNL     1     -41.952 -54.304  14.795  1.00  0.00     0.098 N 
HETATM   13  C   UNL     1     -43.320 -54.391  14.205  1.00  0.00     0.303 C 
HETATM   14  C   UNL     1     -44.177 -53.109  14.415  1.00  0.00     0.302 C 
HETATM   15  N   UNL     1     -44.319 -52.686  15.825  1.00  0.00     0.087 N 
HETATM   16  C   UNL     1     -45.317 -53.499  16.520  1.00  0.00     0.310 C 
HETATM   17  C   UNL     1     -43.011 -52.760  16.510  1.00  0.00     0.302 C 
HETATM   18  C   UNL     1     -42.235 -54.065  16.228  1.00  0.00     0.303 C 
ENDBRANCH   8  12
ENDBRANCH   7   8
ENDBRANCH   1   7
BRANCH   4  19
HETATM   19  C   UNL     1     -40.933 -48.759  10.890  1.00  0.00     0.109 A 
HETATM   20  C   UNL     1     -40.207 -47.651  11.303  1.00  0.00     0.055 A 
HETATM   21  C   UNL     1     -40.760 -46.381  11.116  1.00  0.00    -0.057 A 
HETATM   22  C   UNL     1     -40.035 -45.145  11.566  1.00  0.00     0.048 C 
HETATM   23  C   UNL     1     -42.039 -46.288  10.568  1.00  0.00     0.031 A 
HETATM   24  C   UNL     1     -42.691 -47.452  10.172  1.00  0.00     0.007 A 
HETATM   25  C   UNL     1     -44.099 -47.415   9.664  1.00  0.00     0.068 C 
HETATM   26  N   UNL     1     -42.129 -48.676  10.278  1.00  0.00    -0.346 N 
ATOM     27  HN  UNL     1     -42.593 -49.505   9.907  1.00  0.00     0.167 HD
ENDBRANCH   4  19
TORSDOF 5
ENDMDL
MODEL 8
REMARK VINA RESULT:      -6.2      2.324      4.745
REMARK  5 active torsions:
REMARK  status: ('A' for Active; 'I' for Inactive)
REMARK    1  A    between atoms: C_2  and  C_4 
REMARK    2  A    between atoms: C_4  and  C_5 
REMARK    3  A    between atoms: C_4  and  N_19 
REMARK    4  A    between atoms: C_5  and  N_6 
REMARK       I    between atoms: N_6  and  C_7 
REMARK       I    between atoms: C_7  and  N_9 
REMARK    5  A    between atoms: N_9  and  C_10 
ROOT
HETATM    1  N   UNL     1     -40.859 -50.868  11.040  1.00  0.00    -0.341 N 
HETATM    2  C   UNL     1     -41.311 -51.536  12.155  1.00  0.00     0.321 C 
HETATM    3  O   UNL     1     -40.987 -51.221  13.292  1.00  0.00    -0.247 OA
HETATM    4  N   UNL     1     -42.137 -52.580  11.814  1.00  0.00    -0.295 N 
HETATM    5  H   UNL     1     -41.267 -51.109  10.155  1.00  0.00     0.164 HD
HETATM    6  H   UNL     1     -41.906 -53.060  10.959  1.00  0.00     0.172 HD
ENDROOT
BRANCH   1   7
HETATM    7  C   UNL     1     -40.048 -49.672  11.185  1.00  0.00     0.160 C 
BRANCH   7   8
HETATM    8  C   UNL     1     -40.698 -48.402  11.876  1.00  0.00     0.244 C 
BRANCH   8   9
HETATM    9  C   UNL     1     -41.638 -47.721  10.757  1.00  0.00     0.012 C 
HETATM   10  C   UNL     1     -43.141 -47.841  11.100  1.00  0.00     0.012 C 
HETATM   11  C   UNL     1     -41.434 -46.228  10.451  1.00  0.00     0.012 C 
ENDBRANCH   8   9
BRANCH   8  12
HETATM   12  N   UNL     1     -39.639 -47.500  12.477  1.00  0.00     0.098 N 
HETATM   13  C   UNL     1     -38.467 -48.213  13.064  1.00  0.00     0.303 C 
HETATM   14  C   UNL     1     -38.813 -49.056  14.326  1.00  0.00     0.302 C 
HETATM   15  N   UNL     1     -39.471 -48.298  15.413  1.00  0.00     0.087 N 
HETATM   16  C   UNL     1     -38.497 -47.513  16.170  1.00  0.00     0.310 C 
HETATM   17  C   UNL     1     -40.528 -47.428  14.854  1.00  0.00     0.302 C 
HETATM   18  C   UNL     1     -40.088 -46.644  13.598  1.00  0.00     0.303 C 
ENDBRANCH   8  12
ENDBRANCH   7   8
ENDBRANCH   1   7
BRANCH   4  19
HETATM   19  C   UNL     1     -42.655 -53.456  12.769  1.00  0.00     0.109 A 
HETATM   20  C   UNL     1     -43.994 -53.816  12.804  1.00  0.00     0.055 A 
HETATM   21  C   UNL     1     -44.436 -54.649  13.836  1.00  0.00    -0.057 A 
HETATM   22  C   UNL     1     -45.879 -55.052  13.945  1.00  0.00     0.048 C 
HETATM   23  C   UNL     1     -43.520 -55.041  14.811  1.00  0.00     0.031 A 
HETATM   24  C   UNL     1     -42.192 -54.641  14.691  1.00  0.00     0.007 A 
HETATM   25  C   UNL     1     -41.189 -54.956  15.758  1.00  0.00     0.068 C 
HETATM   26  N   UNL     1     -41.743 -53.901  13.654  1.00  0.00    -0.346 N 
ATOM     27  HN  UNL     1     -40.752 -53.689  13.545  1.00  0.00     0.167 HD
ENDBRANCH   4  19
TORSDOF 5
ENDMDL
MODEL 9
REMARK VINA RESULT:      -6.1      2.034      8.325
REMARK  5 active torsions:
REMARK  status: ('A' for Active; 'I' for Inactive)
REMARK    1  A    between atoms: C_2  and  C_4 
REMARK    2  A    between atoms: C_4  and  C_5 
REMARK    3  A    between atoms: C_4  and  N_19 
REMARK    4  A    between atoms: C_5  and  N_6 
REMARK       I    between atoms: N_6  and  C_7 
REMARK       I    between atoms: C_7  and  N_9 
REMARK    5  A    between atoms: N_9  and  C_10 
ROOT
HETATM    1  N   UNL     1     -40.784 -51.369  11.571  1.00  0.00    -0.341 N 
HETATM    2  C   UNL     1     -41.013 -50.019  11.713  1.00  0.00     0.321 C 
HETATM    3  O   UNL     1     -41.057 -49.467  12.803  1.00  0.00    -0.247 OA
HETATM    4  N   UNL     1     -41.193 -49.410  10.494  1.00  0.00    -0.295 N 
HETATM    5  H   UNL     1     -40.640 -51.722  10.642  1.00  0.00     0.164 HD
HETATM    6  H   UNL     1     -41.661 -49.961   9.793  1.00  0.00     0.172 HD
ENDROOT
BRANCH   1   7
HETATM    7  C   UNL     1     -40.473 -52.183  12.732  1.00  0.00     0.160 C 
BRANCH   7   8
HETATM    8  C   UNL     1     -41.657 -52.959  13.445  1.00  0.00     0.244 C 
BRANCH   8   9
HETATM    9  C   UNL     1     -43.006 -52.502  12.689  1.00  0.00     0.012 C 
HETATM   10  C   UNL     1     -43.953 -53.691  12.407  1.00  0.00     0.012 C 
HETATM   11  C   UNL     1     -43.899 -51.454  13.373  1.00  0.00     0.012 C 
ENDBRANCH   8   9
BRANCH   8  12
HETATM   12  N   UNL     1     -41.640 -52.733  14.944  1.00  0.00     0.098 N 
HETATM   13  C   UNL     1     -40.302 -52.892  15.586  1.00  0.00     0.303 C 
HETATM   14  C   UNL     1     -39.761 -54.351  15.555  1.00  0.00     0.302 C 
HETATM   15  N   UNL     1     -40.669 -55.359  16.145  1.00  0.00     0.087 N 
HETATM   16  C   UNL     1     -40.601 -55.337  17.605  1.00  0.00     0.310 C 
HETATM   17  C   UNL     1     -42.053 -55.127  15.679  1.00  0.00     0.302 C 
HETATM   18  C   UNL     1     -42.489 -53.647  15.739  1.00  0.00     0.303 C 
ENDBRANCH   8  12
ENDBRANCH   7   8
ENDBRANCH   1   7
BRANCH   4  19
HETATM   19  C   UNL     1     -41.521 -48.058  10.384  1.00  0.00     0.109 A 
HETATM   20  C   UNL     1     -42.695 -47.620   9.789  1.00  0.00     0.055 A 
HETATM   21  C   UNL     1     -42.910 -46.244   9.665  1.00  0.00    -0.057 A 
HETATM   22  C   UNL     1     -44.148 -45.708   9.006  1.00  0.00     0.048 C 
HETATM   23  C   UNL     1     -41.911 -45.375  10.103  1.00  0.00     0.031 A 
HETATM   24  C   UNL     1     -40.770 -45.902  10.699  1.00  0.00     0.007 A 
HETATM   25  C   UNL     1     -39.628 -45.019  11.100  1.00  0.00     0.068 C 
HETATM   26  N   UNL     1     -40.591 -47.227  10.891  1.00  0.00    -0.346 N 
ATOM     27  HN  UNL     1     -39.784 -47.584  11.402  1.00  0.00     0.167 HD
ENDBRANCH   4  19
TORSDOF 5
ENDMDL
