MODEL 1
REMARK VINA RESULT:      -5.9      0.000      0.000
REMARK  3 active torsions:
REMARK  status: ('A' for Active; 'I' for Inactive)
REMARK    1  A    between atoms: C_4  and  C_5 
REMARK    2  A    between atoms: C_5  and  C_6 
REMARK    3  A    between atoms: C_6  and  N_7 
REMARK       I    between atoms: N_7  and  C_8 
REMARK       I    between atoms: C_8  and  N_10 
ROOT
HETATM    1  N   UNL     1     -43.657 -49.855  13.911  1.00  0.00    -0.343 N 
HETATM    2  C   UNL     1     -43.560 -51.045  13.235  1.00  0.00     0.318 C 
HETATM    3  O   UNL     1     -42.563 -51.335  12.579  1.00  0.00    -0.247 OA
HETATM    4  N   UNL     1     -44.674 -51.872  13.341  1.00  0.00    -0.334 N 
HETATM    5  C   UNL     1     -44.714 -53.068  12.494  1.00  0.00     0.127 C 
HETATM    6  C   UNL     1     -44.343 -54.336  13.259  1.00  0.00     0.020 C 
HETATM    7  C   UNL     1     -45.519 -55.011  13.966  1.00  0.00     0.002 C 
HETATM    8  C   UNL     1     -46.536 -54.091  14.638  1.00  0.00     0.002 C 
HETATM    9  C   UNL     1     -45.937 -52.850  15.289  1.00  0.00     0.020 C 
HETATM   10  C   UNL     1     -45.764 -51.690  14.304  1.00  0.00     0.127 C 
HETATM   11  H   UNL     1     -44.582 -49.458  13.912  1.00  0.00     0.164 HD
ENDROOT
BRANCH   1  12
HETATM   12  C   UNL     1     -42.560 -48.902  13.867  1.00  0.00     0.129 C 
BRANCH  12  13
HETATM   13  C   UNL     1     -42.901 -47.638  13.073  1.00  0.00     0.061 C 
BRANCH  13  14
HETATM   14  C   UNL     1     -42.752 -47.788  11.598  1.00  0.00    -0.023 A 
HETATM   15  C   UNL     1     -43.637 -47.419  10.604  1.00  0.00     0.118 A 
HETATM   16  N   UNL     1     -43.056 -47.769   9.420  1.00  0.00    -0.308 N 
HETATM   17  C   UNL     1     -43.606 -47.599   8.098  1.00  0.00     0.177 C 
HETATM   18  N   UNL     1     -41.841 -48.328   9.567  1.00  0.00    -0.310 N 
HETATM   19  C   UNL     1     -41.659 -48.336  10.890  1.00  0.00     0.115 A 
ATOM     20  HN  UNL     1     -41.209 -48.665   8.841  1.00  0.00     0.186 HD
ENDBRANCH  13  14
ENDBRANCH  12  13
ENDBRANCH   1  12
TORSDOF 3
ENDMDL
MODEL 2
REMARK VINA RESULT:      -5.8      2.359      2.877
REMARK  3 active torsions:
REMARK  status: ('A' for Active; 'I' for Inactive)
REMARK    1  A    between atoms: C_4  and  C_5 
REMARK    2  A    between atoms: C_5  and  C_6 
REMARK    3  A    between atoms: C_6  and  N_7 
REMARK       I    between atoms: N_7  and  C_8 
REMARK       I    between atoms: C_8  and  N_10 
ROOT
HETATM    1  N   UNL     1     -41.039 -51.105  11.532  1.00  0.00    -0.343 N 
HETATM    2  C   UNL     1     -40.638 -52.150  12.325  1.00  0.00     0.318 C 
HETATM    3  O   UNL     1     -39.493 -52.224  12.763  1.00  0.00    -0.247 OA
HETATM    4  N   UNL     1     -41.615 -53.110  12.570  1.00  0.00    -0.334 N 
HETATM    5  C   UNL     1     -41.201 -54.341  13.249  1.00  0.00     0.127 C 
HETATM    6  C   UNL     1     -41.563 -54.340  14.732  1.00  0.00     0.020 C 
HETATM    7  C   UNL     1     -42.970 -54.853  15.036  1.00  0.00     0.002 C 
HETATM    8  C   UNL     1     -44.078 -54.434  14.072  1.00  0.00     0.002 C 
HETATM    9  C   UNL     1     -43.944 -53.016  13.527  1.00  0.00     0.020 C 
HETATM   10  C   UNL     1     -43.044 -52.941  12.290  1.00  0.00     0.127 C 
HETATM   11  H   UNL     1     -41.685 -51.365  10.805  1.00  0.00     0.164 HD
ENDROOT
BRANCH   1  12
HETATM   12  C   UNL     1     -40.104 -50.044  11.196  1.00  0.00     0.129 C 
BRANCH  12  13
HETATM   13  C   UNL     1     -40.415 -48.727  11.912  1.00  0.00     0.061 C 
BRANCH  13  14
HETATM   14  C   UNL     1     -41.097 -47.715  11.055  1.00  0.00    -0.023 A 
HETATM   15  C   UNL     1     -42.287 -47.837  10.364  1.00  0.00     0.118 A 
HETATM   16  N   UNL     1     -42.484 -46.648   9.723  1.00  0.00    -0.308 N 
HETATM   17  C   UNL     1     -43.586 -46.298   8.862  1.00  0.00     0.177 C 
HETATM   18  N   UNL     1     -41.514 -45.747   9.960  1.00  0.00    -0.310 N 
HETATM   19  C   UNL     1     -40.674 -46.397  10.770  1.00  0.00     0.115 A 
ATOM     20  HN  UNL     1     -41.437 -44.794   9.605  1.00  0.00     0.186 HD
ENDBRANCH  13  14
ENDBRANCH  12  13
ENDBRANCH   1  12
TORSDOF 3
ENDMDL
MODEL 3
REMARK VINA RESULT:      -5.6      2.391      3.058
REMARK  3 active torsions:
REMARK  status: ('A' for Active; 'I' for Inactive)
REMARK    1  A    between atoms: C_4  and  C_5 
REMARK    2  A    between atoms: C_5  and  C_6 
REMARK    3  A    between atoms: C_6  and  N_7 
REMARK       I    between atoms: N_7  and  C_8 
REMARK       I    between atoms: C_8  and  N_10 
ROOT
HETATM    1  N   UNL     1     -42.424 -49.779  11.839  1.00  0.00    -0.343 N 
HETATM    2  C   UNL     1     -41.456 -50.706  12.130  1.00  0.00     0.318 C 
HETATM    3  O   UNL     1     -40.266 -50.405  12.166  1.00  0.00    -0.247 OA
HETATM    4  N   UNL     1     -41.927 -51.995  12.359  1.00  0.00    -0.334 N 
HETATM    5  C   UNL     1     -40.935 -53.066  12.488  1.00  0.00     0.127 C 
HETATM    6  C   UNL     1     -40.683 -53.456  13.942  1.00  0.00     0.020 C 
HETATM    7  C   UNL     1     -41.642 -54.516  14.484  1.00  0.00     0.002 C 
HETATM    8  C   UNL     1     -43.105 -54.401  14.061  1.00  0.00     0.002 C 
HETATM    9  C   UNL     1     -43.622 -52.971  13.946  1.00  0.00     0.020 C 
HETATM   10  C   UNL     1     -43.333 -52.346  12.578  1.00  0.00     0.127 C 
HETATM   11  H   UNL     1     -43.188 -50.141  11.292  1.00  0.00     0.164 HD
ENDROOT
BRANCH   1  12
HETATM   12  C   UNL     1     -42.055 -48.399  11.570  1.00  0.00     0.129 C 
BRANCH  12  13
HETATM   13  C   UNL     1     -42.122 -48.043  10.082  1.00  0.00     0.061 C 
BRANCH  13  14
HETATM   14  C   UNL     1     -43.402 -47.401   9.668  1.00  0.00    -0.023 A 
HETATM   15  C   UNL     1     -44.683 -47.910   9.745  1.00  0.00     0.118 A 
HETATM   16  N   UNL     1     -45.511 -46.952   9.236  1.00  0.00    -0.308 N 
HETATM   17  C   UNL     1     -46.943 -47.029   9.091  1.00  0.00     0.177 C 
HETATM   18  N   UNL     1     -44.862 -45.840   8.844  1.00  0.00    -0.310 N 
HETATM   19  C   UNL     1     -43.582 -46.115   9.109  1.00  0.00     0.115 A 
ATOM     20  HN  UNL     1     -45.255 -44.989   8.440  1.00  0.00     0.186 HD
ENDBRANCH  13  14
ENDBRANCH  12  13
ENDBRANCH   1  12
TORSDOF 3
ENDMDL
MODEL 4
REMARK VINA RESULT:      -5.6      1.831      2.356
REMARK  3 active torsions:
REMARK  status: ('A' for Active; 'I' for Inactive)
REMARK    1  A    between atoms: C_4  and  C_5 
REMARK    2  A    between atoms: C_5  and  C_6 
REMARK    3  A    between atoms: C_6  and  N_7 
REMARK       I    between atoms: N_7  and  C_8 
REMARK       I    between atoms: C_8  and  N_10 
ROOT
HETATM    1  N   UNL     1     -42.619 -51.077  12.357  1.00  0.00    -0.343 N 
HETATM    2  C   UNL     1     -42.938 -52.377  12.654  1.00  0.00     0.318 C 
HETATM    3  O   UNL     1     -42.087 -53.263  12.666  1.00  0.00    -0.247 OA
HETATM    4  N   UNL     1     -44.284 -52.606  12.920  1.00  0.00    -0.334 N 
HETATM    5  C   UNL     1     -44.721 -53.998  13.058  1.00  0.00     0.127 C 
HETATM    6  C   UNL     1     -44.896 -54.412  14.517  1.00  0.00     0.020 C 
HETATM    7  C   UNL     1     -46.276 -54.104  15.098  1.00  0.00     0.002 C 
HETATM    8  C   UNL     1     -46.911 -52.775  14.694  1.00  0.00     0.002 C 
HETATM    9  C   UNL     1     -45.927 -51.618  14.555  1.00  0.00     0.020 C 
HETATM   10  C   UNL     1     -45.278 -51.558  13.169  1.00  0.00     0.127 C 
HETATM   11  H   UNL     1     -43.327 -50.591  11.831  1.00  0.00     0.164 HD
ENDROOT
BRANCH   1  12
HETATM   12  C   UNL     1     -41.245 -50.715  12.051  1.00  0.00     0.129 C 
BRANCH  12  13
HETATM   13  C   UNL     1     -40.814 -49.401  12.708  1.00  0.00     0.061 C 
BRANCH  13  14
HETATM   14  C   UNL     1     -40.774 -48.239  11.776  1.00  0.00    -0.023 A 
HETATM   15  C   UNL     1     -39.911 -47.161  11.785  1.00  0.00     0.118 A 
HETATM   16  N   UNL     1     -40.279 -46.363  10.741  1.00  0.00    -0.308 N 
HETATM   17  C   UNL     1     -39.682 -45.109  10.353  1.00  0.00     0.177 C 
HETATM   18  N   UNL     1     -41.315 -46.852  10.035  1.00  0.00    -0.310 N 
HETATM   19  C   UNL     1     -41.612 -47.992  10.665  1.00  0.00     0.115 A 
ATOM     20  HN  UNL     1     -41.767 -46.448   9.215  1.00  0.00     0.186 HD
ENDBRANCH  13  14
ENDBRANCH  12  13
ENDBRANCH   1  12
TORSDOF 3
ENDMDL
MODEL 5
REMARK VINA RESULT:      -5.5      3.353      7.022
REMARK  3 active torsions:
REMARK  status: ('A' for Active; 'I' for Inactive)
REMARK    1  A    between atoms: C_4  and  C_5 
REMARK    2  A    between atoms: C_5  and  C_6 
REMARK    3  A    between atoms: C_6  and  N_7 
REMARK       I    between atoms: N_7  and  C_8 
REMARK       I    between atoms: C_8  and  N_10 
ROOT
HETATM    1  N   UNL     1     -41.436 -53.070  13.245  1.00  0.00    -0.343 N 
HETATM    2  C   UNL     1     -40.091 -52.827  13.365  1.00  0.00     0.318 C 
HETATM    3  O   UNL     1     -39.288 -53.732  13.574  1.00  0.00    -0.247 OA
HETATM    4  N   UNL     1     -39.723 -51.490  13.250  1.00  0.00    -0.334 N 
HETATM    5  C   UNL     1     -38.333 -51.140  13.555  1.00  0.00     0.127 C 
HETATM    6  C   UNL     1     -37.492 -50.944  12.297  1.00  0.00     0.020 C 
HETATM    7  C   UNL     1     -37.539 -49.528  11.723  1.00  0.00     0.002 C 
HETATM    8  C   UNL     1     -38.893 -48.822  11.745  1.00  0.00     0.002 C 
HETATM    9  C   UNL     1     -40.088 -49.732  11.482  1.00  0.00     0.020 C 
HETATM   10  C   UNL     1     -40.595 -50.422  12.752  1.00  0.00     0.127 C 
HETATM   11  H   UNL     1     -42.020 -52.350  13.639  1.00  0.00     0.164 HD
ENDROOT
BRANCH   1  12
HETATM   12  C   UNL     1     -41.944 -54.427  13.358  1.00  0.00     0.129 C 
BRANCH  12  13
HETATM   13  C   UNL     1     -42.894 -54.611  14.545  1.00  0.00     0.061 C 
BRANCH  13  14
HETATM   14  C   UNL     1     -44.230 -53.976  14.358  1.00  0.00    -0.023 A 
HETATM   15  C   UNL     1     -44.650 -52.724  14.762  1.00  0.00     0.118 A 
HETATM   16  N   UNL     1     -45.951 -52.608  14.369  1.00  0.00    -0.308 N 
HETATM   17  C   UNL     1     -46.826 -51.482  14.582  1.00  0.00     0.177 C 
HETATM   18  N   UNL     1     -46.411 -53.693  13.720  1.00  0.00    -0.310 N 
HETATM   19  C   UNL     1     -45.364 -54.521  13.713  1.00  0.00     0.115 A 
ATOM     20  HN  UNL     1     -47.340 -53.847  13.326  1.00  0.00     0.186 HD
ENDBRANCH  13  14
ENDBRANCH  12  13
ENDBRANCH   1  12
TORSDOF 3
ENDMDL
MODEL 6
REMARK VINA RESULT:      -5.4      3.518      5.132
REMARK  3 active torsions:
REMARK  status: ('A' for Active; 'I' for Inactive)
REMARK    1  A    between atoms: C_4  and  C_5 
REMARK    2  A    between atoms: C_5  and  C_6 
REMARK    3  A    between atoms: C_6  and  N_7 
REMARK       I    between atoms: N_7  and  C_8 
REMARK       I    between atoms: C_8  and  N_10 
ROOT
HETATM    1  N   UNL     1     -42.800 -54.867  15.070  1.00  0.00    -0.343 N 
HETATM    2  C   UNL     1     -43.805 -54.124  15.637  1.00  0.00     0.318 C 
HETATM    3  O   UNL     1     -43.750 -53.751  16.806  1.00  0.00    -0.247 OA
HETATM    4  N   UNL     1     -44.879 -53.850  14.796  1.00  0.00    -0.334 N 
HETATM    5  C   UNL     1     -46.064 -53.226  15.391  1.00  0.00     0.127 C 
HETATM    6  C   UNL     1     -46.134 -51.726  15.118  1.00  0.00     0.020 C 
HETATM    7  C   UNL     1     -46.817 -51.359  13.800  1.00  0.00     0.002 C 
HETATM    8  C   UNL     1     -46.516 -52.250  12.597  1.00  0.00     0.002 C 
HETATM    9  C   UNL     1     -45.082 -52.765  12.532  1.00  0.00     0.020 C 
HETATM   10  C   UNL     1     -44.876 -54.047  13.344  1.00  0.00     0.127 C 
HETATM   11  H   UNL     1     -43.122 -55.564  14.420  1.00  0.00     0.164 HD
ENDROOT
BRANCH   1  12
HETATM   12  C   UNL     1     -41.629 -55.226  15.853  1.00  0.00     0.129 C 
BRANCH  12  13
HETATM   13  C   UNL     1     -40.335 -54.624  15.299  1.00  0.00     0.061 C 
BRANCH  13  14
HETATM   14  C   UNL     1     -40.518 -53.832  14.050  1.00  0.00    -0.023 A 
HETATM   15  C   UNL     1     -40.533 -52.460  13.897  1.00  0.00     0.118 A 
HETATM   16  N   UNL     1     -40.740 -52.221  12.570  1.00  0.00    -0.308 N 
HETATM   17  C   UNL     1     -40.849 -50.936  11.925  1.00  0.00     0.177 C 
HETATM   18  N   UNL     1     -40.845 -53.344  11.836  1.00  0.00    -0.310 N 
HETATM   19  C   UNL     1     -40.708 -54.320  12.737  1.00  0.00     0.115 A 
ATOM     20  HN  UNL     1     -40.994 -53.429  10.830  1.00  0.00     0.186 HD
ENDBRANCH  13  14
ENDBRANCH  12  13
ENDBRANCH   1  12
TORSDOF 3
ENDMDL
MODEL 7
REMARK VINA RESULT:      -5.3      3.294      4.241
REMARK  3 active torsions:
REMARK  status: ('A' for Active; 'I' for Inactive)
REMARK    1  A    between atoms: C_4  and  C_5 
REMARK    2  A    between atoms: C_5  and  C_6 
REMARK    3  A    between atoms: C_6  and  N_7 
REMARK       I    between atoms: N_7  and  C_8 
REMARK       I    between atoms: C_8  and  N_10 
ROOT
HETATM    1  N   UNL     1     -42.523 -53.890  12.972  1.00  0.00    -0.343 N 
HETATM    2  C   UNL     1     -43.418 -54.223  13.957  1.00  0.00     0.318 C 
HETATM    3  O   UNL     1     -43.107 -54.963  14.887  1.00  0.00    -0.247 OA
HETATM    4  N   UNL     1     -44.688 -53.674  13.808  1.00  0.00    -0.334 N 
HETATM    5  C   UNL     1     -45.739 -54.139  14.717  1.00  0.00     0.127 C 
HETATM    6  C   UNL     1     -46.010 -53.151  15.849  1.00  0.00     0.020 C 
HETATM    7  C   UNL     1     -47.030 -52.066  15.505  1.00  0.00     0.002 C 
HETATM    8  C   UNL     1     -46.959 -51.476  14.098  1.00  0.00     0.002 C 
HETATM    9  C   UNL     1     -45.546 -51.321  13.546  1.00  0.00     0.020 C 
HETATM   10  C   UNL     1     -45.030 -52.596  12.875  1.00  0.00     0.127 C 
HETATM   11  H   UNL     1     -42.933 -53.809  12.056  1.00  0.00     0.164 HD
ENDROOT
BRANCH   1  12
HETATM   12  C   UNL     1     -41.167 -54.410  13.013  1.00  0.00     0.129 C 
BRANCH  12  13
HETATM   13  C   UNL     1     -40.160 -53.404  13.578  1.00  0.00     0.061 C 
BRANCH  13  14
HETATM   14  C   UNL     1     -40.077 -52.129  12.811  1.00  0.00    -0.023 A 
HETATM   15  C   UNL     1     -39.216 -51.067  13.000  1.00  0.00     0.118 A 
HETATM   16  N   UNL     1     -39.536 -50.137  12.055  1.00  0.00    -0.308 N 
HETATM   17  C   UNL     1     -38.923 -48.846  11.863  1.00  0.00     0.177 C 
HETATM   18  N   UNL     1     -40.539 -50.522  11.245  1.00  0.00    -0.310 N 
HETATM   19  C   UNL     1     -40.865 -51.733  11.705  1.00  0.00     0.115 A 
ATOM     20  HN  UNL     1     -40.953 -50.011  10.465  1.00  0.00     0.186 HD
ENDBRANCH  13  14
ENDBRANCH  12  13
ENDBRANCH   1  12
TORSDOF 3
ENDMDL
MODEL 8
REMARK VINA RESULT:      -5.3      4.256      6.594
REMARK  3 active torsions:
REMARK  status: ('A' for Active; 'I' for Inactive)
REMARK    1  A    between atoms: C_4  and  C_5 
REMARK    2  A    between atoms: C_5  and  C_6 
REMARK    3  A    between atoms: C_6  and  N_7 
REMARK       I    between atoms: N_7  and  C_8 
REMARK       I    between atoms: C_8  and  N_10 
ROOT
HETATM    1  N   UNL     1     -42.356 -53.777  12.873  1.00  0.00    -0.343 N 
HETATM    2  C   UNL     1     -43.254 -54.172  13.832  1.00  0.00     0.318 C 
HETATM    3  O   UNL     1     -42.938 -54.949  14.730  1.00  0.00    -0.247 OA
HETATM    4  N   UNL     1     -44.534 -53.644  13.693  1.00  0.00    -0.334 N 
HETATM    5  C   UNL     1     -45.585 -54.171  14.568  1.00  0.00     0.127 C 
HETATM    6  C   UNL     1     -45.888 -53.241  15.740  1.00  0.00     0.020 C 
HETATM    7  C   UNL     1     -46.926 -52.162  15.434  1.00  0.00     0.002 C 
HETATM    8  C   UNL     1     -46.853 -51.507  14.057  1.00  0.00     0.002 C 
HETATM    9  C   UNL     1     -45.438 -51.298  13.528  1.00  0.00     0.020 C 
HETATM   10  C   UNL     1     -44.888 -52.531  12.806  1.00  0.00     0.127 C 
HETATM   11  H   UNL     1     -42.758 -53.663  11.957  1.00  0.00     0.164 HD
ENDROOT
BRANCH   1  12
HETATM   12  C   UNL     1     -40.990 -54.271  12.906  1.00  0.00     0.129 C 
BRANCH  12  13
HETATM   13  C   UNL     1     -40.014 -53.281  13.547  1.00  0.00     0.061 C 
BRANCH  13  14
HETATM   14  C   UNL     1     -39.378 -53.779  14.801  1.00  0.00    -0.023 A 
HETATM   15  C   UNL     1     -38.993 -55.067  15.116  1.00  0.00     0.118 A 
HETATM   16  N   UNL     1     -38.470 -55.017  16.375  1.00  0.00    -0.308 N 
HETATM   17  C   UNL     1     -37.947 -56.119  17.143  1.00  0.00     0.177 C 
HETATM   18  N   UNL     1     -38.468 -53.779  16.903  1.00  0.00    -0.310 N 
HETATM   19  C   UNL     1     -39.019 -53.030  15.944  1.00  0.00     0.115 A 
ATOM     20  HN  UNL     1     -38.128 -53.484  17.818  1.00  0.00     0.186 HD
ENDBRANCH  13  14
ENDBRANCH  12  13
ENDBRANCH   1  12
TORSDOF 3
ENDMDL
MODEL 9
REMARK VINA RESULT:      -5.1      4.076      7.676
REMARK  3 active torsions:
REMARK  status: ('A' for Active; 'I' for Inactive)
REMARK    1  A    between atoms: C_4  and  C_5 
REMARK    2  A    between atoms: C_5  and  C_6 
REMARK    3  A    between atoms: C_6  and  N_7 
REMARK       I    between atoms: N_7  and  C_8 
REMARK       I    between atoms: C_8  and  N_10 
ROOT
HETATM    1  N   UNL     1     -38.787 -52.739  14.260  1.00  0.00    -0.343 N 
HETATM    2  C   UNL     1     -38.861 -51.668  13.405  1.00  0.00     0.318 C 
HETATM    3  O   UNL     1     -39.550 -51.700  12.389  1.00  0.00    -0.247 OA
HETATM    4  N   UNL     1     -38.089 -50.570  13.771  1.00  0.00    -0.334 N 
HETATM    5  C   UNL     1     -37.975 -49.470  12.810  1.00  0.00     0.127 C 
HETATM    6  C   UNL     1     -38.884 -48.294  13.158  1.00  0.00     0.020 C 
HETATM    7  C   UNL     1     -38.263 -47.284  14.122  1.00  0.00     0.002 C 
HETATM    8  C   UNL     1     -37.425 -47.850  15.267  1.00  0.00     0.002 C 
HETATM    9  C   UNL     1     -37.951 -49.156  15.852  1.00  0.00     0.020 C 
HETATM   10  C   UNL     1     -37.462 -50.387  15.084  1.00  0.00     0.127 C 
HETATM   11  H   UNL     1     -37.877 -52.875  14.668  1.00  0.00     0.164 HD
ENDROOT
BRANCH   1  12
HETATM   12  C   UNL     1     -39.541 -53.949  13.978  1.00  0.00     0.129 C 
BRANCH  12  13
HETATM   13  C   UNL     1     -40.718 -54.153  14.936  1.00  0.00     0.061 C 
BRANCH  13  14
HETATM   14  C   UNL     1     -42.045 -54.229  14.261  1.00  0.00    -0.023 A 
HETATM   15  C   UNL     1     -43.218 -54.785  14.732  1.00  0.00     0.118 A 
HETATM   16  N   UNL     1     -44.149 -54.614  13.750  1.00  0.00    -0.308 N 
HETATM   17  C   UNL     1     -45.525 -55.045  13.772  1.00  0.00     0.177 C 
HETATM   18  N   UNL     1     -43.673 -53.967  12.670  1.00  0.00    -0.310 N 
HETATM   19  C   UNL     1     -42.396 -53.733  12.985  1.00  0.00     0.115 A 
ATOM     20  HN  UNL     1     -44.169 -53.715  11.815  1.00  0.00     0.186 HD
ENDBRANCH  13  14
ENDBRANCH  12  13
ENDBRANCH   1  12
TORSDOF 3
ENDMDL
