MODEL 1
REMARK VINA RESULT:      -5.6      0.000      0.000
REMARK  5 active torsions:
REMARK  status: ('A' for Active; 'I' for Inactive)
REMARK    1  A    between atoms: C_2  and  N_3 
REMARK    2  A    between atoms: N_3  and  C_4 
REMARK    3  A    between atoms: N_16  and  C_17 
REMARK    4  A    between atoms: C_17  and  C_18 
REMARK    5  A    between atoms: C_18  and  O_19 
ROOT
HETATM    1  C   UNL     1     -44.988 -53.207  12.602  1.00  0.00     0.682 A 
HETATM    2  N   UNL     1     -43.841 -52.796  12.098  1.00  0.00    -0.174 N 
ATOM      3  HN  UNL     1     -43.704 -52.188  11.290  1.00  0.00     0.186 HD
HETATM    4  C   UNL     1     -42.879 -53.352  12.884  1.00  0.00     0.160 A 
HETATM    5  N   UNL     1     -41.513 -53.205  12.754  1.00  0.00    -0.287 N 
HETATM    6  C   UNL     1     -40.912 -52.405  11.710  1.00  0.00     0.163 C 
HETATM    7  C   UNL     1     -40.676 -53.857  13.656  1.00  0.00     0.330 A 
HETATM    8  O   UNL     1     -39.448 -53.790  13.615  1.00  0.00    -0.246 OA
HETATM    9  N   UNL     1     -41.276 -54.627  14.632  1.00  0.00    -0.273 N 
HETATM   10  C   UNL     1     -42.623 -54.857  14.791  1.00  0.00     0.280 A 
HETATM   11  O   UNL     1     -43.050 -55.616  15.653  1.00  0.00    -0.265 OA
HETATM   12  C   UNL     1     -43.421 -54.134  13.863  1.00  0.00     0.164 A 
HETATM   13  N   UNL     1     -44.778 -54.018  13.707  1.00  0.00    -0.172 N 
HETATM   14  H   UNL     1     -40.656 -55.105  15.262  1.00  0.00     0.173 HD
ENDROOT
BRANCH   1  15
HETATM   15  N   UNL     1     -46.232 -52.923  12.154  1.00  0.00    -0.226 N 
HETATM   16  H   UNL     1     -46.653 -53.487  11.428  1.00  0.00     0.177 HD
BRANCH  15  17
HETATM   17  C   UNL     1     -46.659 -51.533  12.106  1.00  0.00     0.133 C 
HETATM   18  C   UNL     1     -47.592 -51.346  10.916  1.00  0.00     0.027 C 
ENDBRANCH  15  17
ENDBRANCH   1  15
BRANCH  13  19
HETATM   19  C   UNL     1     -45.784 -54.655  14.534  1.00  0.00     0.174 C 
BRANCH  19  20
HETATM   20  C   UNL     1     -46.258 -53.777  15.685  1.00  0.00     0.187 C 
BRANCH  20  21
HETATM   21  O   UNL     1     -47.258 -52.872  15.204  1.00  0.00    -0.394 OA
HETATM   22  C   UNL     1     -47.132 -51.600  15.830  1.00  0.00     0.201 C 
ENDBRANCH  20  21
ENDBRANCH  19  20
ENDBRANCH  13  19
TORSDOF 5
ENDMDL
MODEL 2
REMARK VINA RESULT:      -5.2      5.608      8.247
REMARK  5 active torsions:
REMARK  status: ('A' for Active; 'I' for Inactive)
REMARK    1  A    between atoms: C_2  and  N_3 
REMARK    2  A    between atoms: N_3  and  C_4 
REMARK    3  A    between atoms: N_16  and  C_17 
REMARK    4  A    between atoms: C_17  and  C_18 
REMARK    5  A    between atoms: C_18  and  O_19 
ROOT
HETATM    1  C   UNL     1     -40.989 -49.535  11.155  1.00  0.00     0.682 A 
HETATM    2  N   UNL     1     -41.916 -48.884  10.481  1.00  0.00    -0.174 N 
ATOM      3  HN  UNL     1     -42.634 -49.282   9.875  1.00  0.00     0.186 HD
HETATM    4  C   UNL     1     -41.714 -47.568  10.765  1.00  0.00     0.160 A 
HETATM    5  N   UNL     1     -42.445 -46.496  10.296  1.00  0.00    -0.287 N 
HETATM    6  C   UNL     1     -43.566 -46.652   9.395  1.00  0.00     0.163 C 
HETATM    7  C   UNL     1     -42.087 -45.210  10.695  1.00  0.00     0.330 A 
HETATM    8  O   UNL     1     -42.675 -44.195  10.324  1.00  0.00    -0.246 OA
HETATM    9  N   UNL     1     -41.004 -45.089  11.541  1.00  0.00    -0.273 N 
HETATM   10  C   UNL     1     -40.204 -46.106  12.009  1.00  0.00     0.280 A 
HETATM   11  O   UNL     1     -39.219 -45.883  12.704  1.00  0.00    -0.265 OA
HETATM   12  C   UNL     1     -40.644 -47.392  11.595  1.00  0.00     0.164 A 
HETATM   13  N   UNL     1     -40.194 -48.657  11.875  1.00  0.00    -0.172 N 
HETATM   14  H   UNL     1     -40.749 -44.153  11.803  1.00  0.00     0.173 HD
ENDROOT
BRANCH   1  15
HETATM   15  N   UNL     1     -40.779 -50.871  11.184  1.00  0.00    -0.226 N 
HETATM   16  H   UNL     1     -40.536 -51.367  10.337  1.00  0.00     0.177 HD
BRANCH  15  17
HETATM   17  C   UNL     1     -41.556 -51.682  12.108  1.00  0.00     0.133 C 
HETATM   18  C   UNL     1     -40.941 -53.075  12.178  1.00  0.00     0.027 C 
ENDBRANCH  15  17
ENDBRANCH   1  15
BRANCH  13  19
HETATM   19  C   UNL     1     -39.079 -48.987  12.740  1.00  0.00     0.174 C 
BRANCH  19  20
HETATM   20  C   UNL     1     -37.870 -49.521  11.982  1.00  0.00     0.187 C 
BRANCH  20  21
HETATM   21  O   UNL     1     -37.799 -50.941  12.153  1.00  0.00    -0.394 OA
HETATM   22  C   UNL     1     -38.016 -51.298  13.514  1.00  0.00     0.201 C 
ENDBRANCH  20  21
ENDBRANCH  19  20
ENDBRANCH  13  19
TORSDOF 5
ENDMDL
MODEL 3
REMARK VINA RESULT:      -5.2      1.525      5.233
REMARK  5 active torsions:
REMARK  status: ('A' for Active; 'I' for Inactive)
REMARK    1  A    between atoms: C_2  and  N_3 
REMARK    2  A    between atoms: N_3  and  C_4 
REMARK    3  A    between atoms: N_16  and  C_17 
REMARK    4  A    between atoms: C_17  and  C_18 
REMARK    5  A    between atoms: C_18  and  O_19 
ROOT
HETATM    1  C   UNL     1     -42.036 -52.206  12.222  1.00  0.00     0.682 A 
HETATM    2  N   UNL     1     -43.268 -51.742  12.290  1.00  0.00    -0.174 N 
ATOM      3  HN  UNL     1     -43.643 -50.911  11.830  1.00  0.00     0.186 HD
HETATM    4  C   UNL     1     -43.936 -52.604  13.104  1.00  0.00     0.160 A 
HETATM    5  N   UNL     1     -45.264 -52.539  13.473  1.00  0.00    -0.287 N 
HETATM    6  C   UNL     1     -46.147 -51.487  13.018  1.00  0.00     0.163 C 
HETATM    7  C   UNL     1     -45.776 -53.515  14.323  1.00  0.00     0.330 A 
HETATM    8  O   UNL     1     -46.945 -53.536  14.710  1.00  0.00    -0.246 OA
HETATM    9  N   UNL     1     -44.908 -54.497  14.754  1.00  0.00    -0.273 N 
HETATM   10  C   UNL     1     -43.567 -54.598  14.467  1.00  0.00     0.280 A 
HETATM   11  O   UNL     1     -42.865 -55.474  14.960  1.00  0.00    -0.265 OA
HETATM   12  C   UNL     1     -43.117 -53.593  13.568  1.00  0.00     0.164 A 
HETATM   13  N   UNL     1     -41.901 -53.360  12.977  1.00  0.00    -0.172 N 
HETATM   14  H   UNL     1     -45.291 -55.182  15.382  1.00  0.00     0.173 HD
ENDROOT
BRANCH   1  15
HETATM   15  N   UNL     1     -40.996 -51.680  11.535  1.00  0.00    -0.226 N 
HETATM   16  H   UNL     1     -40.121 -52.183  11.470  1.00  0.00     0.177 HD
BRANCH  15  17
HETATM   17  C   UNL     1     -40.816 -50.236  11.535  1.00  0.00     0.133 C 
HETATM   18  C   UNL     1     -39.325 -49.926  11.496  1.00  0.00     0.027 C 
ENDBRANCH  15  17
ENDBRANCH   1  15
BRANCH  13  19
HETATM   19  C   UNL     1     -40.708 -54.165  13.147  1.00  0.00     0.174 C 
BRANCH  19  20
HETATM   20  C   UNL     1     -39.791 -53.654  14.251  1.00  0.00     0.187 C 
BRANCH  20  21
HETATM   21  O   UNL     1     -38.886 -52.691  13.701  1.00  0.00    -0.394 OA
HETATM   22  C   UNL     1     -38.658 -51.628  14.619  1.00  0.00     0.201 C 
ENDBRANCH  20  21
ENDBRANCH  19  20
ENDBRANCH  13  19
TORSDOF 5
ENDMDL
MODEL 4
REMARK VINA RESULT:      -5.1      1.562      5.236
REMARK  5 active torsions:
REMARK  status: ('A' for Active; 'I' for Inactive)
REMARK    1  A    between atoms: C_2  and  N_3 
REMARK    2  A    between atoms: N_3  and  C_4 
REMARK    3  A    between atoms: N_16  and  C_17 
REMARK    4  A    between atoms: C_17  and  C_18 
REMARK    5  A    between atoms: C_18  and  O_19 
ROOT
HETATM    1  C   UNL     1     -41.752 -52.522  12.071  1.00  0.00     0.682 A 
HETATM    2  N   UNL     1     -43.053 -52.340  11.958  1.00  0.00    -0.174 N 
ATOM      3  HN  UNL     1     -43.536 -51.714  11.314  1.00  0.00     0.186 HD
HETATM    4  C   UNL     1     -43.616 -53.164  12.884  1.00  0.00     0.160 A 
HETATM    5  N   UNL     1     -44.961 -53.330  13.139  1.00  0.00    -0.287 N 
HETATM    6  C   UNL     1     -45.985 -52.605  12.419  1.00  0.00     0.163 C 
HETATM    7  C   UNL     1     -45.354 -54.223  14.133  1.00  0.00     0.330 A 
HETATM    8  O   UNL     1     -46.529 -54.432  14.434  1.00  0.00    -0.246 OA
HETATM    9  N   UNL     1     -44.357 -54.889  14.815  1.00  0.00    -0.273 N 
HETATM   10  C   UNL     1     -42.999 -54.739  14.647  1.00  0.00     0.280 A 
HETATM   11  O   UNL     1     -42.192 -55.330  15.355  1.00  0.00    -0.265 OA
HETATM   12  C   UNL     1     -42.668 -53.842  13.595  1.00  0.00     0.164 A 
HETATM   13  N   UNL     1     -41.468 -53.457  13.054  1.00  0.00    -0.172 N 
HETATM   14  H   UNL     1     -44.658 -55.514  15.541  1.00  0.00     0.173 HD
ENDROOT
BRANCH   1  15
HETATM   15  N   UNL     1     -40.772 -51.912  11.365  1.00  0.00    -0.226 N 
HETATM   16  H   UNL     1     -39.936 -52.421  11.111  1.00  0.00     0.177 HD
BRANCH  15  17
HETATM   17  C   UNL     1     -40.524 -50.497  11.589  1.00  0.00     0.133 C 
HETATM   18  C   UNL     1     -39.074 -50.313  12.020  1.00  0.00     0.027 C 
ENDBRANCH  15  17
ENDBRANCH   1  15
BRANCH  13  19
HETATM   19  C   UNL     1     -40.161 -53.930  13.467  1.00  0.00     0.174 C 
BRANCH  19  20
HETATM   20  C   UNL     1     -39.510 -53.047  14.523  1.00  0.00     0.187 C 
BRANCH  20  21
HETATM   21  O   UNL     1     -39.288 -53.819  15.708  1.00  0.00    -0.394 OA
HETATM   22  C   UNL     1     -38.741 -55.093  15.387  1.00  0.00     0.201 C 
ENDBRANCH  20  21
ENDBRANCH  19  20
ENDBRANCH  13  19
TORSDOF 5
ENDMDL
MODEL 5
REMARK VINA RESULT:      -5.1      2.661      3.824
REMARK  5 active torsions:
REMARK  status: ('A' for Active; 'I' for Inactive)
REMARK    1  A    between atoms: C_2  and  N_3 
REMARK    2  A    between atoms: N_3  and  C_4 
REMARK    3  A    between atoms: N_16  and  C_17 
REMARK    4  A    between atoms: C_17  and  C_18 
REMARK    5  A    between atoms: C_18  and  O_19 
ROOT
HETATM    1  C   UNL     1     -43.993 -50.971  13.221  1.00  0.00     0.682 A 
HETATM    2  N   UNL     1     -43.455 -49.843  12.801  1.00  0.00    -0.174 N 
ATOM      3  HN  UNL     1     -43.908 -48.932  12.726  1.00  0.00     0.186 HD
HETATM    4  C   UNL     1     -42.166 -50.150  12.490  1.00  0.00     0.160 A 
HETATM    5  N   UNL     1     -41.199 -49.289  12.012  1.00  0.00    -0.287 N 
HETATM    6  C   UNL     1     -41.457 -47.886  11.768  1.00  0.00     0.163 C 
HETATM    7  C   UNL     1     -39.926 -49.786  11.744  1.00  0.00     0.330 A 
HETATM    8  O   UNL     1     -39.004 -49.096  11.311  1.00  0.00    -0.246 OA
HETATM    9  N   UNL     1     -39.712 -51.130  11.970  1.00  0.00    -0.273 N 
HETATM   10  C   UNL     1     -40.638 -52.054  12.398  1.00  0.00     0.280 A 
HETATM   11  O   UNL     1     -40.362 -53.243  12.501  1.00  0.00    -0.265 OA
HETATM   12  C   UNL     1     -41.904 -51.475  12.687  1.00  0.00     0.164 A 
HETATM   13  N   UNL     1     -43.067 -52.001  13.189  1.00  0.00    -0.172 N 
HETATM   14  H   UNL     1     -38.794 -51.475  11.753  1.00  0.00     0.173 HD
ENDROOT
BRANCH   1  15
HETATM   15  N   UNL     1     -45.265 -51.171  13.634  1.00  0.00    -0.226 N 
HETATM   16  H   UNL     1     -46.041 -50.858  13.066  1.00  0.00     0.177 HD
BRANCH  15  17
HETATM   17  C   UNL     1     -45.555 -51.119  15.059  1.00  0.00     0.133 C 
HETATM   18  C   UNL     1     -47.014 -51.498  15.279  1.00  0.00     0.027 C 
ENDBRANCH  15  17
ENDBRANCH   1  15
BRANCH  13  19
HETATM   19  C   UNL     1     -43.273 -53.382  13.578  1.00  0.00     0.174 C 
BRANCH  19  20
HETATM   20  C   UNL     1     -44.048 -54.187  12.542  1.00  0.00     0.187 C 
BRANCH  20  21
HETATM   21  O   UNL     1     -45.441 -54.158  12.872  1.00  0.00    -0.394 OA
HETATM   22  C   UNL     1     -45.697 -54.909  14.054  1.00  0.00     0.201 C 
ENDBRANCH  20  21
ENDBRANCH  19  20
ENDBRANCH  13  19
TORSDOF 5
ENDMDL
MODEL 6
REMARK VINA RESULT:      -5.0      2.625      4.759
REMARK  5 active torsions:
REMARK  status: ('A' for Active; 'I' for Inactive)
REMARK    1  A    between atoms: C_2  and  N_3 
REMARK    2  A    between atoms: N_3  and  C_4 
REMARK    3  A    between atoms: N_16  and  C_17 
REMARK    4  A    between atoms: C_17  and  C_18 
REMARK    5  A    between atoms: C_18  and  O_19 
ROOT
HETATM    1  C   UNL     1     -42.326 -52.696  12.368  1.00  0.00     0.682 A 
HETATM    2  N   UNL     1     -42.537 -51.464  11.946  1.00  0.00    -0.174 N 
ATOM      3  HN  UNL     1     -43.406 -51.077  11.577  1.00  0.00     0.186 HD
HETATM    4  C   UNL     1     -41.350 -50.818  12.107  1.00  0.00     0.160 A 
HETATM    5  N   UNL     1     -41.076 -49.499  11.810  1.00  0.00    -0.287 N 
HETATM    6  C   UNL     1     -42.068 -48.603  11.257  1.00  0.00     0.163 C 
HETATM    7  C   UNL     1     -39.792 -49.009  12.039  1.00  0.00     0.330 A 
HETATM    8  O   UNL     1     -39.454 -47.850  11.800  1.00  0.00    -0.246 OA
HETATM    9  N   UNL     1     -38.861 -49.889  12.551  1.00  0.00    -0.273 N 
HETATM   10  C   UNL     1     -39.050 -51.224  12.825  1.00  0.00     0.280 A 
HETATM   11  O   UNL     1     -38.134 -51.939  13.214  1.00  0.00    -0.265 OA
HETATM   12  C   UNL     1     -40.388 -51.650  12.603  1.00  0.00     0.164 A 
HETATM   13  N   UNL     1     -41.020 -52.851  12.804  1.00  0.00    -0.172 N 
HETATM   14  H   UNL     1     -37.936 -49.523  12.692  1.00  0.00     0.173 HD
ENDROOT
BRANCH   1  15
HETATM   15  N   UNL     1     -43.212 -53.718  12.396  1.00  0.00    -0.226 N 
HETATM   16  H   UNL     1     -43.160 -54.455  11.706  1.00  0.00     0.177 HD
BRANCH  15  17
HETATM   17  C   UNL     1     -44.573 -53.453  12.837  1.00  0.00     0.133 C 
HETATM   18  C   UNL     1     -45.111 -54.692  13.542  1.00  0.00     0.027 C 
ENDBRANCH  15  17
ENDBRANCH   1  15
BRANCH  13  19
HETATM   19  C   UNL     1     -40.410 -54.050  13.344  1.00  0.00     0.174 C 
BRANCH  19  20
HETATM   20  C   UNL     1     -40.671 -54.238  14.833  1.00  0.00     0.187 C 
BRANCH  20  21
HETATM   21  O   UNL     1     -41.930 -54.895  15.009  1.00  0.00    -0.394 OA
HETATM   22  C   UNL     1     -42.222 -55.067  16.392  1.00  0.00     0.201 C 
ENDBRANCH  20  21
ENDBRANCH  19  20
ENDBRANCH  13  19
TORSDOF 5
ENDMDL
MODEL 7
REMARK VINA RESULT:      -5.0      3.124      5.760
REMARK  5 active torsions:
REMARK  status: ('A' for Active; 'I' for Inactive)
REMARK    1  A    between atoms: C_2  and  N_3 
REMARK    2  A    between atoms: N_3  and  C_4 
REMARK    3  A    between atoms: N_16  and  C_17 
REMARK    4  A    between atoms: C_17  and  C_18 
REMARK    5  A    between atoms: C_18  and  O_19 
ROOT
HETATM    1  C   UNL     1     -40.908 -50.370  11.487  1.00  0.00     0.682 A 
HETATM    2  N   UNL     1     -42.052 -50.984  11.716  1.00  0.00    -0.174 N 
ATOM      3  HN  UNL     1     -42.975 -50.720  11.371  1.00  0.00     0.186 HD
HETATM    4  C   UNL     1     -41.742 -52.044  12.511  1.00  0.00     0.160 A 
HETATM    5  N   UNL     1     -42.613 -52.990  13.012  1.00  0.00    -0.287 N 
HETATM    6  C   UNL     1     -44.033 -52.960  12.741  1.00  0.00     0.163 C 
HETATM    7  C   UNL     1     -42.111 -54.009  13.817  1.00  0.00     0.330 A 
HETATM    8  O   UNL     1     -42.811 -54.892  14.313  1.00  0.00    -0.246 OA
HETATM    9  N   UNL     1     -40.755 -54.004  14.073  1.00  0.00    -0.273 N 
HETATM   10  C   UNL     1     -39.838 -53.070  13.648  1.00  0.00     0.280 A 
HETATM   11  O   UNL     1     -38.662 -53.118  13.990  1.00  0.00    -0.265 OA
HETATM   12  C   UNL     1     -40.408 -52.079  12.803  1.00  0.00     0.164 A 
HETATM   13  N   UNL     1     -39.862 -51.023  12.119  1.00  0.00    -0.172 N 
HETATM   14  H   UNL     1     -40.414 -54.735  14.671  1.00  0.00     0.173 HD
ENDROOT
BRANCH   1  15
HETATM   15  N   UNL     1     -40.708 -49.252  10.752  1.00  0.00    -0.226 N 
HETATM   16  H   UNL     1     -39.782 -49.023  10.414  1.00  0.00     0.177 HD
BRANCH  15  17
HETATM   17  C   UNL     1     -41.510 -48.073  11.039  1.00  0.00     0.133 C 
HETATM   18  C   UNL     1     -42.476 -47.841   9.883  1.00  0.00     0.027 C 
ENDBRANCH  15  17
ENDBRANCH   1  15
BRANCH  13  19
HETATM   19  C   UNL     1     -38.459 -50.661  12.100  1.00  0.00     0.174 C 
BRANCH  19  20
HETATM   20  C   UNL     1     -38.068 -49.711  13.225  1.00  0.00     0.187 C 
BRANCH  20  21
HETATM   21  O   UNL     1     -38.469 -48.382  12.877  1.00  0.00    -0.394 OA
HETATM   22  C   UNL     1     -39.120 -47.746  13.972  1.00  0.00     0.201 C 
ENDBRANCH  20  21
ENDBRANCH  19  20
ENDBRANCH  13  19
TORSDOF 5
ENDMDL
MODEL 8
REMARK VINA RESULT:      -5.0      2.323      6.305
REMARK  5 active torsions:
REMARK  status: ('A' for Active; 'I' for Inactive)
REMARK    1  A    between atoms: C_2  and  N_3 
REMARK    2  A    between atoms: N_3  and  C_4 
REMARK    3  A    between atoms: N_16  and  C_17 
REMARK    4  A    between atoms: C_17  and  C_18 
REMARK    5  A    between atoms: C_18  and  O_19 
ROOT
HETATM    1  C   UNL     1     -41.371 -54.998  15.394  1.00  0.00     0.682 A 
HETATM    2  N   UNL     1     -42.688 -55.042  15.345  1.00  0.00    -0.174 N 
ATOM      3  HN  UNL     1     -43.315 -55.509  16.000  1.00  0.00     0.186 HD
HETATM    4  C   UNL     1     -43.033 -54.332  14.237  1.00  0.00     0.160 A 
HETATM    5  N   UNL     1     -44.309 -54.089  13.770  1.00  0.00    -0.287 N 
HETATM    6  C   UNL     1     -45.490 -54.594  14.436  1.00  0.00     0.163 C 
HETATM    7  C   UNL     1     -44.471 -53.339  12.609  1.00  0.00     0.330 A 
HETATM    8  O   UNL     1     -45.568 -53.077  12.115  1.00  0.00    -0.246 OA
HETATM    9  N   UNL     1     -43.327 -52.884  11.985  1.00  0.00    -0.273 N 
HETATM   10  C   UNL     1     -42.027 -53.126  12.365  1.00  0.00     0.280 A 
HETATM   11  O   UNL     1     -41.076 -52.732  11.700  1.00  0.00    -0.265 OA
HETATM   12  C   UNL     1     -41.934 -53.866  13.576  1.00  0.00     0.164 A 
HETATM   13  N   UNL     1     -40.863 -54.264  14.334  1.00  0.00    -0.172 N 
HETATM   14  H   UNL     1     -43.462 -52.361  11.138  1.00  0.00     0.173 HD
ENDROOT
BRANCH   1  15
HETATM   15  N   UNL     1     -40.563 -55.570  16.315  1.00  0.00    -0.226 N 
HETATM   16  H   UNL     1     -39.561 -55.588  16.174  1.00  0.00     0.177 HD
BRANCH  15  17
HETATM   17  C   UNL     1     -41.048 -56.727  17.051  1.00  0.00     0.133 C 
HETATM   18  C   UNL     1     -39.864 -57.622  17.398  1.00  0.00     0.027 C 
ENDBRANCH  15  17
ENDBRANCH   1  15
BRANCH  13  19
HETATM   19  C   UNL     1     -39.469 -53.983  14.046  1.00  0.00     0.174 C 
BRANCH  19  20
HETATM   20  C   UNL     1     -39.045 -52.577  14.452  1.00  0.00     0.187 C 
BRANCH  20  21
HETATM   21  O   UNL     1     -38.286 -51.992  13.388  1.00  0.00    -0.394 OA
HETATM   22  C   UNL     1     -38.439 -50.576  13.378  1.00  0.00     0.201 C 
ENDBRANCH  20  21
ENDBRANCH  19  20
ENDBRANCH  13  19
TORSDOF 5
ENDMDL
MODEL 9
REMARK VINA RESULT:      -5.0      1.808      2.559
REMARK  5 active torsions:
REMARK  status: ('A' for Active; 'I' for Inactive)
REMARK    1  A    between atoms: C_2  and  N_3 
REMARK    2  A    between atoms: N_3  and  C_4 
REMARK    3  A    between atoms: N_16  and  C_17 
REMARK    4  A    between atoms: C_17  and  C_18 
REMARK    5  A    between atoms: C_18  and  O_19 
ROOT
HETATM    1  C   UNL     1     -43.256 -52.504  12.513  1.00  0.00     0.682 A 
HETATM    2  N   UNL     1     -42.402 -51.579  12.121  1.00  0.00    -0.174 N 
ATOM      3  HN  UNL     1     -42.584 -50.793  11.496  1.00  0.00     0.186 HD
HETATM    4  C   UNL     1     -41.224 -51.895  12.726  1.00  0.00     0.160 A 
HETATM    5  N   UNL     1     -40.030 -51.211  12.626  1.00  0.00    -0.287 N 
HETATM    6  C   UNL     1     -39.879 -50.021  11.818  1.00  0.00     0.163 C 
HETATM    7  C   UNL     1     -38.920 -51.688  13.319  1.00  0.00     0.330 A 
HETATM    8  O   UNL     1     -37.814 -51.149  13.286  1.00  0.00    -0.246 OA
HETATM    9  N   UNL     1     -39.087 -52.834  14.069  1.00  0.00    -0.273 N 
HETATM   10  C   UNL     1     -40.231 -53.591  14.177  1.00  0.00     0.280 A 
HETATM   11  O   UNL     1     -40.255 -54.636  14.817  1.00  0.00    -0.265 OA
HETATM   12  C   UNL     1     -41.333 -53.031  13.475  1.00  0.00     0.164 A 
HETATM   13  N   UNL     1     -42.647 -53.408  13.368  1.00  0.00    -0.172 N 
HETATM   14  H   UNL     1     -38.271 -53.174  14.547  1.00  0.00     0.173 HD
ENDROOT
BRANCH   1  15
HETATM   15  N   UNL     1     -44.559 -52.619  12.166  1.00  0.00    -0.226 N 
HETATM   16  H   UNL     1     -44.816 -52.800  11.205  1.00  0.00     0.177 HD
BRANCH  15  17
HETATM   17  C   UNL     1     -45.545 -51.814  12.871  1.00  0.00     0.133 C 
HETATM   18  C   UNL     1     -46.822 -51.762  12.041  1.00  0.00     0.027 C 
ENDBRANCH  15  17
ENDBRANCH   1  15
BRANCH  13  19
HETATM   19  C   UNL     1     -43.255 -54.556  14.012  1.00  0.00     0.174 C 
BRANCH  19  20
HETATM   20  C   UNL     1     -43.994 -54.203  15.296  1.00  0.00     0.187 C 
BRANCH  20  21
HETATM   21  O   UNL     1     -45.352 -54.643  15.192  1.00  0.00    -0.394 OA
HETATM   22  C   UNL     1     -45.565 -55.340  13.969  1.00  0.00     0.201 C 
ENDBRANCH  20  21
ENDBRANCH  19  20
ENDBRANCH  13  19
TORSDOF 5
ENDMDL
