MODEL 1
REMARK VINA RESULT:      -5.4      0.000      0.000
REMARK  5 active torsions:
REMARK  status: ('A' for Active; 'I' for Inactive)
REMARK    1  A    between atoms: C_5  and  C_6 
REMARK    2  A    between atoms: C_6  and  C_7 
REMARK    3  A    between atoms: C_7  and  N_8 
REMARK       I    between atoms: N_8  and  C_9 
REMARK    4  A    between atoms: C_9  and  C_11 
REMARK    5  A    between atoms: C_11  and  N_12 
ROOT
HETATM    1  N   UNL     1     -42.165 -50.508  11.785  1.00  0.00    -0.359 N 
HETATM    2  C   UNL     1     -41.449 -51.353  12.607  1.00  0.00     0.235 C 
HETATM    3  O   UNL     1     -40.839 -50.940  13.593  1.00  0.00    -0.272 OA
HETATM    4  H   UNL     1     -42.490 -50.839  10.883  1.00  0.00     0.162 HD
ENDROOT
BRANCH   1   5
HETATM    5  C   UNL     1     -42.196 -49.074  12.026  1.00  0.00     0.128 C 
BRANCH   5   6
HETATM    6  C   UNL     1     -41.685 -48.239  10.850  1.00  0.00     0.077 C 
BRANCH   6   7
HETATM    7  C   UNL     1     -42.771 -47.475  10.161  1.00  0.00     0.018 A 
HETATM    8  N   UNL     1     -44.026 -48.055  10.045  1.00  0.00    -0.357 N 
HETATM    9  C   UNL     1     -44.851 -47.233   9.434  1.00  0.00     0.046 A 
ATOM     10  HN  UNL     1     -44.274 -48.984  10.386  1.00  0.00     0.166 HD
HETATM   11  C   UNL     1     -46.277 -47.536   9.138  1.00  0.00     0.076 C 
HETATM   12  S   UNL     1     -44.176 -45.726   8.960  1.00  0.00    -0.087 SA
HETATM   13  C   UNL     1     -42.672 -46.205   9.625  1.00  0.00     0.076 A 
ENDBRANCH   6   7
ENDBRANCH   5   6
ENDBRANCH   1   5
BRANCH   2  14
HETATM   14  C   UNL     1     -41.574 -52.841  12.260  1.00  0.00     0.229 C 
BRANCH  14  15
HETATM   15  N   UNL     1     -42.341 -53.625  13.220  1.00  0.00    -0.334 N 
HETATM   16  C   UNL     1     -41.687 -54.266  14.335  1.00  0.00     0.200 C 
HETATM   17  S   UNL     1     -42.952 -55.115  15.292  1.00  0.00    -0.140 SA
HETATM   18  C   UNL     1     -44.309 -54.540  14.252  1.00  0.00     0.178 C 
HETATM   19  C   UNL     1     -43.693 -53.846  13.059  1.00  0.00     0.230 C 
HETATM   20  O   UNL     1     -44.345 -53.465  12.094  1.00  0.00    -0.273 OA
ENDBRANCH  14  15
ENDBRANCH   2  14
TORSDOF 5
ENDMDL
MODEL 2
REMARK VINA RESULT:      -5.4      2.253      2.771
REMARK  5 active torsions:
REMARK  status: ('A' for Active; 'I' for Inactive)
REMARK    1  A    between atoms: C_5  and  C_6 
REMARK    2  A    between atoms: C_6  and  C_7 
REMARK    3  A    between atoms: C_7  and  N_8 
REMARK       I    between atoms: N_8  and  C_9 
REMARK    4  A    between atoms: C_9  and  C_11 
REMARK    5  A    between atoms: C_11  and  N_12 
ROOT
HETATM    1  N   UNL     1     -42.120 -51.477  11.970  1.00  0.00    -0.359 N 
HETATM    2  C   UNL     1     -42.553 -52.594  12.654  1.00  0.00     0.235 C 
HETATM    3  O   UNL     1     -41.909 -53.079  13.583  1.00  0.00    -0.272 OA
HETATM    4  H   UNL     1     -42.563 -51.218  11.096  1.00  0.00     0.162 HD
ENDROOT
BRANCH   1   5
HETATM    5  C   UNL     1     -40.850 -50.845  12.293  1.00  0.00     0.128 C 
BRANCH   5   6
HETATM    6  C   UNL     1     -40.365 -49.857  11.229  1.00  0.00     0.077 C 
BRANCH   6   7
HETATM    7  C   UNL     1     -41.332 -48.744  10.982  1.00  0.00     0.018 A 
HETATM    8  N   UNL     1     -41.870 -48.595   9.712  1.00  0.00    -0.357 N 
HETATM    9  C   UNL     1     -42.710 -47.583   9.690  1.00  0.00     0.046 A 
ATOM     10  HN  UNL     1     -41.647 -49.186   8.911  1.00  0.00     0.166 HD
HETATM   11  C   UNL     1     -43.463 -47.139   8.487  1.00  0.00     0.076 C 
HETATM   12  S   UNL     1     -42.901 -46.750  11.181  1.00  0.00    -0.087 SA
HETATM   13  C   UNL     1     -41.784 -47.824  11.910  1.00  0.00     0.076 A 
ENDBRANCH   6   7
ENDBRANCH   5   6
ENDBRANCH   1   5
BRANCH   2  14
HETATM   14  C   UNL     1     -43.941 -53.098  12.241  1.00  0.00     0.229 C 
BRANCH  14  15
HETATM   15  N   UNL     1     -44.996 -52.829  13.211  1.00  0.00    -0.334 N 
HETATM   16  C   UNL     1     -45.315 -51.476  13.596  1.00  0.00     0.200 C 
HETATM   17  S   UNL     1     -46.664 -51.551  14.783  1.00  0.00    -0.140 SA
HETATM   18  C   UNL     1     -46.826 -53.345  14.681  1.00  0.00     0.178 C 
HETATM   19  C   UNL     1     -45.671 -53.850  13.849  1.00  0.00     0.230 C 
HETATM   20  O   UNL     1     -45.415 -55.041  13.708  1.00  0.00    -0.273 OA
ENDBRANCH  14  15
ENDBRANCH   2  14
TORSDOF 5
ENDMDL
MODEL 3
REMARK VINA RESULT:      -5.4      1.884      1.978
REMARK  5 active torsions:
REMARK  status: ('A' for Active; 'I' for Inactive)
REMARK    1  A    between atoms: C_5  and  C_6 
REMARK    2  A    between atoms: C_6  and  C_7 
REMARK    3  A    between atoms: C_7  and  N_8 
REMARK       I    between atoms: N_8  and  C_9 
REMARK    4  A    between atoms: C_9  and  C_11 
REMARK    5  A    between atoms: C_11  and  N_12 
ROOT
HETATM    1  N   UNL     1     -42.574 -50.659  12.008  1.00  0.00    -0.359 N 
HETATM    2  C   UNL     1     -42.092 -51.893  12.393  1.00  0.00     0.235 C 
HETATM    3  O   UNL     1     -40.887 -52.108  12.523  1.00  0.00    -0.272 OA
HETATM    4  H   UNL     1     -43.542 -50.563  11.722  1.00  0.00     0.162 HD
ENDROOT
BRANCH   1   5
HETATM    5  C   UNL     1     -41.670 -49.562  11.695  1.00  0.00     0.128 C 
BRANCH   5   6
HETATM    6  C   UNL     1     -42.254 -48.179  11.989  1.00  0.00     0.077 C 
BRANCH   6   7
HETATM    7  C   UNL     1     -42.985 -47.594  10.823  1.00  0.00     0.018 A 
HETATM    8  N   UNL     1     -44.273 -48.033  10.554  1.00  0.00    -0.357 N 
HETATM    9  C   UNL     1     -44.760 -47.396   9.511  1.00  0.00     0.046 A 
ATOM     10  HN  UNL     1     -44.771 -48.746  11.087  1.00  0.00     0.166 HD
HETATM   11  C   UNL     1     -46.117 -47.623   8.944  1.00  0.00     0.076 C 
HETATM   12  S   UNL     1     -43.709 -46.243   8.792  1.00  0.00    -0.087 SA
HETATM   13  C   UNL     1     -42.517 -46.618   9.963  1.00  0.00     0.076 A 
ENDBRANCH   6   7
ENDBRANCH   5   6
ENDBRANCH   1   5
BRANCH   2  14
HETATM   14  C   UNL     1     -43.172 -52.918  12.753  1.00  0.00     0.229 C 
BRANCH  14  15
HETATM   15  N   UNL     1     -44.272 -52.385  13.549  1.00  0.00    -0.334 N 
HETATM   16  C   UNL     1     -44.046 -51.915  14.894  1.00  0.00     0.200 C 
HETATM   17  S   UNL     1     -45.619 -51.327  15.536  1.00  0.00    -0.140 SA
HETATM   18  C   UNL     1     -46.511 -51.637  13.999  1.00  0.00     0.178 C 
HETATM   19  C   UNL     1     -45.570 -52.382  13.081  1.00  0.00     0.230 C 
HETATM   20  O   UNL     1     -45.919 -52.863  12.009  1.00  0.00    -0.273 OA
ENDBRANCH  14  15
ENDBRANCH   2  14
TORSDOF 5
ENDMDL
MODEL 4
REMARK VINA RESULT:      -5.3      4.519      6.444
REMARK  5 active torsions:
REMARK  status: ('A' for Active; 'I' for Inactive)
REMARK    1  A    between atoms: C_5  and  C_6 
REMARK    2  A    between atoms: C_6  and  C_7 
REMARK    3  A    between atoms: C_7  and  N_8 
REMARK       I    between atoms: N_8  and  C_9 
REMARK    4  A    between atoms: C_9  and  C_11 
REMARK    5  A    between atoms: C_11  and  N_12 
ROOT
HETATM    1  N   UNL     1     -40.887 -53.040  13.934  1.00  0.00    -0.359 N 
HETATM    2  C   UNL     1     -39.513 -53.151  13.989  1.00  0.00     0.235 C 
HETATM    3  O   UNL     1     -38.927 -54.167  13.615  1.00  0.00    -0.272 OA
HETATM    4  H   UNL     1     -41.351 -52.282  14.422  1.00  0.00     0.162 HD
ENDROOT
BRANCH   1   5
HETATM    5  C   UNL     1     -41.712 -54.144  13.469  1.00  0.00     0.128 C 
BRANCH   5   6
HETATM    6  C   UNL     1     -42.949 -54.398  14.334  1.00  0.00     0.077 C 
BRANCH   6   7
HETATM    7  C   UNL     1     -44.136 -53.597  13.904  1.00  0.00     0.018 A 
HETATM    8  N   UNL     1     -44.883 -52.937  14.870  1.00  0.00    -0.357 N 
HETATM    9  C   UNL     1     -45.868 -52.273  14.306  1.00  0.00     0.046 A 
ATOM     10  HN  UNL     1     -44.694 -52.964  15.872  1.00  0.00     0.166 HD
HETATM   11  C   UNL     1     -46.867 -51.458  15.049  1.00  0.00     0.076 C 
HETATM   12  S   UNL     1     -45.962 -52.401  12.596  1.00  0.00    -0.087 SA
HETATM   13  C   UNL     1     -44.582 -53.414  12.608  1.00  0.00     0.076 A 
ENDBRANCH   6   7
ENDBRANCH   5   6
ENDBRANCH   1   5
BRANCH   2  14
HETATM   14  C   UNL     1     -38.786 -51.878  14.435  1.00  0.00     0.229 C 
BRANCH  14  15
HETATM   15  N   UNL     1     -38.682 -50.848  13.408  1.00  0.00    -0.334 N 
HETATM   16  C   UNL     1     -39.666 -49.796  13.319  1.00  0.00     0.200 C 
HETATM   17  S   UNL     1     -39.193 -48.724  11.955  1.00  0.00    -0.140 SA
HETATM   18  C   UNL     1     -37.680 -49.635  11.592  1.00  0.00     0.178 C 
HETATM   19  C   UNL     1     -37.695 -50.882  12.445  1.00  0.00     0.230 C 
HETATM   20  O   UNL     1     -36.873 -51.784  12.330  1.00  0.00    -0.273 OA
ENDBRANCH  14  15
ENDBRANCH   2  14
TORSDOF 5
ENDMDL
MODEL 5
REMARK VINA RESULT:      -5.2      2.294      2.941
REMARK  5 active torsions:
REMARK  status: ('A' for Active; 'I' for Inactive)
REMARK    1  A    between atoms: C_5  and  C_6 
REMARK    2  A    between atoms: C_6  and  C_7 
REMARK    3  A    between atoms: C_7  and  N_8 
REMARK       I    between atoms: N_8  and  C_9 
REMARK    4  A    between atoms: C_9  and  C_11 
REMARK    5  A    between atoms: C_11  and  N_12 
ROOT
HETATM    1  N   UNL     1     -40.757 -51.009  11.299  1.00  0.00    -0.359 N 
HETATM    2  C   UNL     1     -40.822 -51.691  12.497  1.00  0.00     0.235 C 
HETATM    3  O   UNL     1     -40.762 -51.111  13.580  1.00  0.00    -0.272 OA
HETATM    4  H   UNL     1     -40.613 -51.520  10.436  1.00  0.00     0.162 HD
ENDROOT
BRANCH   1   5
HETATM    5  C   UNL     1     -40.571 -49.567  11.265  1.00  0.00     0.128 C 
BRANCH   5   6
HETATM    6  C   UNL     1     -41.880 -48.776  11.215  1.00  0.00     0.077 C 
BRANCH   6   7
HETATM    7  C   UNL     1     -41.667 -47.301  11.095  1.00  0.00     0.018 A 
HETATM    8  N   UNL     1     -40.495 -46.840  10.513  1.00  0.00    -0.357 N 
HETATM    9  C   UNL     1     -40.494 -45.525  10.477  1.00  0.00     0.046 A 
ATOM     10  HN  UNL     1     -39.744 -47.435  10.163  1.00  0.00     0.166 HD
HETATM   11  C   UNL     1     -39.388 -44.700   9.921  1.00  0.00     0.076 C 
HETATM   12  S   UNL     1     -41.886 -44.766  11.138  1.00  0.00    -0.087 SA
HETATM   13  C   UNL     1     -42.541 -46.307  11.495  1.00  0.00     0.076 A 
ENDBRANCH   6   7
ENDBRANCH   5   6
ENDBRANCH   1   5
BRANCH   2  14
HETATM   14  C   UNL     1     -41.090 -53.194  12.363  1.00  0.00     0.229 C 
BRANCH  14  15
HETATM   15  N   UNL     1     -42.295 -53.658  13.039  1.00  0.00    -0.334 N 
HETATM   16  C   UNL     1     -43.601 -53.341  12.514  1.00  0.00     0.200 C 
HETATM   17  S   UNL     1     -44.821 -54.092  13.601  1.00  0.00    -0.140 SA
HETATM   18  C   UNL     1     -43.588 -54.865  14.665  1.00  0.00     0.178 C 
HETATM   19  C   UNL     1     -42.237 -54.343  14.235  1.00  0.00     0.230 C 
HETATM   20  O   UNL     1     -41.202 -54.569  14.852  1.00  0.00    -0.273 OA
ENDBRANCH  14  15
ENDBRANCH   2  14
TORSDOF 5
ENDMDL
MODEL 6
REMARK VINA RESULT:      -5.2      2.579      7.036
REMARK  5 active torsions:
REMARK  status: ('A' for Active; 'I' for Inactive)
REMARK    1  A    between atoms: C_5  and  C_6 
REMARK    2  A    between atoms: C_6  and  C_7 
REMARK    3  A    between atoms: C_7  and  N_8 
REMARK       I    between atoms: N_8  and  C_9 
REMARK    4  A    between atoms: C_9  and  C_11 
REMARK    5  A    between atoms: C_11  and  N_12 
ROOT
HETATM    1  N   UNL     1     -41.319 -50.018  11.494  1.00  0.00    -0.359 N 
HETATM    2  C   UNL     1     -42.233 -48.986  11.429  1.00  0.00     0.235 C 
HETATM    3  O   UNL     1     -43.128 -48.857  12.263  1.00  0.00    -0.272 OA
HETATM    4  H   UNL     1     -40.721 -50.212  10.698  1.00  0.00     0.162 HD
ENDROOT
BRANCH   1   5
HETATM    5  C   UNL     1     -41.401 -51.030  12.535  1.00  0.00     0.128 C 
BRANCH   5   6
HETATM    6  C   UNL     1     -41.899 -52.388  12.038  1.00  0.00     0.077 C 
BRANCH   6   7
HETATM    7  C   UNL     1     -43.238 -52.758  12.594  1.00  0.00     0.018 A 
HETATM    8  N   UNL     1     -44.192 -51.764  12.754  1.00  0.00    -0.357 N 
HETATM    9  C   UNL     1     -45.305 -52.277  13.233  1.00  0.00     0.046 A 
ATOM     10  HN  UNL     1     -44.052 -50.778  12.532  1.00  0.00     0.166 HD
HETATM   11  C   UNL     1     -46.534 -51.493  13.531  1.00  0.00     0.076 C 
HETATM   12  S   UNL     1     -45.273 -53.970  13.523  1.00  0.00    -0.087 SA
HETATM   13  C   UNL     1     -43.656 -54.022  12.963  1.00  0.00     0.076 A 
ENDBRANCH   6   7
ENDBRANCH   5   6
ENDBRANCH   1   5
BRANCH   2  14
HETATM   14  C   UNL     1     -41.968 -47.966  10.316  1.00  0.00     0.229 C 
BRANCH  14  15
HETATM   15  N   UNL     1     -41.441 -46.688  10.779  1.00  0.00    -0.334 N 
HETATM   16  C   UNL     1     -42.182 -45.468  10.571  1.00  0.00     0.200 C 
HETATM   17  S   UNL     1     -41.227 -44.122  11.286  1.00  0.00    -0.140 SA
HETATM   18  C   UNL     1     -39.924 -45.204  11.907  1.00  0.00     0.178 C 
HETATM   19  C   UNL     1     -40.192 -46.586  11.357  1.00  0.00     0.230 C 
HETATM   20  O   UNL     1     -39.410 -47.521  11.480  1.00  0.00    -0.273 OA
ENDBRANCH  14  15
ENDBRANCH   2  14
TORSDOF 5
ENDMDL
MODEL 7
REMARK VINA RESULT:      -5.1      1.812      2.042
REMARK  5 active torsions:
REMARK  status: ('A' for Active; 'I' for Inactive)
REMARK    1  A    between atoms: C_5  and  C_6 
REMARK    2  A    between atoms: C_6  and  C_7 
REMARK    3  A    between atoms: C_7  and  N_8 
REMARK       I    between atoms: N_8  and  C_9 
REMARK    4  A    between atoms: C_9  and  C_11 
REMARK    5  A    between atoms: C_11  and  N_12 
ROOT
HETATM    1  N   UNL     1     -41.146 -50.723  12.635  1.00  0.00    -0.359 N 
HETATM    2  C   UNL     1     -41.131 -52.080  12.884  1.00  0.00     0.235 C 
HETATM    3  O   UNL     1     -40.508 -52.865  12.170  1.00  0.00    -0.272 OA
HETATM    4  H   UNL     1     -41.815 -50.131  13.114  1.00  0.00     0.162 HD
ENDROOT
BRANCH   1   5
HETATM    5  C   UNL     1     -40.456 -50.162  11.483  1.00  0.00     0.128 C 
BRANCH   5   6
HETATM    6  C   UNL     1     -40.191 -48.659  11.594  1.00  0.00     0.077 C 
BRANCH   6   7
HETATM    7  C   UNL     1     -41.214 -47.832  10.884  1.00  0.00     0.018 A 
HETATM    8  N   UNL     1     -41.831 -48.355   9.757  1.00  0.00    -0.357 N 
HETATM    9  C   UNL     1     -42.710 -47.499   9.282  1.00  0.00     0.046 A 
ATOM     10  HN  UNL     1     -41.633 -49.271   9.355  1.00  0.00     0.166 HD
HETATM   11  C   UNL     1     -43.549 -47.735   8.077  1.00  0.00     0.076 C 
HETATM   12  S   UNL     1     -42.846 -46.022  10.151  1.00  0.00    -0.087 SA
HETATM   13  C   UNL     1     -41.647 -46.569  11.243  1.00  0.00     0.076 A 
ENDBRANCH   6   7
ENDBRANCH   5   6
ENDBRANCH   1   5
BRANCH   2  14
HETATM   14  C   UNL     1     -41.845 -52.502  14.172  1.00  0.00     0.229 C 
BRANCH  14  15
HETATM   15  N   UNL     1     -43.178 -53.059  13.971  1.00  0.00    -0.334 N 
HETATM   16  C   UNL     1     -43.397 -54.483  14.033  1.00  0.00     0.200 C 
HETATM   17  S   UNL     1     -45.149 -54.777  13.755  1.00  0.00    -0.140 SA
HETATM   18  C   UNL     1     -45.558 -53.023  13.646  1.00  0.00     0.178 C 
HETATM   19  C   UNL     1     -44.254 -52.261  13.642  1.00  0.00     0.230 C 
HETATM   20  O   UNL     1     -44.183 -51.054  13.436  1.00  0.00    -0.273 OA
ENDBRANCH  14  15
ENDBRANCH   2  14
TORSDOF 5
ENDMDL
MODEL 8
REMARK VINA RESULT:      -4.9      2.451      6.755
REMARK  5 active torsions:
REMARK  status: ('A' for Active; 'I' for Inactive)
REMARK    1  A    between atoms: C_5  and  C_6 
REMARK    2  A    between atoms: C_6  and  C_7 
REMARK    3  A    between atoms: C_7  and  N_8 
REMARK       I    between atoms: N_8  and  C_9 
REMARK    4  A    between atoms: C_9  and  C_11 
REMARK    5  A    between atoms: C_11  and  N_12 
ROOT
HETATM    1  N   UNL     1     -41.202 -49.543  12.344  1.00  0.00    -0.359 N 
HETATM    2  C   UNL     1     -42.139 -48.587  12.676  1.00  0.00     0.235 C 
HETATM    3  O   UNL     1     -42.997 -48.787  13.535  1.00  0.00    -0.272 OA
HETATM    4  H   UNL     1     -40.639 -49.427  11.509  1.00  0.00     0.162 HD
ENDROOT
BRANCH   1   5
HETATM    5  C   UNL     1     -41.214 -50.856  12.969  1.00  0.00     0.128 C 
BRANCH   5   6
HETATM    6  C   UNL     1     -41.818 -51.953  12.091  1.00  0.00     0.077 C 
BRANCH   6   7
HETATM    7  C   UNL     1     -43.126 -52.461  12.607  1.00  0.00     0.018 A 
HETATM    8  N   UNL     1     -44.162 -51.559  12.804  1.00  0.00    -0.357 N 
HETATM    9  C   UNL     1     -45.233 -52.186  13.239  1.00  0.00     0.046 A 
ATOM     10  HN  UNL     1     -44.102 -50.555  12.635  1.00  0.00     0.166 HD
HETATM   11  C   UNL     1     -46.526 -51.523  13.558  1.00  0.00     0.076 C 
HETATM   12  S   UNL     1     -45.064 -53.884  13.442  1.00  0.00    -0.087 SA
HETATM   13  C   UNL     1     -43.442 -53.773  12.904  1.00  0.00     0.076 A 
ENDBRANCH   6   7
ENDBRANCH   5   6
ENDBRANCH   1   5
BRANCH   2  14
HETATM   14  C   UNL     1     -41.948 -47.235  11.980  1.00  0.00     0.229 C 
BRANCH  14  15
HETATM   15  N   UNL     1     -42.841 -47.003  10.850  1.00  0.00    -0.334 N 
HETATM   16  C   UNL     1     -43.977 -47.862  10.622  1.00  0.00     0.200 C 
HETATM   17  S   UNL     1     -44.834 -47.254   9.163  1.00  0.00    -0.140 SA
HETATM   18  C   UNL     1     -43.729 -45.847   8.940  1.00  0.00     0.178 C 
HETATM   19  C   UNL     1     -42.593 -46.012   9.923  1.00  0.00     0.230 C 
HETATM   20  O   UNL     1     -41.600 -45.294   9.928  1.00  0.00    -0.273 OA
ENDBRANCH  14  15
ENDBRANCH   2  14
TORSDOF 5
ENDMDL
MODEL 9
REMARK VINA RESULT:      -4.9      2.761      6.731
REMARK  5 active torsions:
REMARK  status: ('A' for Active; 'I' for Inactive)
REMARK    1  A    between atoms: C_5  and  C_6 
REMARK    2  A    between atoms: C_6  and  C_7 
REMARK    3  A    between atoms: C_7  and  N_8 
REMARK       I    between atoms: N_8  and  C_9 
REMARK    4  A    between atoms: C_9  and  C_11 
REMARK    5  A    between atoms: C_11  and  N_12 
ROOT
HETATM    1  N   UNL     1     -40.859 -51.826  12.836  1.00  0.00    -0.359 N 
HETATM    2  C   UNL     1     -41.461 -50.705  12.304  1.00  0.00     0.235 C 
HETATM    3  O   UNL     1     -42.535 -50.280  12.729  1.00  0.00    -0.272 OA
HETATM    4  H   UNL     1     -40.085 -52.262  12.346  1.00  0.00     0.162 HD
ENDROOT
BRANCH   1   5
HETATM    5  C   UNL     1     -41.491 -52.585  13.904  1.00  0.00     0.128 C 
BRANCH   5   6
HETATM    6  C   UNL     1     -42.313 -53.777  13.410  1.00  0.00     0.077 C 
BRANCH   6   7
HETATM    7  C   UNL     1     -43.752 -53.701  13.814  1.00  0.00     0.018 A 
HETATM    8  N   UNL     1     -44.389 -52.470  13.786  1.00  0.00    -0.357 N 
HETATM    9  C   UNL     1     -45.646 -52.602  14.152  1.00  0.00     0.046 A 
ATOM     10  HN  UNL     1     -43.948 -51.589  13.521  1.00  0.00     0.166 HD
HETATM   11  C   UNL     1     -46.620 -51.480  14.239  1.00  0.00     0.076 C 
HETATM   12  S   UNL     1     -46.135 -54.199  14.551  1.00  0.00    -0.087 SA
HETATM   13  C   UNL     1     -44.553 -54.756  14.207  1.00  0.00     0.076 A 
ENDBRANCH   6   7
ENDBRANCH   5   6
ENDBRANCH   1   5
BRANCH   2  14
HETATM   14  C   UNL     1     -40.635 -49.980  11.236  1.00  0.00     0.229 C 
BRANCH  14  15
HETATM   15  N   UNL     1     -40.592 -48.530  11.384  1.00  0.00    -0.334 N 
HETATM   16  C   UNL     1     -39.764 -47.918  12.394  1.00  0.00     0.200 C 
HETATM   17  S   UNL     1     -39.964 -46.136  12.255  1.00  0.00    -0.140 SA
HETATM   18  C   UNL     1     -41.062 -46.240  10.828  1.00  0.00     0.178 C 
HETATM   19  C   UNL     1     -41.391 -47.701  10.624  1.00  0.00     0.230 C 
HETATM   20  O   UNL     1     -42.227 -48.094   9.820  1.00  0.00    -0.273 OA
ENDBRANCH  14  15
ENDBRANCH   2  14
TORSDOF 5
ENDMDL
