MODEL 1
REMARK VINA RESULT:      -6.0      0.000      0.000
REMARK  3 active torsions:
REMARK  status: ('A' for Active; 'I' for Inactive)
REMARK       I    between atoms: N_4  and  C_5 
REMARK       I    between atoms: C_5  and  N_9 
REMARK    1  A    between atoms: N_9  and  C_10 
REMARK    2  A    between atoms: C_10  and  C_11 
REMARK    3  A    between atoms: C_16  and  N_18 
ROOT
HETATM    1  C   UNL     2     -42.592 -50.064  12.484  1.00  0.00    -0.035 A 
HETATM    2  C   UNL     2     -41.366 -50.715  12.307  1.00  0.00     0.026 A 
HETATM    3  C   UNL     2     -40.438 -50.194  11.404  1.00  0.00     0.090 A 
HETATM    4  N   UNL     2     -40.733 -49.075  10.691  1.00  0.00    -0.352 N 
ATOM      5  HN  UNL     2     -40.049 -48.726  10.018  1.00  0.00     0.166 HD
HETATM    6  C   UNL     2     -41.911 -48.399  10.841  1.00  0.00     0.103 A 
HETATM    7  C   UNL     2     -42.858 -48.896  11.757  1.00  0.00     0.057 A 
ENDROOT
BRANCH   1   8
HETATM    8  C   UNL     2     -43.625 -50.616  13.437  1.00  0.00     0.176 C 
BRANCH   8   9
HETATM    9  N   UNL     2     -44.852 -50.971  12.743  1.00  0.00    -0.222 N 
HETATM   10  C   UNL     2     -45.391 -52.295  12.825  1.00  0.00     0.669 C 
HETATM   11  N   UNL     2     -46.626 -52.622  12.171  1.00  0.00    -0.231 N 
HETATM   12  N   UNL     2     -44.741 -53.187  13.504  1.00  0.00    -0.231 N 
HETATM   13  C   UNL     2     -47.393 -51.661  11.412  1.00  0.00     0.165 C 
HETATM   14  H   UNL     2     -47.006 -53.579  12.228  1.00  0.00     0.177 HD
HETATM   15  C   UNL     2     -45.147 -54.560  13.699  1.00  0.00     0.165 C 
ATOM     16  HN  UNL     2     -43.866 -52.895  13.939  1.00  0.00     0.177 HD
HETATM   17  H   UNL     2     -45.356 -50.244  12.215  1.00  0.00     0.178 HD
ENDBRANCH   8   9
ENDBRANCH   1   8
BRANCH   6  18
HETATM   18  N   UNL     2     -42.166 -47.233  10.043  1.00  0.00    -0.363 N 
HETATM   19  C   UNL     2     -41.598 -45.938  10.380  1.00  0.00     0.150 C 
HETATM   20  C   UNL     2     -42.733 -44.918  10.510  1.00  0.00     0.187 C 
HETATM   21  O   UNL     2     -43.511 -44.888   9.325  1.00  0.00    -0.388 OA
HETATM   22  C   UNL     2     -44.120 -46.153   9.117  1.00  0.00     0.187 C 
HETATM   23  C   UNL     2     -43.054 -47.234   8.889  1.00  0.00     0.150 C 
ENDBRANCH   6  18
TORSDOF 3
ENDMDL
MODEL 2
REMARK VINA RESULT:      -6.0      2.784      6.768
REMARK  3 active torsions:
REMARK  status: ('A' for Active; 'I' for Inactive)
REMARK       I    between atoms: N_4  and  C_5 
REMARK       I    between atoms: C_5  and  N_9 
REMARK    1  A    between atoms: N_9  and  C_10 
REMARK    2  A    between atoms: C_10  and  C_11 
REMARK    3  A    between atoms: C_16  and  N_18 
ROOT
HETATM    1  C   UNL     2     -41.591 -51.192  12.253  1.00  0.00    -0.035 A 
HETATM    2  C   UNL     2     -40.733 -52.296  12.281  1.00  0.00     0.026 A 
HETATM    3  C   UNL     2     -41.253 -53.562  12.552  1.00  0.00     0.090 A 
HETATM    4  N   UNL     2     -42.580 -53.715  12.805  1.00  0.00    -0.352 N 
ATOM      5  HN  UNL     2     -42.934 -54.647  13.025  1.00  0.00     0.166 HD
HETATM    6  C   UNL     2     -43.458 -52.669  12.775  1.00  0.00     0.103 A 
HETATM    7  C   UNL     2     -42.960 -51.383  12.489  1.00  0.00     0.057 A 
ENDROOT
BRANCH   1   8
HETATM    8  C   UNL     2     -41.055 -49.807  11.985  1.00  0.00     0.176 C 
BRANCH   8   9
HETATM    9  N   UNL     2     -41.873 -49.099  11.013  1.00  0.00    -0.222 N 
HETATM   10  C   UNL     2     -41.508 -47.796  10.548  1.00  0.00     0.669 C 
HETATM   11  N   UNL     2     -42.300 -47.125   9.557  1.00  0.00    -0.231 N 
HETATM   12  N   UNL     2     -40.446 -47.238  11.040  1.00  0.00    -0.231 N 
HETATM   13  C   UNL     2     -43.485 -47.709   8.971  1.00  0.00     0.165 C 
HETATM   14  H   UNL     2     -42.036 -46.183   9.231  1.00  0.00     0.177 HD
HETATM   15  C   UNL     2     -39.929 -45.939  10.674  1.00  0.00     0.165 C 
ATOM     16  HN  UNL     2     -39.930 -47.762  11.747  1.00  0.00     0.177 HD
HETATM   17  H   UNL     2     -42.709 -49.564  10.630  1.00  0.00     0.178 HD
ENDBRANCH   8   9
ENDBRANCH   1   8
BRANCH   6  18
HETATM   18  N   UNL     2     -44.845 -52.897  13.069  1.00  0.00    -0.363 N 
HETATM   19  C   UNL     2     -45.829 -51.830  12.984  1.00  0.00     0.150 C 
HETATM   20  C   UNL     2     -46.555 -51.717  14.328  1.00  0.00     0.187 C 
HETATM   21  O   UNL     2     -47.122 -52.964  14.691  1.00  0.00    -0.388 OA
HETATM   22  C   UNL     2     -46.095 -53.929  14.861  1.00  0.00     0.187 C 
HETATM   23  C   UNL     2     -45.361 -54.176  13.535  1.00  0.00     0.150 C 
ENDBRANCH   6  18
TORSDOF 3
ENDMDL
MODEL 3
REMARK VINA RESULT:      -5.8      3.034      4.276
REMARK  3 active torsions:
REMARK  status: ('A' for Active; 'I' for Inactive)
REMARK       I    between atoms: N_4  and  C_5 
REMARK       I    between atoms: C_5  and  N_9 
REMARK    1  A    between atoms: N_9  and  C_10 
REMARK    2  A    between atoms: C_10  and  C_11 
REMARK    3  A    between atoms: C_16  and  N_18 
ROOT
HETATM    1  C   UNL     2     -42.665 -53.388  12.903  1.00  0.00    -0.035 A 
HETATM    2  C   UNL     2     -41.906 -54.290  13.655  1.00  0.00     0.026 A 
HETATM    3  C   UNL     2     -40.552 -54.032  13.872  1.00  0.00     0.090 A 
HETATM    4  N   UNL     2     -39.974 -52.922  13.340  1.00  0.00    -0.352 N 
ATOM      5  HN  UNL     2     -38.977 -52.766  13.491  1.00  0.00     0.166 HD
HETATM    6  C   UNL     2     -40.679 -52.006  12.611  1.00  0.00     0.103 A 
HETATM    7  C   UNL     2     -42.051 -52.236  12.391  1.00  0.00     0.057 A 
ENDROOT
BRANCH   1   8
HETATM    8  C   UNL     2     -44.127 -53.650  12.632  1.00  0.00     0.176 C 
BRANCH   8   9
HETATM    9  N   UNL     2     -44.980 -52.872  13.516  1.00  0.00    -0.222 N 
HETATM   10  C   UNL     2     -46.101 -52.141  13.008  1.00  0.00     0.669 C 
HETATM   11  N   UNL     2     -46.960 -51.412  13.897  1.00  0.00    -0.231 N 
HETATM   12  N   UNL     2     -46.322 -52.156  11.731  1.00  0.00    -0.231 N 
HETATM   13  C   UNL     2     -46.762 -51.374  15.328  1.00  0.00     0.165 C 
HETATM   14  H   UNL     2     -47.762 -50.882  13.524  1.00  0.00     0.177 HD
HETATM   15  C   UNL     2     -47.410 -51.486  11.056  1.00  0.00     0.165 C 
ATOM     16  HN  UNL     2     -45.671 -52.685  11.152  1.00  0.00     0.177 HD
HETATM   17  H   UNL     2     -44.790 -52.881  14.529  1.00  0.00     0.178 HD
ENDBRANCH   8   9
ENDBRANCH   1   8
BRANCH   6  18
HETATM   18  N   UNL     2     -40.004 -50.864  12.063  1.00  0.00    -0.363 N 
HETATM   19  C   UNL     2     -38.587 -50.630  12.295  1.00  0.00     0.150 C 
HETATM   20  C   UNL     2     -38.409 -49.238  12.908  1.00  0.00     0.187 C 
HETATM   21  O   UNL     2     -39.003 -48.252  12.079  1.00  0.00    -0.388 OA
HETATM   22  C   UNL     2     -40.400 -48.481  11.985  1.00  0.00     0.187 C 
HETATM   23  C   UNL     2     -40.682 -49.827  11.299  1.00  0.00     0.150 C 
ENDBRANCH   6  18
TORSDOF 3
ENDMDL
MODEL 4
REMARK VINA RESULT:      -5.7      3.090      6.863
REMARK  3 active torsions:
REMARK  status: ('A' for Active; 'I' for Inactive)
REMARK       I    between atoms: N_4  and  C_5 
REMARK       I    between atoms: C_5  and  N_9 
REMARK    1  A    between atoms: N_9  and  C_10 
REMARK    2  A    between atoms: C_10  and  C_11 
REMARK    3  A    between atoms: C_16  and  N_18 
ROOT
HETATM    1  C   UNL     2     -41.547 -53.217  12.923  1.00  0.00    -0.035 A 
HETATM    2  C   UNL     2     -40.913 -54.063  13.839  1.00  0.00     0.026 A 
HETATM    3  C   UNL     2     -41.625 -54.538  14.941  1.00  0.00     0.090 A 
HETATM    4  N   UNL     2     -42.920 -54.167  15.129  1.00  0.00    -0.352 N 
ATOM      5  HN  UNL     2     -43.413 -54.507  15.955  1.00  0.00     0.166 HD
HETATM    6  C   UNL     2     -43.584 -53.354  14.254  1.00  0.00     0.103 A 
HETATM    7  C   UNL     2     -42.891 -52.873  13.126  1.00  0.00     0.057 A 
ENDROOT
BRANCH   1   8
HETATM    8  C   UNL     2     -40.797 -52.669  11.734  1.00  0.00     0.176 C 
BRANCH   8   9
HETATM    9  N   UNL     2     -41.133 -51.276  11.489  1.00  0.00    -0.222 N 
HETATM   10  C   UNL     2     -40.114 -50.277  11.376  1.00  0.00     0.669 C 
HETATM   11  N   UNL     2     -40.457 -48.912  11.091  1.00  0.00    -0.231 N 
HETATM   12  N   UNL     2     -38.878 -50.633  11.534  1.00  0.00    -0.231 N 
HETATM   13  C   UNL     2     -41.818 -48.468  10.896  1.00  0.00     0.165 C 
HETATM   14  H   UNL     2     -39.719 -48.197  11.018  1.00  0.00     0.177 HD
HETATM   15  C   UNL     2     -37.730 -49.761  11.441  1.00  0.00     0.165 C 
ATOM     16  HN  UNL     2     -38.700 -51.616  11.742  1.00  0.00     0.177 HD
HETATM   17  H   UNL     2     -42.122 -51.016  11.359  1.00  0.00     0.178 HD
ENDBRANCH   8   9
ENDBRANCH   1   8
BRANCH   6  18
HETATM   18  N   UNL     2     -44.946 -52.986  14.522  1.00  0.00    -0.363 N 
HETATM   19  C   UNL     2     -45.943 -52.927  13.466  1.00  0.00     0.150 C 
HETATM   20  C   UNL     2     -46.577 -51.533  13.461  1.00  0.00     0.187 C 
HETATM   21  O   UNL     2     -47.108 -51.225  14.740  1.00  0.00    -0.388 OA
HETATM   22  C   UNL     2     -46.063 -51.196  15.700  1.00  0.00     0.187 C 
HETATM   23  C   UNL     2     -45.418 -52.583  15.839  1.00  0.00     0.150 C 
ENDBRANCH   6  18
TORSDOF 3
ENDMDL
MODEL 5
REMARK VINA RESULT:      -5.6      3.896      7.421
REMARK  3 active torsions:
REMARK  status: ('A' for Active; 'I' for Inactive)
REMARK       I    between atoms: N_4  and  C_5 
REMARK       I    between atoms: C_5  and  N_9 
REMARK    1  A    between atoms: N_9  and  C_10 
REMARK    2  A    between atoms: C_10  and  C_11 
REMARK    3  A    between atoms: C_16  and  N_18 
ROOT
HETATM    1  C   UNL     2     -41.550 -51.752  12.241  1.00  0.00    -0.035 A 
HETATM    2  C   UNL     2     -40.628 -52.784  12.451  1.00  0.00     0.026 A 
HETATM    3  C   UNL     2     -41.084 -54.041  12.847  1.00  0.00     0.090 A 
HETATM    4  N   UNL     2     -42.413 -54.255  13.045  1.00  0.00    -0.352 N 
ATOM      5  HN  UNL     2     -42.721 -55.175  13.358  1.00  0.00     0.166 HD
HETATM    6  C   UNL     2     -43.350 -53.282  12.840  1.00  0.00     0.103 A 
HETATM    7  C   UNL     2     -42.916 -52.008  12.425  1.00  0.00     0.057 A 
ENDROOT
BRANCH   1   8
HETATM    8  C   UNL     2     -41.085 -50.375  11.834  1.00  0.00     0.176 C 
BRANCH   8   9
HETATM    9  N   UNL     2     -40.077 -49.862  12.748  1.00  0.00    -0.222 N 
HETATM   10  C   UNL     2     -38.712 -49.722  12.342  1.00  0.00     0.669 C 
HETATM   11  N   UNL     2     -37.735 -49.173  13.240  1.00  0.00    -0.231 N 
HETATM   12  N   UNL     2     -38.380 -50.098  11.147  1.00  0.00    -0.231 N 
HETATM   13  C   UNL     2     -38.058 -48.730  14.577  1.00  0.00     0.165 C 
HETATM   14  H   UNL     2     -36.752 -49.081  12.944  1.00  0.00     0.177 HD
HETATM   15  C   UNL     2     -37.056 -50.015  10.574  1.00  0.00     0.165 C 
ATOM     16  HN  UNL     2     -39.118 -50.487  10.560  1.00  0.00     0.177 HD
HETATM   17  H   UNL     2     -40.365 -49.562  13.692  1.00  0.00     0.178 HD
ENDBRANCH   8   9
ENDBRANCH   1   8
BRANCH   6  18
HETATM   18  N   UNL     2     -44.735 -53.569  13.084  1.00  0.00    -0.363 N 
HETATM   19  C   UNL     2     -45.784 -52.623  12.738  1.00  0.00     0.150 C 
HETATM   20  C   UNL     2     -46.617 -52.327  13.988  1.00  0.00     0.187 C 
HETATM   21  O   UNL     2     -47.120 -53.531  14.544  1.00  0.00    -0.388 OA
HETATM   22  C   UNL     2     -46.043 -54.358  14.957  1.00  0.00     0.187 C 
HETATM   23  C   UNL     2     -45.194 -54.780  13.749  1.00  0.00     0.150 C 
ENDBRANCH   6  18
TORSDOF 3
ENDMDL
MODEL 6
REMARK VINA RESULT:      -5.4      3.322      7.262
REMARK  3 active torsions:
REMARK  status: ('A' for Active; 'I' for Inactive)
REMARK       I    between atoms: N_4  and  C_5 
REMARK       I    between atoms: C_5  and  N_9 
REMARK    1  A    between atoms: N_9  and  C_10 
REMARK    2  A    between atoms: C_10  and  C_11 
REMARK    3  A    between atoms: C_16  and  N_18 
ROOT
HETATM    1  C   UNL     2     -42.000 -50.045  12.873  1.00  0.00    -0.035 A 
HETATM    2  C   UNL     2     -42.342 -49.030  13.773  1.00  0.00     0.026 A 
HETATM    3  C   UNL     2     -43.075 -49.347  14.917  1.00  0.00     0.090 A 
HETATM    4  N   UNL     2     -43.467 -50.628  15.144  1.00  0.00    -0.352 N 
ATOM      5  HN  UNL     2     -44.023 -50.832  15.975  1.00  0.00     0.166 HD
HETATM    6  C   UNL     2     -43.145 -51.654  14.300  1.00  0.00     0.103 A 
HETATM    7  C   UNL     2     -42.393 -51.362  13.146  1.00  0.00     0.057 A 
ENDROOT
BRANCH   1   8
HETATM    8  C   UNL     2     -41.227 -49.730  11.615  1.00  0.00     0.176 C 
BRANCH   8   9
HETATM    9  N   UNL     2     -42.024 -48.947  10.684  1.00  0.00    -0.222 N 
HETATM   10  C   UNL     2     -41.646 -47.614  10.325  1.00  0.00     0.669 C 
HETATM   11  N   UNL     2     -42.416 -46.867   9.372  1.00  0.00    -0.231 N 
HETATM   12  N   UNL     2     -40.592 -47.100  10.878  1.00  0.00    -0.231 N 
HETATM   13  C   UNL     2     -43.590 -47.400   8.720  1.00  0.00     0.165 C 
HETATM   14  H   UNL     2     -42.142 -45.905   9.123  1.00  0.00     0.177 HD
HETATM   15  C   UNL     2     -40.064 -45.779  10.623  1.00  0.00     0.165 C 
ATOM     16  HN  UNL     2     -40.092 -47.678  11.554  1.00  0.00     0.177 HD
HETATM   17  H   UNL     2     -42.853 -49.379  10.250  1.00  0.00     0.178 HD
ENDBRANCH   8   9
ENDBRANCH   1   8
BRANCH   6  18
HETATM   18  N   UNL     2     -43.607 -52.982  14.590  1.00  0.00    -0.363 N 
HETATM   19  C   UNL     2     -43.633 -54.020  13.572  1.00  0.00     0.150 C 
HETATM   20  C   UNL     2     -45.055 -54.582  13.474  1.00  0.00     0.187 C 
HETATM   21  O   UNL     2     -45.494 -55.041  14.742  1.00  0.00    -0.388 OA
HETATM   22  C   UNL     2     -45.546 -53.955  15.655  1.00  0.00     0.187 C 
HETATM   23  C   UNL     2     -44.142 -53.376  15.885  1.00  0.00     0.150 C 
ENDBRANCH   6  18
TORSDOF 3
ENDMDL
MODEL 7
REMARK VINA RESULT:      -5.3      4.084      5.854
REMARK  3 active torsions:
REMARK  status: ('A' for Active; 'I' for Inactive)
REMARK       I    between atoms: N_4  and  C_5 
REMARK       I    between atoms: C_5  and  N_9 
REMARK    1  A    between atoms: N_9  and  C_10 
REMARK    2  A    between atoms: C_10  and  C_11 
REMARK    3  A    between atoms: C_16  and  N_18 
ROOT
HETATM    1  C   UNL     2     -41.957 -47.639  10.585  1.00  0.00    -0.035 A 
HETATM    2  C   UNL     2     -42.921 -47.677   9.572  1.00  0.00     0.026 A 
HETATM    3  C   UNL     2     -43.615 -46.512   9.242  1.00  0.00     0.090 A 
HETATM    4  N   UNL     2     -43.366 -45.356   9.912  1.00  0.00    -0.352 N 
ATOM      5  HN  UNL     2     -43.903 -44.522   9.671  1.00  0.00     0.166 HD
HETATM    6  C   UNL     2     -42.425 -45.268  10.899  1.00  0.00     0.103 A 
HETATM    7  C   UNL     2     -41.700 -46.427  11.240  1.00  0.00     0.057 A 
ENDROOT
BRANCH   1   8
HETATM    8  C   UNL     2     -41.206 -48.887  10.980  1.00  0.00     0.176 C 
BRANCH   8   9
HETATM    9  N   UNL     2     -40.321 -48.642  12.107  1.00  0.00    -0.222 N 
HETATM   10  C   UNL     2     -38.957 -49.073  12.085  1.00  0.00     0.669 C 
HETATM   11  N   UNL     2     -38.081 -48.786  13.186  1.00  0.00    -0.231 N 
HETATM   12  N   UNL     2     -38.530 -49.725  11.049  1.00  0.00    -0.231 N 
HETATM   13  C   UNL     2     -38.506 -48.054  14.358  1.00  0.00     0.165 C 
HETATM   14  H   UNL     2     -37.102 -49.106  13.167  1.00  0.00     0.177 HD
HETATM   15  C   UNL     2     -37.186 -50.220  10.857  1.00  0.00     0.165 C 
ATOM     16  HN  UNL     2     -39.203 -49.904  10.303  1.00  0.00     0.177 HD
HETATM   17  H   UNL     2     -40.679 -48.115  12.918  1.00  0.00     0.178 HD
ENDBRANCH   8   9
ENDBRANCH   1   8
BRANCH   6  18
HETATM   18  N   UNL     2     -42.225 -44.020  11.580  1.00  0.00    -0.363 N 
HETATM   19  C   UNL     2     -43.030 -42.848  11.277  1.00  0.00     0.150 C 
HETATM   20  C   UNL     2     -42.098 -41.691  10.903  1.00  0.00     0.187 C 
HETATM   21  O   UNL     2     -41.154 -41.461  11.936  1.00  0.00    -0.388 OA
HETATM   22  C   UNL     2     -40.335 -42.608  12.103  1.00  0.00     0.187 C 
HETATM   23  C   UNL     2     -41.174 -43.808  12.565  1.00  0.00     0.150 C 
ENDBRANCH   6  18
TORSDOF 3
ENDMDL
MODEL 8
REMARK VINA RESULT:      -5.2      3.430      6.132
REMARK  3 active torsions:
REMARK  status: ('A' for Active; 'I' for Inactive)
REMARK       I    between atoms: N_4  and  C_5 
REMARK       I    between atoms: C_5  and  N_9 
REMARK    1  A    between atoms: N_9  and  C_10 
REMARK    2  A    between atoms: C_10  and  C_11 
REMARK    3  A    between atoms: C_16  and  N_18 
ROOT
HETATM    1  C   UNL     2     -42.311 -47.849  12.238  1.00  0.00    -0.035 A 
HETATM    2  C   UNL     2     -41.201 -47.189  12.776  1.00  0.00     0.026 A 
HETATM    3  C   UNL     2     -40.285 -47.904  13.548  1.00  0.00     0.090 A 
HETATM    4  N   UNL     2     -40.482 -49.228  13.789  1.00  0.00    -0.352 N 
ATOM      5  HN  UNL     2     -39.812 -49.725  14.377  1.00  0.00     0.166 HD
HETATM    6  C   UNL     2     -41.543 -49.917  13.274  1.00  0.00     0.103 A 
HETATM    7  C   UNL     2     -42.474 -49.220  12.479  1.00  0.00     0.057 A 
ENDROOT
BRANCH   1   8
HETATM    8  C   UNL     2     -43.330 -47.098  11.417  1.00  0.00     0.176 C 
BRANCH   8   9
HETATM    9  N   UNL     2     -43.294 -47.504  10.022  1.00  0.00    -0.222 N 
HETATM   10  C   UNL     2     -44.479 -47.503   9.220  1.00  0.00     0.669 C 
HETATM   11  N   UNL     2     -44.423 -47.865   7.832  1.00  0.00    -0.231 N 
HETATM   12  N   UNL     2     -45.601 -47.166   9.774  1.00  0.00    -0.231 N 
HETATM   13  C   UNL     2     -43.196 -48.238   7.166  1.00  0.00     0.165 C 
HETATM   14  H   UNL     2     -45.281 -47.870   7.261  1.00  0.00     0.177 HD
HETATM   15  C   UNL     2     -46.884 -47.099   9.110  1.00  0.00     0.165 C 
ATOM     16  HN  UNL     2     -45.578 -46.927  10.765  1.00  0.00     0.177 HD
HETATM   17  H   UNL     2     -42.390 -47.762   9.600  1.00  0.00     0.178 HD
ENDBRANCH   8   9
ENDBRANCH   1   8
BRANCH   6  18
HETATM   18  N   UNL     2     -41.701 -51.311  13.583  1.00  0.00    -0.363 N 
HETATM   19  C   UNL     2     -40.572 -52.226  13.579  1.00  0.00     0.150 C 
HETATM   20  C   UNL     2     -40.880 -53.388  12.630  1.00  0.00     0.187 C 
HETATM   21  O   UNL     2     -42.099 -54.016  12.994  1.00  0.00    -0.388 OA
HETATM   22  C   UNL     2     -43.170 -53.093  12.871  1.00  0.00     0.187 C 
HETATM   23  C   UNL     2     -42.992 -51.926  13.854  1.00  0.00     0.150 C 
ENDBRANCH   6  18
TORSDOF 3
ENDMDL
MODEL 9
REMARK VINA RESULT:      -5.1      4.094      7.503
REMARK  3 active torsions:
REMARK  status: ('A' for Active; 'I' for Inactive)
REMARK       I    between atoms: N_4  and  C_5 
REMARK       I    between atoms: C_5  and  N_9 
REMARK    1  A    between atoms: N_9  and  C_10 
REMARK    2  A    between atoms: C_10  and  C_11 
REMARK    3  A    between atoms: C_16  and  N_18 
ROOT
HETATM    1  C   UNL     2     -40.446 -49.464  11.559  1.00  0.00    -0.035 A 
HETATM    2  C   UNL     2     -39.126 -49.081  11.821  1.00  0.00     0.026 A 
HETATM    3  C   UNL     2     -38.274 -49.966  12.484  1.00  0.00     0.090 A 
HETATM    4  N   UNL     2     -38.731 -51.182  12.886  1.00  0.00    -0.352 N 
ATOM      5  HN  UNL     2     -38.098 -51.802  13.391  1.00  0.00     0.166 HD
HETATM    6  C   UNL     2     -40.007 -51.604  12.639  1.00  0.00     0.103 A 
HETATM    7  C   UNL     2     -40.882 -50.735  11.958  1.00  0.00     0.057 A 
ENDROOT
BRANCH   1   8
HETATM    8  C   UNL     2     -41.397 -48.521  10.863  1.00  0.00     0.176 C 
BRANCH   8   9
HETATM    9  N   UNL     2     -40.738 -47.280  10.491  1.00  0.00    -0.222 N 
HETATM   10  C   UNL     2     -41.075 -46.043  11.129  1.00  0.00     0.669 C 
HETATM   11  N   UNL     2     -40.387 -44.832  10.784  1.00  0.00    -0.231 N 
HETATM   12  N   UNL     2     -42.011 -46.044  12.026  1.00  0.00    -0.231 N 
HETATM   13  C   UNL     2     -39.329 -44.781   9.800  1.00  0.00     0.165 C 
HETATM   14  H   UNL     2     -40.639 -43.944  11.242  1.00  0.00     0.177 HD
HETATM   15  C   UNL     2     -42.465 -44.893  12.773  1.00  0.00     0.165 C 
ATOM     16  HN  UNL     2     -42.468 -46.935  12.221  1.00  0.00     0.177 HD
HETATM   17  H   UNL     2     -39.991 -47.303   9.781  1.00  0.00     0.178 HD
ENDBRANCH   8   9
ENDBRANCH   1   8
BRANCH   6  18
HETATM   18  N   UNL     2     -40.430 -52.894  13.107  1.00  0.00    -0.363 N 
HETATM   19  C   UNL     2     -41.753 -53.418  12.808  1.00  0.00     0.150 C 
HETATM   20  C   UNL     2     -42.452 -53.778  14.122  1.00  0.00     0.187 C 
HETATM   21  O   UNL     2     -41.657 -54.680  14.875  1.00  0.00    -0.388 OA
HETATM   22  C   UNL     2     -40.427 -54.063  15.222  1.00  0.00     0.187 C 
HETATM   23  C   UNL     2     -39.611 -53.741  13.962  1.00  0.00     0.150 C 
ENDBRANCH   6  18
TORSDOF 3
ENDMDL
