MODEL 1
REMARK VINA RESULT:      -5.2      0.000      0.000
REMARK  5 active torsions:
REMARK  status: ('A' for Active; 'I' for Inactive)
REMARK    1  A    between atoms: O_2  and  C_3 
REMARK    2  A    between atoms: C_3  and  C_4 
REMARK       I    between atoms: C_4  and  N_6 
REMARK    3  A    between atoms: N_6  and  C_7 
REMARK    4  A    between atoms: C_7  and  C_8 
REMARK    5  A    between atoms: C_14  and  N_15 
ROOT
HETATM    1  C   UNL     1     -41.131 -47.518  11.186  1.00  0.00     0.004 A 
HETATM    2  C   UNL     1     -41.517 -46.199  11.493  1.00  0.00     0.014 A 
HETATM    3  C   UNL     1     -40.946 -45.531  12.561  1.00  0.00     0.018 A 
HETATM    4  C   UNL     1     -39.985 -46.203  13.283  1.00  0.00     0.089 A 
HETATM    5  N   UNL     1     -39.565 -47.456  12.996  1.00  0.00    -0.352 N 
ATOM      6  HN  UNL     1     -38.835 -47.894  13.557  1.00  0.00     0.166 HD
HETATM    7  C   UNL     1     -40.122 -48.125  11.955  1.00  0.00     0.111 A 
ENDROOT
BRANCH   1   8
HETATM    8  C   UNL     1     -41.902 -48.220  10.104  1.00  0.00     0.165 C 
BRANCH   8   9
HETATM    9  N   UNL     1     -43.297 -47.836  10.102  1.00  0.00    -0.355 N 
HETATM   10  C   UNL     1     -43.940 -47.557   8.914  1.00  0.00     0.241 C 
HETATM   11  O   UNL     1     -43.470 -47.806   7.810  1.00  0.00    -0.271 OA
HETATM   12  H   UNL     1     -43.688 -47.424  10.942  1.00  0.00     0.162 HD
BRANCH  10  13
HETATM   13  C   UNL     1     -45.291 -46.871   9.109  1.00  0.00     0.269 C 
BRANCH  13  14
HETATM   14  O   UNL     1     -46.332 -47.492   8.355  1.00  0.00    -0.387 OA
HETATM   15  C   UNL     1     -46.758 -48.717   8.947  1.00  0.00     0.202 C 
ENDBRANCH  13  14
ENDBRANCH  10  13
ENDBRANCH   8   9
ENDBRANCH   1   8
BRANCH   7  16
HETATM   16  N   UNL     1     -39.689 -49.421  11.751  1.00  0.00    -0.363 N 
HETATM   17  C   UNL     1     -40.449 -50.527  12.360  1.00  0.00     0.150 C 
HETATM   18  C   UNL     1     -39.620 -51.291  13.400  1.00  0.00     0.187 C 
HETATM   19  O   UNL     1     -38.370 -51.732  12.845  1.00  0.00    -0.388 OA
HETATM   20  C   UNL     1     -37.596 -50.594  12.453  1.00  0.00     0.187 C 
HETATM   21  C   UNL     1     -38.305 -49.750  11.382  1.00  0.00     0.150 C 
ENDBRANCH   7  16
TORSDOF 5
ENDMDL
MODEL 2
REMARK VINA RESULT:      -5.1      3.135      6.144
REMARK  5 active torsions:
REMARK  status: ('A' for Active; 'I' for Inactive)
REMARK    1  A    between atoms: O_2  and  C_3 
REMARK    2  A    between atoms: C_3  and  C_4 
REMARK       I    between atoms: C_4  and  N_6 
REMARK    3  A    between atoms: N_6  and  C_7 
REMARK    4  A    between atoms: C_7  and  C_8 
REMARK    5  A    between atoms: C_14  and  N_15 
ROOT
HETATM    1  C   UNL     1     -42.226 -47.211  10.209  1.00  0.00     0.004 A 
HETATM    2  C   UNL     1     -43.019 -47.845   9.232  1.00  0.00     0.014 A 
HETATM    3  C   UNL     1     -44.044 -47.159   8.607  1.00  0.00     0.018 A 
HETATM    4  C   UNL     1     -44.234 -45.844   8.968  1.00  0.00     0.089 A 
HETATM    5  N   UNL     1     -43.470 -45.193   9.874  1.00  0.00    -0.352 N 
ATOM      6  HN  UNL     1     -43.649 -44.212  10.085  1.00  0.00     0.166 HD
HETATM    7  C   UNL     1     -42.465 -45.856  10.500  1.00  0.00     0.111 A 
ENDROOT
BRANCH   1   8
HETATM    8  C   UNL     1     -41.231 -48.067  10.941  1.00  0.00     0.165 C 
BRANCH   8   9
HETATM    9  N   UNL     1     -41.737 -49.402  11.171  1.00  0.00    -0.355 N 
HETATM   10  C   UNL     1     -41.053 -50.274  11.991  1.00  0.00     0.241 C 
HETATM   11  O   UNL     1     -40.128 -49.938  12.722  1.00  0.00    -0.271 OA
HETATM   12  H   UNL     1     -42.354 -49.813  10.478  1.00  0.00     0.162 HD
BRANCH  10  13
HETATM   13  C   UNL     1     -41.541 -51.717  11.876  1.00  0.00     0.269 C 
BRANCH  13  14
HETATM   14  O   UNL     1     -40.496 -52.665  12.090  1.00  0.00    -0.387 OA
HETATM   15  C   UNL     1     -40.934 -53.772  12.874  1.00  0.00     0.202 C 
ENDBRANCH  13  14
ENDBRANCH  10  13
ENDBRANCH   8   9
ENDBRANCH   1   8
BRANCH   7  16
HETATM   16  N   UNL     1     -41.761 -45.150  11.456  1.00  0.00    -0.363 N 
HETATM   17  C   UNL     1     -42.437 -44.792  12.716  1.00  0.00     0.150 C 
HETATM   18  C   UNL     1     -42.573 -43.274  12.885  1.00  0.00     0.187 C 
HETATM   19  O   UNL     1     -41.302 -42.620  12.747  1.00  0.00    -0.388 OA
HETATM   20  C   UNL     1     -40.791 -42.846  11.429  1.00  0.00     0.187 C 
HETATM   21  C   UNL     1     -40.577 -44.340  11.137  1.00  0.00     0.150 C 
ENDBRANCH   7  16
TORSDOF 5
ENDMDL
MODEL 3
REMARK VINA RESULT:      -5.1      1.574      2.019
REMARK  5 active torsions:
REMARK  status: ('A' for Active; 'I' for Inactive)
REMARK    1  A    between atoms: O_2  and  C_3 
REMARK    2  A    between atoms: C_3  and  C_4 
REMARK       I    between atoms: C_4  and  N_6 
REMARK    3  A    between atoms: N_6  and  C_7 
REMARK    4  A    between atoms: C_7  and  C_8 
REMARK    5  A    between atoms: C_14  and  N_15 
ROOT
HETATM    1  C   UNL     1     -39.835 -46.455  12.299  1.00  0.00     0.004 A 
HETATM    2  C   UNL     1     -40.069 -45.309  13.086  1.00  0.00     0.014 A 
HETATM    3  C   UNL     1     -40.088 -45.399  14.466  1.00  0.00     0.018 A 
HETATM    4  C   UNL     1     -39.853 -46.636  15.020  1.00  0.00     0.089 A 
HETATM    5  N   UNL     1     -39.590 -47.748  14.298  1.00  0.00    -0.352 N 
ATOM      6  HN  UNL     1     -39.405 -48.634  14.769  1.00  0.00     0.166 HD
HETATM    7  C   UNL     1     -39.574 -47.677  12.943  1.00  0.00     0.111 A 
ENDROOT
BRANCH   1   8
HETATM    8  C   UNL     1     -39.974 -46.299  10.811  1.00  0.00     0.165 C 
BRANCH   8   9
HETATM    9  N   UNL     1     -41.146 -46.979  10.306  1.00  0.00    -0.355 N 
HETATM   10  C   UNL     1     -42.306 -46.276  10.060  1.00  0.00     0.241 C 
HETATM   11  O   UNL     1     -42.371 -45.052  10.044  1.00  0.00    -0.271 OA
HETATM   12  H   UNL     1     -41.242 -47.975  10.478  1.00  0.00     0.162 HD
BRANCH  10  13
HETATM   13  C   UNL     1     -43.521 -47.176   9.841  1.00  0.00     0.269 C 
BRANCH  13  14
HETATM   14  O   UNL     1     -44.077 -47.033   8.534  1.00  0.00    -0.387 OA
HETATM   15  C   UNL     1     -43.479 -47.929   7.601  1.00  0.00     0.202 C 
ENDBRANCH  13  14
ENDBRANCH  10  13
ENDBRANCH   8   9
ENDBRANCH   1   8
BRANCH   7  16
HETATM   16  N   UNL     1     -39.357 -48.860  12.265  1.00  0.00    -0.363 N 
HETATM   17  C   UNL     1     -40.391 -49.909  12.317  1.00  0.00     0.150 C 
HETATM   18  C   UNL     1     -39.888 -51.179  13.015  1.00  0.00     0.187 C 
HETATM   19  O   UNL     1     -38.667 -51.650  12.423  1.00  0.00    -0.388 OA
HETATM   20  C   UNL     1     -37.648 -50.657  12.583  1.00  0.00     0.187 C 
HETATM   21  C   UNL     1     -38.014 -49.332  11.896  1.00  0.00     0.150 C 
ENDBRANCH   7  16
TORSDOF 5
ENDMDL
MODEL 4
REMARK VINA RESULT:      -5.0      4.403      6.447
REMARK  5 active torsions:
REMARK  status: ('A' for Active; 'I' for Inactive)
REMARK    1  A    between atoms: O_2  and  C_3 
REMARK    2  A    between atoms: C_3  and  C_4 
REMARK       I    between atoms: C_4  and  N_6 
REMARK    3  A    between atoms: N_6  and  C_7 
REMARK    4  A    between atoms: C_7  and  C_8 
REMARK    5  A    between atoms: C_14  and  N_15 
ROOT
HETATM    1  C   UNL     1     -41.373 -52.916  13.191  1.00  0.00     0.004 A 
HETATM    2  C   UNL     1     -40.852 -54.146  13.640  1.00  0.00     0.014 A 
HETATM    3  C   UNL     1     -39.549 -54.230  14.097  1.00  0.00     0.018 A 
HETATM    4  C   UNL     1     -38.809 -53.070  14.110  1.00  0.00     0.089 A 
HETATM    5  N   UNL     1     -39.288 -51.867  13.721  1.00  0.00    -0.352 N 
ATOM      6  HN  UNL     1     -38.695 -51.038  13.772  1.00  0.00     0.166 HD
HETATM    7  C   UNL     1     -40.561 -51.770  13.264  1.00  0.00     0.111 A 
ENDROOT
BRANCH   1   8
HETATM    8  C   UNL     1     -42.744 -52.940  12.577  1.00  0.00     0.165 C 
BRANCH   8   9
HETATM    9  N   UNL     1     -43.559 -54.004  13.122  1.00  0.00    -0.355 N 
HETATM   10  C   UNL     1     -44.931 -53.967  12.990  1.00  0.00     0.241 C 
HETATM   11  O   UNL     1     -45.524 -53.185  12.255  1.00  0.00    -0.271 OA
HETATM   12  H   UNL     1     -43.187 -54.556  13.887  1.00  0.00     0.162 HD
BRANCH  10  13
HETATM   13  C   UNL     1     -45.649 -54.979  13.881  1.00  0.00     0.269 C 
BRANCH  13  14
HETATM   14  O   UNL     1     -45.218 -54.912  15.240  1.00  0.00    -0.387 OA
HETATM   15  C   UNL     1     -45.939 -53.928  15.978  1.00  0.00     0.202 C 
ENDBRANCH  13  14
ENDBRANCH  10  13
ENDBRANCH   8   9
ENDBRANCH   1   8
BRANCH   7  16
HETATM   16  N   UNL     1     -40.969 -50.524  12.828  1.00  0.00    -0.363 N 
HETATM   17  C   UNL     1     -40.430 -50.003  11.559  1.00  0.00     0.150 C 
HETATM   18  C   UNL     1     -39.584 -48.741  11.768  1.00  0.00     0.187 C 
HETATM   19  O   UNL     1     -40.313 -47.741  12.498  1.00  0.00    -0.388 OA
HETATM   20  C   UNL     1     -40.636 -48.244  13.799  1.00  0.00     0.187 C 
HETATM   21  C   UNL     1     -41.515 -49.503  13.734  1.00  0.00     0.150 C 
ENDBRANCH   7  16
TORSDOF 5
ENDMDL
MODEL 5
REMARK VINA RESULT:      -4.9      4.731      7.395
REMARK  5 active torsions:
REMARK  status: ('A' for Active; 'I' for Inactive)
REMARK    1  A    between atoms: O_2  and  C_3 
REMARK    2  A    between atoms: C_3  and  C_4 
REMARK       I    between atoms: C_4  and  N_6 
REMARK    3  A    between atoms: N_6  and  C_7 
REMARK    4  A    between atoms: C_7  and  C_8 
REMARK    5  A    between atoms: C_14  and  N_15 
ROOT
HETATM    1  C   UNL     1     -41.766 -53.508  13.098  1.00  0.00     0.004 A 
HETATM    2  C   UNL     1     -40.436 -53.820  13.443  1.00  0.00     0.014 A 
HETATM    3  C   UNL     1     -40.148 -54.418  14.656  1.00  0.00     0.018 A 
HETATM    4  C   UNL     1     -41.209 -54.706  15.484  1.00  0.00     0.089 A 
HETATM    5  N   UNL     1     -42.500 -54.453  15.171  1.00  0.00    -0.352 N 
ATOM      6  HN  UNL     1     -43.245 -54.707  15.819  1.00  0.00     0.166 HD
HETATM    7  C   UNL     1     -42.797 -53.860  13.987  1.00  0.00     0.111 A 
ENDROOT
BRANCH   1   8
HETATM    8  C   UNL     1     -41.976 -52.729  11.830  1.00  0.00     0.165 C 
BRANCH   8   9
HETATM    9  N   UNL     1     -40.891 -51.807  11.579  1.00  0.00    -0.355 N 
HETATM   10  C   UNL     1     -41.018 -50.475  11.912  1.00  0.00     0.241 C 
HETATM   11  O   UNL     1     -41.926 -50.030  12.605  1.00  0.00    -0.271 OA
HETATM   12  H   UNL     1     -40.217 -52.036  10.856  1.00  0.00     0.162 HD
BRANCH  10  13
HETATM   13  C   UNL     1     -39.929 -49.595  11.300  1.00  0.00     0.269 C 
BRANCH  13  14
HETATM   14  O   UNL     1     -38.749 -49.552  12.102  1.00  0.00    -0.387 OA
HETATM   15  C   UNL     1     -37.591 -49.931  11.363  1.00  0.00     0.202 C 
ENDBRANCH  13  14
ENDBRANCH  10  13
ENDBRANCH   8   9
ENDBRANCH   1   8
BRANCH   7  16
HETATM   16  N   UNL     1     -44.128 -53.577  13.754  1.00  0.00    -0.363 N 
HETATM   17  C   UNL     1     -44.668 -52.280  14.199  1.00  0.00     0.150 C 
HETATM   18  C   UNL     1     -45.745 -52.444  15.277  1.00  0.00     0.187 C 
HETATM   19  O   UNL     1     -46.780 -53.342  14.846  1.00  0.00    -0.388 OA
HETATM   20  C   UNL     1     -46.219 -54.640  14.619  1.00  0.00     0.187 C 
HETATM   21  C   UNL     1     -45.137 -54.623  13.528  1.00  0.00     0.150 C 
ENDBRANCH   7  16
TORSDOF 5
ENDMDL
MODEL 6
REMARK VINA RESULT:      -4.9      3.548      4.427
REMARK  5 active torsions:
REMARK  status: ('A' for Active; 'I' for Inactive)
REMARK    1  A    between atoms: O_2  and  C_3 
REMARK    2  A    between atoms: C_3  and  C_4 
REMARK       I    between atoms: C_4  and  N_6 
REMARK    3  A    between atoms: N_6  and  C_7 
REMARK    4  A    between atoms: C_7  and  C_8 
REMARK    5  A    between atoms: C_14  and  N_15 
ROOT
HETATM    1  C   UNL     1     -42.552 -48.800  12.103  1.00  0.00     0.004 A 
HETATM    2  C   UNL     1     -43.364 -47.951  11.326  1.00  0.00     0.014 A 
HETATM    3  C   UNL     1     -42.795 -47.014  10.482  1.00  0.00     0.018 A 
HETATM    4  C   UNL     1     -41.421 -46.969  10.427  1.00  0.00     0.089 A 
HETATM    5  N   UNL     1     -40.610 -47.792  11.131  1.00  0.00    -0.352 N 
ATOM      6  HN  UNL     1     -39.598 -47.722  11.033  1.00  0.00     0.166 HD
HETATM    7  C   UNL     1     -41.155 -48.711  11.967  1.00  0.00     0.111 A 
ENDROOT
BRANCH   1   8
HETATM    8  C   UNL     1     -43.247 -49.686  13.098  1.00  0.00     0.165 C 
BRANCH   8   9
HETATM    9  N   UNL     1     -43.509 -51.001  12.556  1.00  0.00    -0.355 N 
HETATM   10  C   UNL     1     -44.168 -51.947  13.312  1.00  0.00     0.241 C 
HETATM   11  O   UNL     1     -44.745 -51.696  14.365  1.00  0.00    -0.271 OA
HETATM   12  H   UNL     1     -42.915 -51.345  11.809  1.00  0.00     0.162 HD
BRANCH  10  13
HETATM   13  C   UNL     1     -44.082 -53.354  12.725  1.00  0.00     0.269 C 
BRANCH  13  14
HETATM   14  O   UNL     1     -45.341 -54.028  12.735  1.00  0.00    -0.387 OA
HETATM   15  C   UNL     1     -45.388 -55.051  13.725  1.00  0.00     0.202 C 
ENDBRANCH  13  14
ENDBRANCH  10  13
ENDBRANCH   8   9
ENDBRANCH   1   8
BRANCH   7  16
HETATM   16  N   UNL     1     -40.272 -49.480  12.700  1.00  0.00    -0.363 N 
HETATM   17  C   UNL     1     -39.595 -48.874  13.861  1.00  0.00     0.150 C 
HETATM   18  C   UNL     1     -38.076 -48.795  13.664  1.00  0.00     0.187 C 
HETATM   19  O   UNL     1     -37.528 -50.079  13.327  1.00  0.00    -0.388 OA
HETATM   20  C   UNL     1     -38.084 -50.521  12.084  1.00  0.00     0.187 C 
HETATM   21  C   UNL     1     -39.612 -50.674  12.152  1.00  0.00     0.150 C 
ENDBRANCH   7  16
TORSDOF 5
ENDMDL
MODEL 7
REMARK VINA RESULT:      -4.9      3.733      5.363
REMARK  5 active torsions:
REMARK  status: ('A' for Active; 'I' for Inactive)
REMARK    1  A    between atoms: O_2  and  C_3 
REMARK    2  A    between atoms: C_3  and  C_4 
REMARK       I    between atoms: C_4  and  N_6 
REMARK    3  A    between atoms: N_6  and  C_7 
REMARK    4  A    between atoms: C_7  and  C_8 
REMARK    5  A    between atoms: C_14  and  N_15 
ROOT
HETATM    1  C   UNL     1     -44.208 -51.127  13.444  1.00  0.00     0.004 A 
HETATM    2  C   UNL     1     -45.598 -51.174  13.219  1.00  0.00     0.014 A 
HETATM    3  C   UNL     1     -46.242 -52.388  13.065  1.00  0.00     0.018 A 
HETATM    4  C   UNL     1     -45.474 -53.526  13.162  1.00  0.00     0.089 A 
HETATM    5  N   UNL     1     -44.145 -53.519  13.412  1.00  0.00    -0.352 N 
ATOM      6  HN  UNL     1     -43.633 -54.398  13.491  1.00  0.00     0.166 HD
HETATM    7  C   UNL     1     -43.499 -52.335  13.559  1.00  0.00     0.111 A 
ENDROOT
BRANCH   1   8
HETATM    8  C   UNL     1     -43.565 -49.768  13.455  1.00  0.00     0.165 C 
BRANCH   8   9
HETATM    9  N   UNL     1     -43.187 -49.342  12.125  1.00  0.00    -0.355 N 
HETATM   10  C   UNL     1     -41.866 -49.079  11.828  1.00  0.00     0.241 C 
HETATM   11  O   UNL     1     -40.930 -49.375  12.563  1.00  0.00    -0.271 OA
HETATM   12  H   UNL     1     -43.886 -48.894  11.542  1.00  0.00     0.162 HD
BRANCH  10  13
HETATM   13  C   UNL     1     -41.683 -48.347  10.500  1.00  0.00     0.269 C 
BRANCH  13  14
HETATM   14  O   UNL     1     -42.916 -47.864   9.968  1.00  0.00    -0.387 OA
HETATM   15  C   UNL     1     -42.893 -46.453   9.769  1.00  0.00     0.202 C 
ENDBRANCH  13  14
ENDBRANCH  10  13
ENDBRANCH   8   9
ENDBRANCH   1   8
BRANCH   7  16
HETATM   16  N   UNL     1     -42.133 -52.397  13.755  1.00  0.00    -0.363 N 
HETATM   17  C   UNL     1     -41.282 -52.923  12.672  1.00  0.00     0.150 C 
HETATM   18  C   UNL     1     -40.567 -54.217  13.078  1.00  0.00     0.187 C 
HETATM   19  O   UNL     1     -39.839 -54.045  14.305  1.00  0.00    -0.388 OA
HETATM   20  C   UNL     1     -40.753 -53.728  15.360  1.00  0.00     0.187 C 
HETATM   21  C   UNL     1     -41.520 -52.424  15.091  1.00  0.00     0.150 C 
ENDBRANCH   7  16
TORSDOF 5
ENDMDL
MODEL 8
REMARK VINA RESULT:      -4.8      3.817      5.910
REMARK  5 active torsions:
REMARK  status: ('A' for Active; 'I' for Inactive)
REMARK    1  A    between atoms: O_2  and  C_3 
REMARK    2  A    between atoms: C_3  and  C_4 
REMARK       I    between atoms: C_4  and  N_6 
REMARK    3  A    between atoms: N_6  and  C_7 
REMARK    4  A    between atoms: C_7  and  C_8 
REMARK    5  A    between atoms: C_14  and  N_15 
ROOT
HETATM    1  C   UNL     1     -42.313 -53.064  12.866  1.00  0.00     0.004 A 
HETATM    2  C   UNL     1     -43.642 -53.329  12.480  1.00  0.00     0.014 A 
HETATM    3  C   UNL     1     -44.424 -54.202  13.215  1.00  0.00     0.018 A 
HETATM    4  C   UNL     1     -43.855 -54.772  14.331  1.00  0.00     0.089 A 
HETATM    5  N   UNL     1     -42.596 -54.513  14.751  1.00  0.00    -0.352 N 
ATOM      6  HN  UNL     1     -42.236 -54.952  15.597  1.00  0.00     0.166 HD
HETATM    7  C   UNL     1     -41.815 -53.664  14.036  1.00  0.00     0.111 A 
ENDROOT
BRANCH   1   8
HETATM    8  C   UNL     1     -41.489 -52.220  11.934  1.00  0.00     0.165 C 
BRANCH   8   9
HETATM    9  N   UNL     1     -41.984 -50.863  11.859  1.00  0.00    -0.355 N 
HETATM   10  C   UNL     1     -41.122 -49.823  11.584  1.00  0.00     0.241 C 
HETATM   11  O   UNL     1     -39.971 -49.977  11.191  1.00  0.00    -0.271 OA
HETATM   12  H   UNL     1     -42.841 -50.631  12.350  1.00  0.00     0.162 HD
BRANCH  10  13
HETATM   13  C   UNL     1     -41.733 -48.448  11.851  1.00  0.00     0.269 C 
BRANCH  13  14
HETATM   14  O   UNL     1     -41.607 -47.569  10.734  1.00  0.00    -0.387 OA
HETATM   15  C   UNL     1     -42.639 -47.778   9.773  1.00  0.00     0.202 C 
ENDBRANCH  13  14
ENDBRANCH  10  13
ENDBRANCH   8   9
ENDBRANCH   1   8
BRANCH   7  16
HETATM   16  N   UNL     1     -40.521 -53.488  14.486  1.00  0.00    -0.363 N 
HETATM   17  C   UNL     1     -39.512 -54.513  14.165  1.00  0.00     0.150 C 
HETATM   18  C   UNL     1     -38.976 -55.207  15.424  1.00  0.00     0.187 C 
HETATM   19  O   UNL     1     -38.492 -54.249  16.380  1.00  0.00    -0.388 OA
HETATM   20  C   UNL     1     -39.572 -53.407  16.798  1.00  0.00     0.187 C 
HETATM   21  C   UNL     1     -40.185 -52.623  15.626  1.00  0.00     0.150 C 
ENDBRANCH   7  16
TORSDOF 5
ENDMDL
MODEL 9
REMARK VINA RESULT:      -4.8      4.904      7.179
REMARK  5 active torsions:
REMARK  status: ('A' for Active; 'I' for Inactive)
REMARK    1  A    between atoms: O_2  and  C_3 
REMARK    2  A    between atoms: C_3  and  C_4 
REMARK       I    between atoms: C_4  and  N_6 
REMARK    3  A    between atoms: N_6  and  C_7 
REMARK    4  A    between atoms: C_7  and  C_8 
REMARK    5  A    between atoms: C_14  and  N_15 
ROOT
HETATM    1  C   UNL     1     -44.595 -52.440  13.480  1.00  0.00     0.004 A 
HETATM    2  C   UNL     1     -45.793 -51.788  13.126  1.00  0.00     0.014 A 
HETATM    3  C   UNL     1     -46.691 -51.393  14.101  1.00  0.00     0.018 A 
HETATM    4  C   UNL     1     -46.352 -51.648  15.410  1.00  0.00     0.089 A 
HETATM    5  N   UNL     1     -45.197 -52.239  15.788  1.00  0.00    -0.352 N 
ATOM      6  HN  UNL     1     -44.993 -52.384  16.777  1.00  0.00     0.166 HD
HETATM    7  C   UNL     1     -44.309 -52.637  14.842  1.00  0.00     0.111 A 
ENDROOT
BRANCH   1   8
HETATM    8  C   UNL     1     -43.746 -52.964  12.356  1.00  0.00     0.165 C 
BRANCH   8   9
HETATM    9  N   UNL     1     -42.667 -52.057  12.030  1.00  0.00    -0.355 N 
HETATM   10  C   UNL     1     -41.356 -52.443  12.211  1.00  0.00     0.241 C 
HETATM   11  O   UNL     1     -41.011 -53.595  12.446  1.00  0.00    -0.271 OA
HETATM   12  H   UNL     1     -42.856 -51.061  12.026  1.00  0.00     0.162 HD
BRANCH  10  13
HETATM   13  C   UNL     1     -40.370 -51.280  12.124  1.00  0.00     0.269 C 
BRANCH  13  14
HETATM   14  O   UNL     1     -39.055 -51.646  12.543  1.00  0.00    -0.387 OA
HETATM   15  C   UNL     1     -38.806 -51.274  13.897  1.00  0.00     0.202 C 
ENDBRANCH  13  14
ENDBRANCH  10  13
ENDBRANCH   8   9
ENDBRANCH   1   8
BRANCH   7  16
HETATM   16  N   UNL     1     -43.176 -53.286  15.292  1.00  0.00    -0.363 N 
HETATM   17  C   UNL     1     -43.281 -54.698  15.704  1.00  0.00     0.150 C 
HETATM   18  C   UNL     1     -42.978 -54.886  17.195  1.00  0.00     0.187 C 
HETATM   19  O   UNL     1     -41.708 -54.313  17.545  1.00  0.00    -0.388 OA
HETATM   20  C   UNL     1     -41.741 -52.902  17.304  1.00  0.00     0.187 C 
HETATM   21  C   UNL     1     -42.008 -52.571  15.827  1.00  0.00     0.150 C 
ENDBRANCH   7  16
TORSDOF 5
ENDMDL
