MODEL 1
REMARK VINA RESULT:      -4.8      0.000      0.000
REMARK  2 active torsions:
REMARK  status: ('A' for Active; 'I' for Inactive)
REMARK    1  A    between atoms: N_1  and  C_2 
REMARK    2  A    between atoms: C_8  and  N_9 
ROOT
HETATM    1  C   UNL     1     -43.479 -45.525   9.583  1.00  0.00     0.035 A 
HETATM    2  C   UNL     1     -43.951 -46.435   8.619  1.00  0.00     0.042 A 
HETATM    3  C   UNL     1     -43.437 -47.718   8.577  1.00  0.00     0.089 A 
HETATM    4  N   UNL     1     -42.455 -48.143   9.383  1.00  0.00    -0.373 N 
ATOM      5  HN  UNL     1     -42.098 -49.098   9.345  1.00  0.00     0.164 HD
HETATM    6  C   UNL     1     -41.966 -47.225  10.254  1.00  0.00     0.118 A 
HETATM    7  C   UNL     1     -42.410 -45.900  10.430  1.00  0.00     0.067 A 
ENDROOT
BRANCH   7   8
HETATM    8  N   UNL     1     -41.764 -45.090  11.362  1.00  0.00    -0.374 N 
HETATM    9  C   UNL     1     -41.856 -45.264  12.819  1.00  0.00     0.149 C 
HETATM   10  C   UNL     1     -41.621 -43.913  13.521  1.00  0.00     0.187 C 
HETATM   11  O   UNL     1     -40.384 -43.302  13.117  1.00  0.00    -0.388 OA
HETATM   12  C   UNL     1     -40.379 -43.090  11.696  1.00  0.00     0.187 C 
HETATM   13  C   UNL     1     -40.513 -44.422  10.943  1.00  0.00     0.149 C 
ENDBRANCH   7   8
BRANCH   1  14
HETATM   14  N   UNL     1     -44.008 -44.215   9.527  1.00  0.00    -0.301 NA
HETATM   15  H   UNL     1     -44.582 -43.978  10.330  1.00  0.00     0.124 HD
HETATM   16  H   UNL     1     -43.279 -43.527   9.387  1.00  0.00     0.124 HD
ENDBRANCH   1  14
TORSDOF 2
ENDMDL
MODEL 2
REMARK VINA RESULT:      -4.6      7.070      8.819
REMARK  2 active torsions:
REMARK  status: ('A' for Active; 'I' for Inactive)
REMARK    1  A    between atoms: N_1  and  C_2 
REMARK    2  A    between atoms: C_8  and  N_9 
ROOT
HETATM    1  C   UNL     1     -41.318 -52.097  12.101  1.00  0.00     0.035 A 
HETATM    2  C   UNL     1     -40.830 -50.863  11.632  1.00  0.00     0.042 A 
HETATM    3  C   UNL     1     -41.411 -49.686  12.064  1.00  0.00     0.089 A 
HETATM    4  N   UNL     1     -42.471 -49.647  12.882  1.00  0.00    -0.373 N 
ATOM      5  HN  UNL     1     -42.879 -48.767  13.200  1.00  0.00     0.164 HD
HETATM    6  C   UNL     1     -42.970 -50.850  13.261  1.00  0.00     0.118 A 
HETATM    7  C   UNL     1     -42.465 -52.122  12.927  1.00  0.00     0.067 A 
ENDROOT
BRANCH   7   8
HETATM    8  N   UNL     1     -43.130 -53.254  13.392  1.00  0.00    -0.374 N 
HETATM    9  C   UNL     1     -44.174 -53.972  12.644  1.00  0.00     0.149 C 
HETATM   10  C   UNL     1     -45.118 -54.692  13.626  1.00  0.00     0.187 C 
HETATM   11  O   UNL     1     -44.404 -55.548  14.533  1.00  0.00    -0.388 OA
HETATM   12  C   UNL     1     -43.450 -54.783  15.288  1.00  0.00     0.187 C 
HETATM   13  C   UNL     1     -42.422 -54.121  14.359  1.00  0.00     0.149 C 
ENDBRANCH   7   8
BRANCH   1  14
HETATM   14  N   UNL     1     -40.713 -53.259  11.569  1.00  0.00    -0.301 NA
HETATM   15  H   UNL     1     -40.125 -53.074  10.763  1.00  0.00     0.124 HD
HETATM   16  H   UNL     1     -40.203 -53.768  12.280  1.00  0.00     0.124 HD
ENDBRANCH   1  14
TORSDOF 2
ENDMDL
MODEL 3
REMARK VINA RESULT:      -4.5      7.223      8.418
REMARK  2 active torsions:
REMARK  status: ('A' for Active; 'I' for Inactive)
REMARK    1  A    between atoms: N_1  and  C_2 
REMARK    2  A    between atoms: C_8  and  N_9 
ROOT
HETATM    1  C   UNL     1     -45.483 -52.117  13.246  1.00  0.00     0.035 A 
HETATM    2  C   UNL     1     -46.681 -51.818  13.921  1.00  0.00     0.042 A 
HETATM    3  C   UNL     1     -46.636 -51.302  15.203  1.00  0.00     0.089 A 
HETATM    4  N   UNL     1     -45.495 -51.112  15.879  1.00  0.00    -0.373 N 
ATOM      5  HN  UNL     1     -45.481 -50.718  16.820  1.00  0.00     0.164 HD
HETATM    6  C   UNL     1     -44.358 -51.477  15.235  1.00  0.00     0.118 A 
HETATM    7  C   UNL     1     -44.250 -51.984  13.925  1.00  0.00     0.067 A 
ENDROOT
BRANCH   7   8
HETATM    8  N   UNL     1     -42.991 -52.331  13.439  1.00  0.00    -0.374 N 
HETATM    9  C   UNL     1     -42.101 -51.415  12.708  1.00  0.00     0.149 C 
HETATM   10  C   UNL     1     -41.172 -52.221  11.781  1.00  0.00     0.187 C 
HETATM   11  O   UNL     1     -40.450 -53.240  12.491  1.00  0.00    -0.388 OA
HETATM   12  C   UNL     1     -41.368 -54.147  13.124  1.00  0.00     0.187 C 
HETATM   13  C   UNL     1     -42.256 -53.409  14.136  1.00  0.00     0.149 C 
ENDBRANCH   7   8
BRANCH   1  14
HETATM   14  N   UNL     1     -45.609 -52.697  11.963  1.00  0.00    -0.301 NA
HETATM   15  H   UNL     1     -46.516 -52.537  11.536  1.00  0.00     0.124 HD
HETATM   16  H   UNL     1     -44.862 -52.400  11.348  1.00  0.00     0.124 HD
ENDBRANCH   1  14
TORSDOF 2
ENDMDL
MODEL 4
REMARK VINA RESULT:      -4.4      7.749      9.437
REMARK  2 active torsions:
REMARK  status: ('A' for Active; 'I' for Inactive)
REMARK    1  A    between atoms: N_1  and  C_2 
REMARK    2  A    between atoms: C_8  and  N_9 
ROOT
HETATM    1  C   UNL     1     -40.733 -53.873  13.128  1.00  0.00     0.035 A 
HETATM    2  C   UNL     1     -39.567 -54.383  13.729  1.00  0.00     0.042 A 
HETATM    3  C   UNL     1     -39.588 -54.758  15.059  1.00  0.00     0.089 A 
HETATM    4  N   UNL     1     -40.662 -54.613  15.847  1.00  0.00    -0.373 N 
ATOM      5  HN  UNL     1     -40.661 -54.907  16.824  1.00  0.00     0.164 HD
HETATM    6  C   UNL     1     -41.750 -54.050  15.265  1.00  0.00     0.118 A 
HETATM    7  C   UNL     1     -41.883 -53.651  13.920  1.00  0.00     0.067 A 
ENDROOT
BRANCH   7   8
HETATM    8  N   UNL     1     -43.077 -53.064  13.507  1.00  0.00    -0.374 N 
HETATM    9  C   UNL     1     -43.240 -51.633  13.204  1.00  0.00     0.149 C 
HETATM   10  C   UNL     1     -44.705 -51.216  13.434  1.00  0.00     0.187 C 
HETATM   11  O   UNL     1     -45.624 -52.040  12.699  1.00  0.00    -0.388 OA
HETATM   12  C   UNL     1     -45.471 -53.416  13.086  1.00  0.00     0.187 C 
HETATM   13  C   UNL     1     -44.050 -53.915  12.787  1.00  0.00     0.149 C 
ENDBRANCH   7   8
BRANCH   1  14
HETATM   14  N   UNL     1     -40.620 -53.456  11.782  1.00  0.00    -0.301 NA
HETATM   15  H   UNL     1     -40.908 -52.494  11.633  1.00  0.00     0.124 HD
HETATM   16  H   UNL     1     -39.687 -53.614  11.423  1.00  0.00     0.124 HD
ENDBRANCH   1  14
TORSDOF 2
ENDMDL
MODEL 5
REMARK VINA RESULT:      -4.4      6.460      7.784
REMARK  2 active torsions:
REMARK  status: ('A' for Active; 'I' for Inactive)
REMARK    1  A    between atoms: N_1  and  C_2 
REMARK    2  A    between atoms: C_8  and  N_9 
ROOT
HETATM    1  C   UNL     1     -41.019 -53.243  12.772  1.00  0.00     0.035 A 
HETATM    2  C   UNL     1     -41.824 -54.219  13.388  1.00  0.00     0.042 A 
HETATM    3  C   UNL     1     -42.160 -54.088  14.723  1.00  0.00     0.089 A 
HETATM    4  N   UNL     1     -41.714 -53.090  15.499  1.00  0.00    -0.373 N 
ATOM      5  HN  UNL     1     -41.984 -53.004  16.479  1.00  0.00     0.164 HD
HETATM    6  C   UNL     1     -40.880 -52.203  14.900  1.00  0.00     0.118 A 
HETATM    7  C   UNL     1     -40.478 -52.194  13.550  1.00  0.00     0.067 A 
ENDROOT
BRANCH   7   8
HETATM    8  N   UNL     1     -39.590 -51.211  13.118  1.00  0.00    -0.374 N 
HETATM    9  C   UNL     1     -39.950 -49.801  12.904  1.00  0.00     0.149 C 
HETATM   10  C   UNL     1     -39.010 -49.178  11.853  1.00  0.00     0.187 C 
HETATM   11  O   UNL     1     -37.626 -49.345  12.199  1.00  0.00    -0.388 OA
HETATM   12  C   UNL     1     -37.313 -50.742  12.324  1.00  0.00     0.187 C 
HETATM   13  C   UNL     1     -38.155 -51.394  13.431  1.00  0.00     0.149 C 
ENDBRANCH   7   8
BRANCH   1  14
HETATM   14  N   UNL     1     -40.668 -53.475  11.422  1.00  0.00    -0.301 NA
HETATM   15  H   UNL     1     -39.708 -53.784  11.303  1.00  0.00     0.124 HD
HETATM   16  H   UNL     1     -41.312 -54.116  10.977  1.00  0.00     0.124 HD
ENDBRANCH   1  14
TORSDOF 2
ENDMDL
MODEL 6
REMARK VINA RESULT:      -4.3      3.580      4.407
REMARK  2 active torsions:
REMARK  status: ('A' for Active; 'I' for Inactive)
REMARK    1  A    between atoms: N_1  and  C_2 
REMARK    2  A    between atoms: C_8  and  N_9 
ROOT
HETATM    1  C   UNL     1     -41.166 -46.900  10.701  1.00  0.00     0.035 A 
HETATM    2  C   UNL     1     -42.382 -46.547  10.088  1.00  0.00     0.042 A 
HETATM    3  C   UNL     1     -43.522 -47.284  10.350  1.00  0.00     0.089 A 
HETATM    4  N   UNL     1     -43.530 -48.373  11.131  1.00  0.00    -0.373 N 
ATOM      5  HN  UNL     1     -44.385 -48.896  11.322  1.00  0.00     0.164 HD
HETATM    6  C   UNL     1     -42.331 -48.736  11.651  1.00  0.00     0.118 A 
HETATM    7  C   UNL     1     -41.100 -48.067  11.496  1.00  0.00     0.067 A 
ENDROOT
BRANCH   7   8
HETATM    8  N   UNL     1     -39.961 -48.608  12.089  1.00  0.00    -0.374 N 
HETATM    9  C   UNL     1     -39.566 -48.385  13.488  1.00  0.00     0.149 C 
HETATM   10  C   UNL     1     -38.038 -48.527  13.627  1.00  0.00     0.187 C 
HETATM   11  O   UNL     1     -37.563 -49.783  13.114  1.00  0.00    -0.388 OA
HETATM   12  C   UNL     1     -37.913 -49.915  11.727  1.00  0.00     0.187 C 
HETATM   13  C   UNL     1     -39.437 -49.878  11.541  1.00  0.00     0.149 C 
ENDBRANCH   7   8
BRANCH   1  14
HETATM   14  N   UNL     1     -40.031 -46.138  10.339  1.00  0.00    -0.301 NA
HETATM   15  H   UNL     1     -39.347 -46.663   9.804  1.00  0.00     0.124 HD
HETATM   16  H   UNL     1     -40.295 -45.288   9.856  1.00  0.00     0.124 HD
ENDBRANCH   1  14
TORSDOF 2
ENDMDL
MODEL 7
REMARK VINA RESULT:      -4.2      7.445      8.617
REMARK  2 active torsions:
REMARK  status: ('A' for Active; 'I' for Inactive)
REMARK    1  A    between atoms: N_1  and  C_2 
REMARK    2  A    between atoms: C_8  and  N_9 
ROOT
HETATM    1  C   UNL     1     -44.713 -51.674  14.493  1.00  0.00     0.035 A 
HETATM    2  C   UNL     1     -46.096 -51.583  14.736  1.00  0.00     0.042 A 
HETATM    3  C   UNL     1     -46.916 -52.659  14.448  1.00  0.00     0.089 A 
HETATM    4  N   UNL     1     -46.471 -53.793  13.890  1.00  0.00    -0.373 N 
ATOM      5  HN  UNL     1     -47.090 -54.581  13.697  1.00  0.00     0.164 HD
HETATM    6  C   UNL     1     -45.147 -53.828  13.597  1.00  0.00     0.118 A 
HETATM    7  C   UNL     1     -44.192 -52.826  13.861  1.00  0.00     0.067 A 
ENDROOT
BRANCH   7   8
HETATM    8  N   UNL     1     -42.873 -53.031  13.462  1.00  0.00    -0.374 N 
HETATM    9  C   UNL     1     -42.072 -54.214  13.813  1.00  0.00     0.149 C 
HETATM   10  C   UNL     1     -40.576 -53.849  13.813  1.00  0.00     0.187 C 
HETATM   11  O   UNL     1     -40.164 -53.255  12.570  1.00  0.00    -0.388 OA
HETATM   12  C   UNL     1     -40.928 -52.065  12.313  1.00  0.00     0.187 C 
HETATM   13  C   UNL     1     -42.426 -52.389  12.206  1.00  0.00     0.149 C 
ENDBRANCH   7   8
BRANCH   1  14
HETATM   14  N   UNL     1     -43.949 -50.514  14.756  1.00  0.00    -0.301 NA
HETATM   15  H   UNL     1     -42.956 -50.700  14.851  1.00  0.00     0.124 HD
HETATM   16  H   UNL     1     -44.118 -49.795  14.065  1.00  0.00     0.124 HD
ENDBRANCH   1  14
TORSDOF 2
ENDMDL
MODEL 8
REMARK VINA RESULT:      -4.2     21.501     22.894
REMARK  2 active torsions:
REMARK  status: ('A' for Active; 'I' for Inactive)
REMARK    1  A    between atoms: N_1  and  C_2 
REMARK    2  A    between atoms: C_8  and  N_9 
ROOT
HETATM    1  C   UNL     1     -26.807 -53.363  -4.333  1.00  0.00     0.035 A 
HETATM    2  C   UNL     1     -25.440 -53.460  -4.654  1.00  0.00     0.042 A 
HETATM    3  C   UNL     1     -25.028 -53.296  -5.963  1.00  0.00     0.089 A 
HETATM    4  N   UNL     1     -25.877 -53.095  -6.980  1.00  0.00    -0.373 N 
ATOM      5  HN  UNL     1     -25.552 -52.963  -7.939  1.00  0.00     0.164 HD
HETATM    6  C   UNL     1     -27.194 -53.079  -6.657  1.00  0.00     0.118 A 
HETATM    7  C   UNL     1     -27.754 -53.202  -5.370  1.00  0.00     0.067 A 
ENDROOT
BRANCH   7   8
HETATM    8  N   UNL     1     -29.141 -53.188  -5.235  1.00  0.00    -0.374 N 
HETATM    9  C   UNL     1     -30.008 -52.085  -5.677  1.00  0.00     0.149 C 
HETATM   10  C   UNL     1     -31.296 -52.064  -4.831  1.00  0.00     0.187 C 
HETATM   11  O   UNL     1     -31.971 -53.332  -4.841  1.00  0.00    -0.388 OA
HETATM   12  C   UNL     1     -31.102 -54.358  -4.332  1.00  0.00     0.187 C 
HETATM   13  C   UNL     1     -29.842 -54.489  -5.201  1.00  0.00     0.149 C 
ENDBRANCH   7   8
BRANCH   1  14
HETATM   14  N   UNL     1     -27.158 -53.602  -2.985  1.00  0.00    -0.301 NA
HETATM   15  H   UNL     1     -26.492 -53.220  -2.321  1.00  0.00     0.124 HD
HETATM   16  H   UNL     1     -28.096 -53.279  -2.784  1.00  0.00     0.124 HD
ENDBRANCH   1  14
TORSDOF 2
ENDMDL
MODEL 9
REMARK VINA RESULT:      -4.1      4.058      5.200
REMARK  2 active torsions:
REMARK  status: ('A' for Active; 'I' for Inactive)
REMARK    1  A    between atoms: N_1  and  C_2 
REMARK    2  A    between atoms: C_8  and  N_9 
ROOT
HETATM    1  C   UNL     1     -41.504 -48.778  11.207  1.00  0.00     0.035 A 
HETATM    2  C   UNL     1     -42.442 -47.962  10.549  1.00  0.00     0.042 A 
HETATM    3  C   UNL     1     -42.085 -46.685  10.156  1.00  0.00     0.089 A 
HETATM    4  N   UNL     1     -40.887 -46.145  10.415  1.00  0.00    -0.373 N 
ATOM      5  HN  UNL     1     -40.638 -45.205  10.105  1.00  0.00     0.164 HD
HETATM    6  C   UNL     1     -40.025 -46.924  11.115  1.00  0.00     0.118 A 
HETATM    7  C   UNL     1     -40.240 -48.247  11.551  1.00  0.00     0.067 A 
ENDROOT
BRANCH   7   8
HETATM    8  N   UNL     1     -39.242 -48.884  12.285  1.00  0.00    -0.374 N 
HETATM    9  C   UNL     1     -38.093 -49.587  11.692  1.00  0.00     0.149 C 
HETATM   10  C   UNL     1     -37.598 -50.682  12.656  1.00  0.00     0.187 C 
HETATM   11  O   UNL     1     -37.308 -50.160  13.963  1.00  0.00    -0.388 OA
HETATM   12  C   UNL     1     -38.482 -49.550  14.524  1.00  0.00     0.187 C 
HETATM   13  C   UNL     1     -38.964 -48.384  13.649  1.00  0.00     0.149 C 
ENDBRANCH   7   8
BRANCH   1  14
HETATM   14  N   UNL     1     -41.959 -50.048  11.631  1.00  0.00    -0.301 NA
HETATM   15  H   UNL     1     -42.970 -50.128  11.647  1.00  0.00     0.124 HD
HETATM   16  H   UNL     1     -41.545 -50.791  11.082  1.00  0.00     0.124 HD
ENDBRANCH   1  14
TORSDOF 2
ENDMDL
