MODEL 1
REMARK VINA RESULT:      -6.4      0.000      0.000
REMARK  4 active torsions:
REMARK  status: ('A' for Active; 'I' for Inactive)
REMARK    1  A    between atoms: C_2  and  C_4 
REMARK    2  A    between atoms: C_10  and  N_11 
REMARK       I    between atoms: N_11  and  C_12 
REMARK    3  A    between atoms: C_12  and  C_14 
REMARK    4  A    between atoms: C_14  and  N_15 
ROOT
HETATM    1  N   UNL     1     -43.038 -51.469  12.564  1.00  0.00    -0.355 N 
HETATM    2  C   UNL     1     -42.087 -50.496  12.799  1.00  0.00     0.236 C 
HETATM    3  O   UNL     1     -42.027 -49.878  13.860  1.00  0.00    -0.272 OA
HETATM    4  H   UNL     1     -43.066 -51.933  11.664  1.00  0.00     0.162 HD
ENDROOT
BRANCH   1   5
HETATM    5  C   UNL     1     -43.988 -51.872  13.591  1.00  0.00     0.089 C 
HETATM    6  C   UNL     1     -43.431 -52.904  14.622  1.00  0.00     0.012 C 
HETATM    7  C   UNL     1     -44.534 -53.107  15.694  1.00  0.00     0.007 C 
HETATM    8  C   UNL     1     -45.860 -53.579  15.092  1.00  0.00     0.005 C 
HETATM    9  C   UNL     1     -46.399 -52.611  14.031  1.00  0.00    -0.017 C 
HETATM   10  C   UNL     1     -46.947 -51.333  14.680  1.00  0.00     0.010 C 
HETATM   11  C   UNL     1     -45.324 -52.309  12.972  1.00  0.00     0.029 C 
BRANCH   6  12
HETATM   12  C   UNL     1     -42.908 -54.276  14.069  1.00  0.00    -0.017 C 
HETATM   13  C   UNL     1     -41.508 -54.218  13.447  1.00  0.00     0.010 C 
HETATM   14  C   UNL     1     -42.853 -55.339  15.185  1.00  0.00     0.010 C 
ENDBRANCH   6  12
ENDBRANCH   1   5
BRANCH   2  15
HETATM   15  C   UNL     1     -41.116 -50.230  11.645  1.00  0.00     0.235 C 
BRANCH  15  16
HETATM   16  N   UNL     1     -41.062 -48.817  11.257  1.00  0.00    -0.301 N 
HETATM   17  C   UNL     1     -42.169 -48.224  10.681  1.00  0.00     0.102 A 
HETATM   18  C   UNL     1     -42.166 -46.953  10.276  1.00  0.00     0.092 A 
HETATM   19  C   UNL     1     -40.950 -46.152  10.476  1.00  0.00     0.250 A 
HETATM   20  O   UNL     1     -40.889 -44.987  10.100  1.00  0.00    -0.268 OA
HETATM   21  N   UNL     1     -39.914 -46.789  11.094  1.00  0.00    -0.275 N 
HETATM   22  C   UNL     1     -39.887 -48.108  11.468  1.00  0.00     0.329 A 
HETATM   23  H   UNL     1     -39.071 -46.256  11.239  1.00  0.00     0.173 HD
HETATM   24  O   UNL     1     -38.869 -48.591  11.961  1.00  0.00    -0.246 OA
ENDBRANCH  15  16
ENDBRANCH   2  15
TORSDOF 4
ENDMDL
MODEL 2
REMARK VINA RESULT:      -6.3      1.519      3.292
REMARK  4 active torsions:
REMARK  status: ('A' for Active; 'I' for Inactive)
REMARK    1  A    between atoms: C_2  and  C_4 
REMARK    2  A    between atoms: C_10  and  N_11 
REMARK       I    between atoms: N_11  and  C_12 
REMARK    3  A    between atoms: C_12  and  C_14 
REMARK    4  A    between atoms: C_14  and  N_15 
ROOT
HETATM    1  N   UNL     1     -43.525 -50.369  13.066  1.00  0.00    -0.355 N 
HETATM    2  C   UNL     1     -42.689 -49.499  12.395  1.00  0.00     0.236 C 
HETATM    3  O   UNL     1     -41.682 -49.882  11.802  1.00  0.00    -0.272 OA
HETATM    4  H   UNL     1     -44.329 -50.005  13.563  1.00  0.00     0.162 HD
ENDROOT
BRANCH   1   5
HETATM    5  C   UNL     1     -43.300 -51.807  13.054  1.00  0.00     0.089 C 
HETATM    6  C   UNL     1     -44.604 -52.668  13.051  1.00  0.00     0.012 C 
HETATM    7  C   UNL     1     -44.163 -54.149  12.909  1.00  0.00     0.007 C 
HETATM    8  C   UNL     1     -43.206 -54.587  14.022  1.00  0.00     0.005 C 
HETATM    9  C   UNL     1     -41.944 -53.718  14.085  1.00  0.00    -0.017 C 
HETATM   10  C   UNL     1     -41.003 -54.027  12.913  1.00  0.00     0.010 C 
HETATM   11  C   UNL     1     -42.313 -52.225  14.153  1.00  0.00     0.029 C 
BRANCH   6  12
HETATM   12  C   UNL     1     -45.605 -52.478  14.244  1.00  0.00    -0.017 C 
HETATM   13  C   UNL     1     -46.650 -51.378  14.028  1.00  0.00     0.010 C 
HETATM   14  C   UNL     1     -46.383 -53.779  14.528  1.00  0.00     0.010 C 
ENDBRANCH   6  12
ENDBRANCH   1   5
BRANCH   2  15
HETATM   15  C   UNL     1     -43.093 -48.023  12.445  1.00  0.00     0.235 C 
BRANCH  15  16
HETATM   16  N   UNL     1     -42.165 -47.151  11.719  1.00  0.00    -0.301 N 
HETATM   17  C   UNL     1     -41.103 -46.574  12.390  1.00  0.00     0.102 A 
HETATM   18  C   UNL     1     -40.249 -45.744  11.788  1.00  0.00     0.092 A 
HETATM   19  C   UNL     1     -40.430 -45.457  10.359  1.00  0.00     0.250 A 
HETATM   20  O   UNL     1     -39.686 -44.684   9.768  1.00  0.00    -0.268 OA
HETATM   21  N   UNL     1     -41.470 -46.099   9.751  1.00  0.00    -0.275 N 
HETATM   22  C   UNL     1     -42.385 -46.913  10.368  1.00  0.00     0.329 A 
HETATM   23  H   UNL     1     -41.611 -45.915   8.771  1.00  0.00     0.173 HD
HETATM   24  O   UNL     1     -43.322 -47.388   9.729  1.00  0.00    -0.246 OA
ENDBRANCH  15  16
ENDBRANCH   2  15
TORSDOF 4
ENDMDL
MODEL 3
REMARK VINA RESULT:      -6.1      1.848      2.725
REMARK  4 active torsions:
REMARK  status: ('A' for Active; 'I' for Inactive)
REMARK    1  A    between atoms: C_2  and  C_4 
REMARK    2  A    between atoms: C_10  and  N_11 
REMARK       I    between atoms: N_11  and  C_12 
REMARK    3  A    between atoms: C_12  and  C_14 
REMARK    4  A    between atoms: C_14  and  N_15 
ROOT
HETATM    1  N   UNL     1     -43.207 -49.808  13.333  1.00  0.00    -0.355 N 
HETATM    2  C   UNL     1     -42.534 -48.834  14.043  1.00  0.00     0.236 C 
HETATM    3  O   UNL     1     -42.632 -48.725  15.264  1.00  0.00    -0.272 OA
HETATM    4  H   UNL     1     -43.117 -49.842  12.324  1.00  0.00     0.162 HD
ENDROOT
BRANCH   1   5
HETATM    5  C   UNL     1     -44.022 -50.812  13.999  1.00  0.00     0.089 C 
HETATM    6  C   UNL     1     -43.248 -52.102  14.420  1.00  0.00     0.012 C 
HETATM    7  C   UNL     1     -44.245 -52.984  15.216  1.00  0.00     0.007 C 
HETATM    8  C   UNL     1     -45.503 -53.324  14.412  1.00  0.00     0.005 C 
HETATM    9  C   UNL     1     -46.250 -52.072  13.935  1.00  0.00    -0.017 C 
HETATM   10  C   UNL     1     -46.970 -51.383  15.101  1.00  0.00     0.010 C 
HETATM   11  C   UNL     1     -45.296 -51.117  13.196  1.00  0.00     0.029 C 
BRANCH   6  12
HETATM   12  C   UNL     1     -42.532 -52.923  13.290  1.00  0.00    -0.017 C 
HETATM   13  C   UNL     1     -41.224 -52.302  12.786  1.00  0.00     0.010 C 
HETATM   14  C   UNL     1     -42.189 -54.347  13.772  1.00  0.00     0.010 C 
ENDBRANCH   6  12
ENDBRANCH   1   5
BRANCH   2  15
HETATM   15  C   UNL     1     -41.664 -47.890  13.208  1.00  0.00     0.235 C 
BRANCH  15  16
HETATM   16  N   UNL     1     -40.481 -48.550  12.645  1.00  0.00    -0.301 N 
HETATM   17  C   UNL     1     -39.342 -48.686  13.417  1.00  0.00     0.102 A 
HETATM   18  C   UNL     1     -38.227 -49.246  12.945  1.00  0.00     0.092 A 
HETATM   19  C   UNL     1     -38.221 -49.757  11.568  1.00  0.00     0.250 A 
HETATM   20  O   UNL     1     -37.214 -50.258  11.081  1.00  0.00    -0.268 OA
HETATM   21  N   UNL     1     -39.394 -49.632  10.883  1.00  0.00    -0.275 N 
HETATM   22  C   UNL     1     -40.531 -49.014  11.337  1.00  0.00     0.329 A 
HETATM   23  H   UNL     1     -39.411 -49.977   9.936  1.00  0.00     0.173 HD
HETATM   24  O   UNL     1     -41.512 -48.904  10.604  1.00  0.00    -0.246 OA
ENDBRANCH  15  16
ENDBRANCH   2  15
TORSDOF 4
ENDMDL
MODEL 4
REMARK VINA RESULT:      -5.7      3.368      5.508
REMARK  4 active torsions:
REMARK  status: ('A' for Active; 'I' for Inactive)
REMARK    1  A    between atoms: C_2  and  C_4 
REMARK    2  A    between atoms: C_10  and  N_11 
REMARK       I    between atoms: N_11  and  C_12 
REMARK    3  A    between atoms: C_12  and  C_14 
REMARK    4  A    between atoms: C_14  and  N_15 
ROOT
HETATM    1  N   UNL     1     -44.351 -53.202  16.118  1.00  0.00    -0.355 N 
HETATM    2  C   UNL     1     -44.535 -54.363  15.393  1.00  0.00     0.236 C 
HETATM    3  O   UNL     1     -45.626 -54.925  15.317  1.00  0.00    -0.272 OA
HETATM    4  H   UNL     1     -43.428 -52.789  16.174  1.00  0.00     0.162 HD
ENDROOT
BRANCH   1   5
HETATM    5  C   UNL     1     -45.460 -52.534  16.783  1.00  0.00     0.089 C 
HETATM    6  C   UNL     1     -46.603 -52.065  15.827  1.00  0.00     0.012 C 
HETATM    7  C   UNL     1     -47.735 -51.499  16.725  1.00  0.00     0.007 C 
HETATM    8  C   UNL     1     -47.256 -50.358  17.627  1.00  0.00     0.005 C 
HETATM    9  C   UNL     1     -46.093 -50.778  18.535  1.00  0.00    -0.017 C 
HETATM   10  C   UNL     1     -46.578 -51.700  19.662  1.00  0.00     0.010 C 
HETATM   11  C   UNL     1     -44.961 -51.416  17.710  1.00  0.00     0.029 C 
BRANCH   6  12
HETATM   12  C   UNL     1     -46.226 -51.063  14.679  1.00  0.00    -0.017 C 
HETATM   13  C   UNL     1     -44.729 -50.752  14.573  1.00  0.00     0.010 C 
HETATM   14  C   UNL     1     -46.664 -51.606  13.304  1.00  0.00     0.010 C 
ENDBRANCH   6  12
ENDBRANCH   1   5
BRANCH   2  15
HETATM   15  C   UNL     1     -43.286 -54.910  14.695  1.00  0.00     0.235 C 
BRANCH  15  16
HETATM   16  N   UNL     1     -42.643 -53.925  13.819  1.00  0.00    -0.301 N 
HETATM   17  C   UNL     1     -41.441 -53.357  14.197  1.00  0.00     0.102 A 
HETATM   18  C   UNL     1     -40.829 -52.432  13.457  1.00  0.00     0.092 A 
HETATM   19  C   UNL     1     -41.442 -52.024  12.186  1.00  0.00     0.250 A 
HETATM   20  O   UNL     1     -40.931 -51.160  11.482  1.00  0.00    -0.268 OA
HETATM   21  N   UNL     1     -42.602 -52.661  11.855  1.00  0.00    -0.275 N 
HETATM   22  C   UNL     1     -43.268 -53.576  12.629  1.00  0.00     0.329 A 
HETATM   23  H   UNL     1     -43.039 -52.395  10.987  1.00  0.00     0.173 HD
HETATM   24  O   UNL     1     -44.344 -54.039  12.255  1.00  0.00    -0.246 OA
ENDBRANCH  15  16
ENDBRANCH   2  15
TORSDOF 4
ENDMDL
MODEL 5
REMARK VINA RESULT:      -5.6      3.061      7.111
REMARK  4 active torsions:
REMARK  status: ('A' for Active; 'I' for Inactive)
REMARK    1  A    between atoms: C_2  and  C_4 
REMARK    2  A    between atoms: C_10  and  N_11 
REMARK       I    between atoms: N_11  and  C_12 
REMARK    3  A    between atoms: C_12  and  C_14 
REMARK    4  A    between atoms: C_14  and  N_15 
ROOT
HETATM    1  N   UNL     1     -39.428 -51.066  13.630  1.00  0.00    -0.355 N 
HETATM    2  C   UNL     1     -39.578 -52.199  14.403  1.00  0.00     0.236 C 
HETATM    3  O   UNL     1     -39.390 -52.196  15.618  1.00  0.00    -0.272 OA
HETATM    4  H   UNL     1     -39.568 -51.123  12.628  1.00  0.00     0.162 HD
ENDROOT
BRANCH   1   5
HETATM    5  C   UNL     1     -39.104 -49.776  14.221  1.00  0.00     0.089 C 
HETATM    6  C   UNL     1     -40.292 -48.761  14.257  1.00  0.00     0.012 C 
HETATM    7  C   UNL     1     -39.791 -47.511  15.027  1.00  0.00     0.007 C 
HETATM    8  C   UNL     1     -38.544 -46.889  14.393  1.00  0.00     0.005 C 
HETATM    9  C   UNL     1     -37.380 -47.884  14.290  1.00  0.00    -0.017 C 
HETATM   10  C   UNL     1     -36.761 -48.150  15.669  1.00  0.00     0.010 C 
HETATM   11  C   UNL     1     -37.832 -49.182  13.597  1.00  0.00     0.029 C 
BRANCH   6  12
HETATM   12  C   UNL     1     -40.954 -48.366  12.890  1.00  0.00    -0.017 C 
HETATM   13  C   UNL     1     -42.141 -49.246  12.482  1.00  0.00     0.010 C 
HETATM   14  C   UNL     1     -41.470 -46.914  12.924  1.00  0.00     0.010 C 
ENDBRANCH   6  12
ENDBRANCH   1   5
BRANCH   2  15
HETATM   15  C   UNL     1     -39.985 -53.467  13.646  1.00  0.00     0.235 C 
BRANCH  15  16
HETATM   16  N   UNL     1     -41.421 -53.523  13.355  1.00  0.00    -0.301 N 
HETATM   17  C   UNL     1     -42.268 -54.187  14.223  1.00  0.00     0.102 A 
HETATM   18  C   UNL     1     -43.577 -54.300  13.991  1.00  0.00     0.092 A 
HETATM   19  C   UNL     1     -44.137 -53.675  12.786  1.00  0.00     0.250 A 
HETATM   20  O   UNL     1     -45.329 -53.771  12.517  1.00  0.00    -0.268 OA
HETATM   21  N   UNL     1     -43.251 -52.996  12.001  1.00  0.00    -0.275 N 
HETATM   22  C   UNL     1     -41.896 -52.915  12.201  1.00  0.00     0.329 A 
HETATM   23  H   UNL     1     -43.616 -52.561  11.170  1.00  0.00     0.173 HD
HETATM   24  O   UNL     1     -41.184 -52.327  11.389  1.00  0.00    -0.246 OA
ENDBRANCH  15  16
ENDBRANCH   2  15
TORSDOF 4
ENDMDL
MODEL 6
REMARK VINA RESULT:      -5.6      1.769      2.964
REMARK  4 active torsions:
REMARK  status: ('A' for Active; 'I' for Inactive)
REMARK    1  A    between atoms: C_2  and  C_4 
REMARK    2  A    between atoms: C_10  and  N_11 
REMARK       I    between atoms: N_11  and  C_12 
REMARK    3  A    between atoms: C_12  and  C_14 
REMARK    4  A    between atoms: C_14  and  N_15 
ROOT
HETATM    1  N   UNL     1     -43.309 -50.911  14.406  1.00  0.00    -0.355 N 
HETATM    2  C   UNL     1     -42.468 -50.847  13.314  1.00  0.00     0.236 C 
HETATM    3  O   UNL     1     -42.549 -51.636  12.375  1.00  0.00    -0.272 OA
HETATM    4  H   UNL     1     -43.188 -50.256  15.169  1.00  0.00     0.162 HD
ENDROOT
BRANCH   1   5
HETATM    5  C   UNL     1     -44.393 -51.880  14.479  1.00  0.00     0.089 C 
HETATM    6  C   UNL     1     -45.678 -51.363  15.202  1.00  0.00     0.012 C 
HETATM    7  C   UNL     1     -46.748 -52.478  15.066  1.00  0.00     0.007 C 
HETATM    8  C   UNL     1     -46.281 -53.816  15.646  1.00  0.00     0.005 C 
HETATM    9  C   UNL     1     -44.986 -54.316  14.994  1.00  0.00    -0.017 C 
HETATM   10  C   UNL     1     -45.247 -54.825  13.570  1.00  0.00     0.010 C 
HETATM   11  C   UNL     1     -43.901 -53.226  15.030  1.00  0.00     0.029 C 
BRANCH   6  12
HETATM   12  C   UNL     1     -45.534 -50.882  16.689  1.00  0.00    -0.017 C 
HETATM   13  C   UNL     1     -44.781 -49.558  16.858  1.00  0.00     0.010 C 
HETATM   14  C   UNL     1     -46.916 -50.694  17.346  1.00  0.00     0.010 C 
ENDBRANCH   6  12
ENDBRANCH   1   5
BRANCH   2  15
HETATM   15  C   UNL     1     -41.418 -49.732  13.353  1.00  0.00     0.235 C 
BRANCH  15  16
HETATM   16  N   UNL     1     -41.657 -48.686  12.353  1.00  0.00    -0.301 N 
HETATM   17  C   UNL     1     -42.501 -47.634  12.654  1.00  0.00     0.102 A 
HETATM   18  C   UNL     1     -42.782 -46.674  11.772  1.00  0.00     0.092 A 
HETATM   19  C   UNL     1     -42.152 -46.726  10.446  1.00  0.00     0.250 A 
HETATM   20  O   UNL     1     -42.397 -45.881   9.593  1.00  0.00    -0.268 OA
HETATM   21  N   UNL     1     -41.295 -47.766  10.236  1.00  0.00    -0.275 N 
HETATM   22  C   UNL     1     -41.036 -48.787  11.115  1.00  0.00     0.329 A 
HETATM   23  H   UNL     1     -40.852 -47.820   9.333  1.00  0.00     0.173 HD
HETATM   24  O   UNL     1     -40.291 -49.710  10.792  1.00  0.00    -0.246 OA
ENDBRANCH  15  16
ENDBRANCH   2  15
TORSDOF 4
ENDMDL
MODEL 7
REMARK VINA RESULT:      -5.4      2.220      2.821
REMARK  4 active torsions:
REMARK  status: ('A' for Active; 'I' for Inactive)
REMARK    1  A    between atoms: C_2  and  C_4 
REMARK    2  A    between atoms: C_10  and  N_11 
REMARK       I    between atoms: N_11  and  C_12 
REMARK    3  A    between atoms: C_12  and  C_14 
REMARK    4  A    between atoms: C_14  and  N_15 
ROOT
HETATM    1  N   UNL     1     -42.760 -51.776  14.867  1.00  0.00    -0.355 N 
HETATM    2  C   UNL     1     -41.621 -51.397  15.550  1.00  0.00     0.236 C 
HETATM    3  O   UNL     1     -41.616 -51.205  16.764  1.00  0.00    -0.272 OA
HETATM    4  H   UNL     1     -42.723 -51.896  13.862  1.00  0.00     0.162 HD
ENDROOT
BRANCH   1   5
HETATM    5  C   UNL     1     -44.012 -52.041  15.559  1.00  0.00     0.089 C 
HETATM    6  C   UNL     1     -44.589 -53.475  15.334  1.00  0.00     0.012 C 
HETATM    7  C   UNL     1     -45.840 -53.604  16.243  1.00  0.00     0.007 C 
HETATM    8  C   UNL     1     -46.890 -52.528  15.953  1.00  0.00     0.005 C 
HETATM    9  C   UNL     1     -46.332 -51.107  16.109  1.00  0.00    -0.017 C 
HETATM   10  C   UNL     1     -46.125 -50.756  17.588  1.00  0.00     0.010 C 
HETATM   11  C   UNL     1     -45.043 -50.935  15.286  1.00  0.00     0.029 C 
BRANCH   6  12
HETATM   12  C   UNL     1     -44.902 -53.911  13.860  1.00  0.00    -0.017 C 
HETATM   13  C   UNL     1     -43.673 -53.998  12.948  1.00  0.00     0.010 C 
HETATM   14  C   UNL     1     -45.580 -55.295  13.823  1.00  0.00     0.010 C 
ENDBRANCH   6  12
ENDBRANCH   1   5
BRANCH   2  15
HETATM   15  C   UNL     1     -40.365 -51.220  14.692  1.00  0.00     0.235 C 
BRANCH  15  16
HETATM   16  N   UNL     1     -40.614 -50.465  13.460  1.00  0.00    -0.301 N 
HETATM   17  C   UNL     1     -40.901 -49.115  13.533  1.00  0.00     0.102 A 
HETATM   18  C   UNL     1     -41.171 -48.386  12.449  1.00  0.00     0.092 A 
HETATM   19  C   UNL     1     -41.136 -49.037  11.133  1.00  0.00     0.250 A 
HETATM   20  O   UNL     1     -41.400 -48.416  10.110  1.00  0.00    -0.268 OA
HETATM   21  N   UNL     1     -40.799 -50.359  11.133  1.00  0.00    -0.275 N 
HETATM   22  C   UNL     1     -40.569 -51.132  12.243  1.00  0.00     0.329 A 
HETATM   23  H   UNL     1     -40.770 -50.824  10.240  1.00  0.00     0.173 HD
HETATM   24  O   UNL     1     -40.335 -52.333  12.124  1.00  0.00    -0.246 OA
ENDBRANCH  15  16
ENDBRANCH   2  15
TORSDOF 4
ENDMDL
MODEL 8
REMARK VINA RESULT:      -5.4      3.252      6.676
REMARK  4 active torsions:
REMARK  status: ('A' for Active; 'I' for Inactive)
REMARK    1  A    between atoms: C_2  and  C_4 
REMARK    2  A    between atoms: C_10  and  N_11 
REMARK       I    between atoms: N_11  and  C_12 
REMARK    3  A    between atoms: C_12  and  C_14 
REMARK    4  A    between atoms: C_14  and  N_15 
ROOT
HETATM    1  N   UNL     1     -41.585 -51.747  14.019  1.00  0.00    -0.355 N 
HETATM    2  C   UNL     1     -42.205 -51.988  15.229  1.00  0.00     0.236 C 
HETATM    3  O   UNL     1     -41.837 -51.455  16.274  1.00  0.00    -0.272 OA
HETATM    4  H   UNL     1     -41.906 -52.229  13.189  1.00  0.00     0.162 HD
ENDROOT
BRANCH   1   5
HETATM    5  C   UNL     1     -40.495 -50.789  13.898  1.00  0.00     0.089 C 
HETATM    6  C   UNL     1     -40.951 -49.301  13.761  1.00  0.00     0.012 C 
HETATM    7  C   UNL     1     -39.664 -48.435  13.772  1.00  0.00     0.007 C 
HETATM    8  C   UNL     1     -38.683 -48.824  12.662  1.00  0.00     0.005 C 
HETATM    9  C   UNL     1     -38.266 -50.298  12.738  1.00  0.00    -0.017 C 
HETATM   10  C   UNL     1     -37.307 -50.539  13.912  1.00  0.00     0.010 C 
HETATM   11  C   UNL     1     -39.503 -51.211  12.804  1.00  0.00     0.029 C 
BRANCH   6  12
HETATM   12  C   UNL     1     -41.881 -48.933  12.552  1.00  0.00    -0.017 C 
HETATM   13  C   UNL     1     -43.345 -49.352  12.725  1.00  0.00     0.010 C 
HETATM   14  C   UNL     1     -41.882 -47.412  12.297  1.00  0.00     0.010 C 
ENDBRANCH   6  12
ENDBRANCH   1   5
BRANCH   2  15
HETATM   15  C   UNL     1     -43.378 -52.971  15.185  1.00  0.00     0.235 C 
BRANCH  15  16
HETATM   16  N   UNL     1     -44.424 -52.571  14.239  1.00  0.00    -0.301 N 
HETATM   17  C   UNL     1     -45.453 -51.751  14.663  1.00  0.00     0.102 A 
HETATM   18  C   UNL     1     -46.449 -51.385  13.856  1.00  0.00     0.092 A 
HETATM   19  C   UNL     1     -46.436 -51.850  12.462  1.00  0.00     0.250 A 
HETATM   20  O   UNL     1     -47.341 -51.560  11.688  1.00  0.00    -0.268 OA
HETATM   21  N   UNL     1     -45.367 -52.616  12.101  1.00  0.00    -0.275 N 
HETATM   22  C   UNL     1     -44.363 -53.041  12.933  1.00  0.00     0.329 A 
HETATM   23  H   UNL     1     -45.340 -52.945  11.149  1.00  0.00     0.173 HD
HETATM   24  O   UNL     1     -43.480 -53.785  12.510  1.00  0.00    -0.246 OA
ENDBRANCH  15  16
ENDBRANCH   2  15
TORSDOF 4
ENDMDL
MODEL 9
REMARK VINA RESULT:      -5.3      2.627      6.611
REMARK  4 active torsions:
REMARK  status: ('A' for Active; 'I' for Inactive)
REMARK    1  A    between atoms: C_2  and  C_4 
REMARK    2  A    between atoms: C_10  and  N_11 
REMARK       I    between atoms: N_11  and  C_12 
REMARK    3  A    between atoms: C_12  and  C_14 
REMARK    4  A    between atoms: C_14  and  N_15 
ROOT
HETATM    1  N   UNL     1     -41.952 -50.791  11.969  1.00  0.00    -0.355 N 
HETATM    2  C   UNL     1     -40.991 -51.771  12.114  1.00  0.00     0.236 C 
HETATM    3  O   UNL     1     -39.830 -51.513  12.425  1.00  0.00    -0.272 OA
HETATM    4  H   UNL     1     -42.889 -51.048  11.685  1.00  0.00     0.162 HD
ENDROOT
BRANCH   1   5
HETATM    5  C   UNL     1     -41.662 -49.391  12.245  1.00  0.00     0.089 C 
HETATM    6  C   UNL     1     -41.762 -48.992  13.752  1.00  0.00     0.012 C 
HETATM    7  C   UNL     1     -41.299 -47.515  13.857  1.00  0.00     0.007 C 
HETATM    8  C   UNL     1     -42.126 -46.576  12.974  1.00  0.00     0.005 C 
HETATM    9  C   UNL     1     -42.093 -46.981  11.495  1.00  0.00    -0.017 C 
HETATM   10  C   UNL     1     -40.731 -46.660  10.866  1.00  0.00     0.010 C 
HETATM   11  C   UNL     1     -42.473 -48.463  11.328  1.00  0.00     0.029 C 
BRANCH   6  12
HETATM   12  C   UNL     1     -43.136 -49.217  14.475  1.00  0.00    -0.017 C 
HETATM   13  C   UNL     1     -43.432 -50.676  14.838  1.00  0.00     0.010 C 
HETATM   14  C   UNL     1     -43.210 -48.411  15.788  1.00  0.00     0.010 C 
ENDBRANCH   6  12
ENDBRANCH   1   5
BRANCH   2  15
HETATM   15  C   UNL     1     -41.465 -53.204  11.852  1.00  0.00     0.235 C 
BRANCH  15  16
HETATM   16  N   UNL     1     -42.494 -53.648  12.798  1.00  0.00    -0.301 N 
HETATM   17  C   UNL     1     -43.829 -53.532  12.459  1.00  0.00     0.102 A 
HETATM   18  C   UNL     1     -44.807 -53.887  13.293  1.00  0.00     0.092 A 
HETATM   19  C   UNL     1     -44.450 -54.443  14.605  1.00  0.00     0.250 A 
HETATM   20  O   UNL     1     -45.313 -54.761  15.416  1.00  0.00    -0.268 OA
HETATM   21  N   UNL     1     -43.115 -54.572  14.852  1.00  0.00    -0.275 N 
HETATM   22  C   UNL     1     -42.099 -54.166  14.025  1.00  0.00     0.329 A 
HETATM   23  H   UNL     1     -42.849 -54.952  15.747  1.00  0.00     0.173 HD
HETATM   24  O   UNL     1     -40.927 -54.275  14.382  1.00  0.00    -0.246 OA
ENDBRANCH  15  16
ENDBRANCH   2  15
TORSDOF 4
ENDMDL
