MODEL 1
REMARK VINA RESULT:      -6.2      0.000      0.000
REMARK  5 active torsions:
REMARK  status: ('A' for Active; 'I' for Inactive)
REMARK    1  A    between atoms: C_2  and  C_3 
REMARK    2  A    between atoms: C_6  and  C_7 
REMARK    3  A    between atoms: C_7  and  C_8 
REMARK    4  A    between atoms: C_8  and  N_9 
REMARK       I    between atoms: N_9  and  C_10 
REMARK       I    between atoms: C_10  and  N_12 
REMARK    5  A    between atoms: N_12  and  C_13 
ROOT
HETATM    1  N   UNL     1     -41.890 -51.141  11.892  1.00  0.00    -0.343 N 
HETATM    2  C   UNL     1     -42.591 -51.397  13.043  1.00  0.00     0.316 C 
HETATM    3  O   UNL     1     -42.101 -51.346  14.161  1.00  0.00    -0.247 OA
HETATM    4  N   UNL     1     -43.895 -51.733  12.784  1.00  0.00    -0.338 N 
HETATM    5  H   UNL     1     -42.241 -51.551  11.039  1.00  0.00     0.164 HD
HETATM    6  H   UNL     1     -44.278 -51.408  11.908  1.00  0.00     0.164 HD
ENDROOT
BRANCH   1   7
HETATM    7  C   UNL     1     -40.463 -50.853  11.941  1.00  0.00     0.130 C 
BRANCH   7   8
HETATM    8  C   UNL     1     -40.055 -49.639  11.100  1.00  0.00     0.077 C 
BRANCH   8   9
HETATM    9  C   UNL     1     -41.140 -48.613  10.991  1.00  0.00     0.018 A 
HETATM   10  N   UNL     1     -41.766 -48.429   9.768  1.00  0.00    -0.357 N 
HETATM   11  C   UNL     1     -42.685 -47.489   9.863  1.00  0.00     0.050 A 
ATOM     12  HN  UNL     1     -41.546 -48.946   8.916  1.00  0.00     0.166 HD
HETATM   13  S   UNL     1     -42.865 -46.793  11.424  1.00  0.00    -0.087 SA
HETATM   14  C   UNL     1     -41.613 -47.804  12.006  1.00  0.00     0.076 A 
BRANCH  11  15
HETATM   15  C   UNL     1     -43.520 -47.012   8.716  1.00  0.00     0.060 C 
HETATM   16  C   UNL     1     -43.452 -47.982   7.546  1.00  0.00     0.012 C 
ENDBRANCH  11  15
ENDBRANCH   8   9
ENDBRANCH   7   8
ENDBRANCH   1   7
BRANCH   4  17
HETATM   17  C   UNL     1     -44.811 -52.017  13.871  1.00  0.00     0.089 C 
HETATM   18  C   UNL     1     -44.916 -53.512  14.184  1.00  0.00     0.026 C 
HETATM   19  C   UNL     1     -46.366 -53.763  14.593  1.00  0.00     0.002 C 
HETATM   20  C   UNL     1     -47.015 -52.387  14.699  1.00  0.00     0.006 C 
HETATM   21  C   UNL     1     -46.259 -51.522  13.686  1.00  0.00     0.004 C 
HETATM   22  C   UNL     1     -46.843 -51.682  12.282  1.00  0.00     0.012 C 
ENDBRANCH   4  17
TORSDOF 5
ENDMDL
MODEL 2
REMARK VINA RESULT:      -6.2      1.655      2.043
REMARK  5 active torsions:
REMARK  status: ('A' for Active; 'I' for Inactive)
REMARK    1  A    between atoms: C_2  and  C_3 
REMARK    2  A    between atoms: C_6  and  C_7 
REMARK    3  A    between atoms: C_7  and  C_8 
REMARK    4  A    between atoms: C_8  and  N_9 
REMARK       I    between atoms: N_9  and  C_10 
REMARK       I    between atoms: C_10  and  N_12 
REMARK    5  A    between atoms: N_12  and  C_13 
ROOT
HETATM    1  N   UNL     1     -42.604 -49.820  11.873  1.00  0.00    -0.343 N 
HETATM    2  C   UNL     1     -43.356 -50.016  13.003  1.00  0.00     0.316 C 
HETATM    3  O   UNL     1     -43.410 -49.219  13.928  1.00  0.00    -0.247 OA
HETATM    4  N   UNL     1     -44.022 -51.214  12.974  1.00  0.00    -0.338 N 
HETATM    5  H   UNL     1     -42.328 -50.643  11.357  1.00  0.00     0.164 HD
HETATM    6  H   UNL     1     -44.197 -51.610  12.061  1.00  0.00     0.164 HD
ENDROOT
BRANCH   1   7
HETATM    7  C   UNL     1     -41.749 -48.649  11.744  1.00  0.00     0.130 C 
BRANCH   7   8
HETATM    8  C   UNL     1     -41.614 -48.145  10.303  1.00  0.00     0.077 C 
BRANCH   8   9
HETATM    9  C   UNL     1     -42.786 -47.323   9.861  1.00  0.00     0.018 A 
HETATM   10  N   UNL     1     -44.026 -47.935   9.747  1.00  0.00    -0.357 N 
HETATM   11  C   UNL     1     -44.928 -47.063   9.345  1.00  0.00     0.050 A 
ATOM     12  HN  UNL     1     -44.212 -48.918   9.944  1.00  0.00     0.166 HD
HETATM   13  S   UNL     1     -44.348 -45.462   9.106  1.00  0.00    -0.087 SA
HETATM   14  C   UNL     1     -42.777 -45.978   9.550  1.00  0.00     0.076 A 
BRANCH  11  15
HETATM   15  C   UNL     1     -46.362 -47.400   9.080  1.00  0.00     0.060 C 
HETATM   16  C   UNL     1     -46.485 -48.701   8.302  1.00  0.00     0.012 C 
ENDBRANCH  11  15
ENDBRANCH   8   9
ENDBRANCH   7   8
ENDBRANCH   1   7
BRANCH   4  17
HETATM   17  C   UNL     1     -44.894 -51.597  14.067  1.00  0.00     0.089 C 
HETATM   18  C   UNL     1     -44.725 -53.063  14.475  1.00  0.00     0.026 C 
HETATM   19  C   UNL     1     -46.111 -53.557  14.884  1.00  0.00     0.002 C 
HETATM   20  C   UNL     1     -47.009 -52.324  14.893  1.00  0.00     0.006 C 
HETATM   21  C   UNL     1     -46.404 -51.396  13.834  1.00  0.00     0.004 C 
HETATM   22  C   UNL     1     -46.915 -51.750  12.437  1.00  0.00     0.012 C 
ENDBRANCH   4  17
TORSDOF 5
ENDMDL
MODEL 3
REMARK VINA RESULT:      -6.1      1.865      2.310
REMARK  5 active torsions:
REMARK  status: ('A' for Active; 'I' for Inactive)
REMARK    1  A    between atoms: C_2  and  C_3 
REMARK    2  A    between atoms: C_6  and  C_7 
REMARK    3  A    between atoms: C_7  and  C_8 
REMARK    4  A    between atoms: C_8  and  N_9 
REMARK       I    between atoms: N_9  and  C_10 
REMARK       I    between atoms: C_10  and  N_12 
REMARK    5  A    between atoms: N_12  and  C_13 
ROOT
HETATM    1  N   UNL     1     -41.586 -50.552  11.651  1.00  0.00    -0.343 N 
HETATM    2  C   UNL     1     -41.594 -51.849  12.097  1.00  0.00     0.316 C 
HETATM    3  O   UNL     1     -40.597 -52.552  12.158  1.00  0.00    -0.247 OA
HETATM    4  N   UNL     1     -42.854 -52.262  12.447  1.00  0.00    -0.338 N 
HETATM    5  H   UNL     1     -42.454 -50.184  11.292  1.00  0.00     0.164 HD
HETATM    6  H   UNL     1     -43.512 -51.537  12.696  1.00  0.00     0.164 HD
ENDROOT
BRANCH   1   7
HETATM    7  C   UNL     1     -40.360 -49.949  11.146  1.00  0.00     0.130 C 
BRANCH   7   8
HETATM    8  C   UNL     1     -40.244 -48.452  11.450  1.00  0.00     0.077 C 
BRANCH   8   9
HETATM    9  C   UNL     1     -41.310 -47.638  10.784  1.00  0.00     0.018 A 
HETATM   10  N   UNL     1     -42.057 -48.216   9.768  1.00  0.00    -0.357 N 
HETATM   11  C   UNL     1     -42.938 -47.354   9.304  1.00  0.00     0.050 A 
ATOM     12  HN  UNL     1     -41.940 -49.171   9.430  1.00  0.00     0.166 HD
HETATM   13  S   UNL     1     -42.937 -45.816  10.070  1.00  0.00    -0.087 SA
HETATM   14  C   UNL     1     -41.654 -46.333  11.079  1.00  0.00     0.076 A 
BRANCH  11  15
HETATM   15  C   UNL     1     -43.878 -47.640   8.174  1.00  0.00     0.060 C 
HETATM   16  C   UNL     1     -45.316 -47.717   8.663  1.00  0.00     0.012 C 
ENDBRANCH  11  15
ENDBRANCH   8   9
ENDBRANCH   7   8
ENDBRANCH   1   7
BRANCH   4  17
HETATM   17  C   UNL     1     -43.072 -53.597  12.968  1.00  0.00     0.089 C 
HETATM   18  C   UNL     1     -44.503 -54.095  12.745  1.00  0.00     0.026 C 
HETATM   19  C   UNL     1     -44.857 -54.942  13.966  1.00  0.00     0.002 C 
HETATM   20  C   UNL     1     -43.568 -55.079  14.769  1.00  0.00     0.006 C 
HETATM   21  C   UNL     1     -42.787 -53.794  14.470  1.00  0.00     0.004 C 
HETATM   22  C   UNL     1     -43.230 -52.655  15.387  1.00  0.00     0.012 C 
ENDBRANCH   4  17
TORSDOF 5
ENDMDL
MODEL 4
REMARK VINA RESULT:      -5.6      2.386      6.453
REMARK  5 active torsions:
REMARK  status: ('A' for Active; 'I' for Inactive)
REMARK    1  A    between atoms: C_2  and  C_3 
REMARK    2  A    between atoms: C_6  and  C_7 
REMARK    3  A    between atoms: C_7  and  C_8 
REMARK    4  A    between atoms: C_8  and  N_9 
REMARK       I    between atoms: N_9  and  C_10 
REMARK       I    between atoms: C_10  and  N_12 
REMARK    5  A    between atoms: N_12  and  C_13 
ROOT
HETATM    1  N   UNL     1     -40.700 -50.818  11.464  1.00  0.00    -0.343 N 
HETATM    2  C   UNL     1     -41.568 -49.773  11.649  1.00  0.00     0.316 C 
HETATM    3  O   UNL     1     -42.151 -49.553  12.700  1.00  0.00    -0.247 OA
HETATM    4  N   UNL     1     -41.714 -49.021  10.511  1.00  0.00    -0.338 N 
HETATM    5  H   UNL     1     -40.561 -51.138  10.517  1.00  0.00     0.164 HD
HETATM    6  H   UNL     1     -40.955 -49.060   9.846  1.00  0.00     0.164 HD
ENDROOT
BRANCH   1   7
HETATM    7  C   UNL     1     -40.473 -51.791  12.523  1.00  0.00     0.130 C 
BRANCH   7   8
HETATM    8  C   UNL     1     -41.293 -53.076  12.360  1.00  0.00     0.077 C 
BRANCH   8   9
HETATM    9  C   UNL     1     -42.436 -53.164  13.324  1.00  0.00     0.018 A 
HETATM   10  N   UNL     1     -43.252 -52.056  13.497  1.00  0.00    -0.357 N 
HETATM   11  C   UNL     1     -44.195 -52.317  14.379  1.00  0.00     0.050 A 
ATOM     12  HN  UNL     1     -43.138 -51.166  13.010  1.00  0.00     0.166 HD
HETATM   13  S   UNL     1     -44.170 -53.907  15.032  1.00  0.00    -0.087 SA
HETATM   14  C   UNL     1     -42.789 -54.262  14.083  1.00  0.00     0.076 A 
BRANCH  11  15
HETATM   15  C   UNL     1     -45.220 -51.326  14.831  1.00  0.00     0.060 C 
HETATM   16  C   UNL     1     -46.543 -51.538  14.111  1.00  0.00     0.012 C 
ENDBRANCH  11  15
ENDBRANCH   8   9
ENDBRANCH   7   8
ENDBRANCH   1   7
BRANCH   4  17
HETATM   17  C   UNL     1     -42.572 -47.852  10.508  1.00  0.00     0.089 C 
HETATM   18  C   UNL     1     -43.118 -47.521   9.116  1.00  0.00     0.026 C 
HETATM   19  C   UNL     1     -43.192 -45.998   9.036  1.00  0.00     0.002 C 
HETATM   20  C   UNL     1     -42.877 -45.489  10.438  1.00  0.00     0.006 C 
HETATM   21  C   UNL     1     -41.943 -46.547  11.035  1.00  0.00     0.004 C 
HETATM   22  C   UNL     1     -40.493 -46.294  10.624  1.00  0.00     0.012 C 
ENDBRANCH   4  17
TORSDOF 5
ENDMDL
MODEL 5
REMARK VINA RESULT:      -5.5      2.088      2.172
REMARK  5 active torsions:
REMARK  status: ('A' for Active; 'I' for Inactive)
REMARK    1  A    between atoms: C_2  and  C_3 
REMARK    2  A    between atoms: C_6  and  C_7 
REMARK    3  A    between atoms: C_7  and  C_8 
REMARK    4  A    between atoms: C_8  and  N_9 
REMARK       I    between atoms: N_9  and  C_10 
REMARK       I    between atoms: C_10  and  N_12 
REMARK    5  A    between atoms: N_12  and  C_13 
ROOT
HETATM    1  N   UNL     1     -41.877 -51.249  11.903  1.00  0.00    -0.343 N 
HETATM    2  C   UNL     1     -42.574 -51.552  13.045  1.00  0.00     0.316 C 
HETATM    3  O   UNL     1     -42.073 -51.581  14.159  1.00  0.00    -0.247 OA
HETATM    4  N   UNL     1     -43.891 -51.833  12.782  1.00  0.00    -0.338 N 
HETATM    5  H   UNL     1     -42.249 -51.598  11.032  1.00  0.00     0.164 HD
HETATM    6  H   UNL     1     -44.272 -51.445  11.931  1.00  0.00     0.164 HD
ENDROOT
BRANCH   1   7
HETATM    7  C   UNL     1     -40.442 -51.008  11.953  1.00  0.00     0.130 C 
BRANCH   7   8
HETATM    8  C   UNL     1     -39.985 -49.852  11.057  1.00  0.00     0.077 C 
BRANCH   8   9
HETATM    9  C   UNL     1     -40.047 -48.522  11.744  1.00  0.00     0.018 A 
HETATM   10  N   UNL     1     -40.018 -47.369  10.974  1.00  0.00    -0.357 N 
HETATM   11  C   UNL     1     -40.078 -46.304  11.747  1.00  0.00     0.050 A 
ATOM     12  HN  UNL     1     -39.959 -47.349   9.956  1.00  0.00     0.166 HD
HETATM   13  S   UNL     1     -40.195 -46.623  13.432  1.00  0.00    -0.087 SA
HETATM   14  C   UNL     1     -40.140 -48.303  13.105  1.00  0.00     0.076 A 
BRANCH  11  15
HETATM   15  C   UNL     1     -40.027 -44.896  11.241  1.00  0.00     0.060 C 
HETATM   16  C   UNL     1     -39.341 -44.824   9.886  1.00  0.00     0.012 C 
ENDBRANCH  11  15
ENDBRANCH   8   9
ENDBRANCH   7   8
ENDBRANCH   1   7
BRANCH   4  17
HETATM   17  C   UNL     1     -44.804 -52.152  13.862  1.00  0.00     0.089 C 
HETATM   18  C   UNL     1     -44.972 -53.659  14.070  1.00  0.00     0.026 C 
HETATM   19  C   UNL     1     -46.427 -53.875  14.485  1.00  0.00     0.002 C 
HETATM   20  C   UNL     1     -47.012 -52.483  14.697  1.00  0.00     0.006 C 
HETATM   21  C   UNL     1     -46.231 -51.582  13.735  1.00  0.00     0.004 C 
HETATM   22  C   UNL     1     -46.839 -51.617  12.333  1.00  0.00     0.012 C 
ENDBRANCH   4  17
TORSDOF 5
ENDMDL
MODEL 6
REMARK VINA RESULT:      -5.4      2.923      3.799
REMARK  5 active torsions:
REMARK  status: ('A' for Active; 'I' for Inactive)
REMARK    1  A    between atoms: C_2  and  C_3 
REMARK    2  A    between atoms: C_6  and  C_7 
REMARK    3  A    between atoms: C_7  and  C_8 
REMARK    4  A    between atoms: C_8  and  N_9 
REMARK       I    between atoms: N_9  and  C_10 
REMARK       I    between atoms: C_10  and  N_12 
REMARK    5  A    between atoms: N_12  and  C_13 
ROOT
HETATM    1  N   UNL     1     -40.949 -53.064  14.624  1.00  0.00    -0.343 N 
HETATM    2  C   UNL     1     -41.857 -52.565  13.725  1.00  0.00     0.316 C 
HETATM    3  O   UNL     1     -41.575 -52.249  12.579  1.00  0.00    -0.247 OA
HETATM    4  N   UNL     1     -43.109 -52.450  14.274  1.00  0.00    -0.338 N 
HETATM    5  H   UNL     1     -41.161 -52.948  15.604  1.00  0.00     0.164 HD
HETATM    6  H   UNL     1     -43.311 -53.046  15.063  1.00  0.00     0.164 HD
ENDROOT
BRANCH   1   7
HETATM    7  C   UNL     1     -39.542 -53.180  14.268  1.00  0.00     0.130 C 
BRANCH   7   8
HETATM    8  C   UNL     1     -38.708 -51.954  14.655  1.00  0.00     0.077 C 
BRANCH   8   9
HETATM    9  C   UNL     1     -38.464 -51.029  13.503  1.00  0.00     0.018 A 
HETATM   10  N   UNL     1     -39.360 -49.995  13.274  1.00  0.00    -0.357 N 
HETATM   11  C   UNL     1     -38.987 -49.293  12.223  1.00  0.00     0.050 A 
ATOM     12  HN  UNL     1     -40.189 -49.805  13.838  1.00  0.00     0.166 HD
HETATM   13  S   UNL     1     -37.535 -49.816  11.467  1.00  0.00    -0.087 SA
HETATM   14  C   UNL     1     -37.409 -51.083  12.613  1.00  0.00     0.076 A 
BRANCH  11  15
HETATM   15  C   UNL     1     -39.753 -48.130  11.676  1.00  0.00     0.060 C 
HETATM   16  C   UNL     1     -40.637 -47.502  12.743  1.00  0.00     0.012 C 
ENDBRANCH  11  15
ENDBRANCH   8   9
ENDBRANCH   7   8
ENDBRANCH   1   7
BRANCH   4  17
HETATM   17  C   UNL     1     -44.219 -51.965  13.477  1.00  0.00     0.089 C 
HETATM   18  C   UNL     1     -45.246 -51.184  14.302  1.00  0.00     0.026 C 
HETATM   19  C   UNL     1     -46.612 -51.502  13.697  1.00  0.00     0.002 C 
HETATM   20  C   UNL     1     -46.333 -52.294  12.425  1.00  0.00     0.006 C 
HETATM   21  C   UNL     1     -45.021 -53.034  12.708  1.00  0.00     0.004 C 
HETATM   22  C   UNL     1     -45.277 -54.341  13.458  1.00  0.00     0.012 C 
ENDBRANCH   4  17
TORSDOF 5
ENDMDL
MODEL 7
REMARK VINA RESULT:      -5.3      2.875      6.816
REMARK  5 active torsions:
REMARK  status: ('A' for Active; 'I' for Inactive)
REMARK    1  A    between atoms: C_2  and  C_3 
REMARK    2  A    between atoms: C_6  and  C_7 
REMARK    3  A    between atoms: C_7  and  C_8 
REMARK    4  A    between atoms: C_8  and  N_9 
REMARK       I    between atoms: N_9  and  C_10 
REMARK       I    between atoms: C_10  and  N_12 
REMARK    5  A    between atoms: N_12  and  C_13 
ROOT
HETATM    1  N   UNL     1     -40.399 -51.122  11.688  1.00  0.00    -0.343 N 
HETATM    2  C   UNL     1     -41.002 -49.911  11.913  1.00  0.00     0.316 C 
HETATM    3  O   UNL     1     -42.205 -49.772  12.078  1.00  0.00    -0.247 OA
HETATM    4  N   UNL     1     -40.097 -48.880  11.913  1.00  0.00    -0.338 N 
HETATM    5  H   UNL     1     -39.510 -51.111  11.211  1.00  0.00     0.164 HD
HETATM    6  H   UNL     1     -39.140 -49.122  12.124  1.00  0.00     0.164 HD
ENDROOT
BRANCH   1   7
HETATM    7  C   UNL     1     -41.194 -52.335  11.561  1.00  0.00     0.130 C 
BRANCH   7   8
HETATM    8  C   UNL     1     -41.444 -53.046  12.895  1.00  0.00     0.077 C 
BRANCH   8   9
HETATM    9  C   UNL     1     -42.899 -53.266  13.174  1.00  0.00     0.018 A 
HETATM   10  N   UNL     1     -43.807 -52.286  12.803  1.00  0.00    -0.357 N 
HETATM   11  C   UNL     1     -45.030 -52.651  13.130  1.00  0.00     0.050 A 
ATOM     12  HN  UNL     1     -43.563 -51.408  12.344  1.00  0.00     0.166 HD
HETATM   13  S   UNL     1     -45.162 -54.194  13.877  1.00  0.00    -0.087 SA
HETATM   14  C   UNL     1     -43.463 -54.375  13.774  1.00  0.00     0.076 A 
BRANCH  11  15
HETATM   15  C   UNL     1     -46.246 -51.807  12.910  1.00  0.00     0.060 C 
HETATM   16  C   UNL     1     -46.853 -51.363  14.232  1.00  0.00     0.012 C 
ENDBRANCH  11  15
ENDBRANCH   8   9
ENDBRANCH   7   8
ENDBRANCH   1   7
BRANCH   4  17
HETATM   17  C   UNL     1     -40.533 -47.519  12.159  1.00  0.00     0.089 C 
HETATM   18  C   UNL     1     -40.066 -46.541  11.078  1.00  0.00     0.026 C 
HETATM   19  C   UNL     1     -39.776 -45.222  11.790  1.00  0.00     0.002 C 
HETATM   20  C   UNL     1     -40.265 -45.403  13.223  1.00  0.00     0.006 C 
HETATM   21  C   UNL     1     -40.100 -46.901  13.503  1.00  0.00     0.004 C 
HETATM   22  C   UNL     1     -38.675 -47.222  13.955  1.00  0.00     0.012 C 
ENDBRANCH   4  17
TORSDOF 5
ENDMDL
MODEL 8
REMARK VINA RESULT:      -5.3      2.852      7.072
REMARK  5 active torsions:
REMARK  status: ('A' for Active; 'I' for Inactive)
REMARK    1  A    between atoms: C_2  and  C_3 
REMARK    2  A    between atoms: C_6  and  C_7 
REMARK    3  A    between atoms: C_7  and  C_8 
REMARK    4  A    between atoms: C_8  and  N_9 
REMARK       I    between atoms: N_9  and  C_10 
REMARK       I    between atoms: C_10  and  N_12 
REMARK    5  A    between atoms: N_12  and  C_13 
ROOT
HETATM    1  N   UNL     1     -42.651 -52.568  11.882  1.00  0.00    -0.343 N 
HETATM    2  C   UNL     1     -42.576 -51.270  12.319  1.00  0.00     0.316 C 
HETATM    3  O   UNL     1     -43.318 -50.794  13.166  1.00  0.00    -0.247 OA
HETATM    4  N   UNL     1     -41.583 -50.571  11.681  1.00  0.00    -0.338 N 
HETATM    5  H   UNL     1     -42.278 -52.766  10.966  1.00  0.00     0.164 HD
HETATM    6  H   UNL     1     -40.829 -51.117  11.290  1.00  0.00     0.164 HD
ENDROOT
BRANCH   1   7
HETATM    7  C   UNL     1     -43.697 -53.455  12.370  1.00  0.00     0.130 C 
BRANCH   7   8
HETATM    8  C   UNL     1     -43.393 -54.065  13.742  1.00  0.00     0.077 C 
BRANCH   8   9
HETATM    9  C   UNL     1     -44.371 -53.648  14.796  1.00  0.00     0.018 A 
HETATM   10  N   UNL     1     -45.334 -52.702  14.477  1.00  0.00    -0.357 N 
HETATM   11  C   UNL     1     -46.098 -52.460  15.523  1.00  0.00     0.050 A 
ATOM     12  HN  UNL     1     -45.437 -52.258  13.564  1.00  0.00     0.166 HD
HETATM   13  S   UNL     1     -45.720 -53.364  16.935  1.00  0.00    -0.087 SA
HETATM   14  C   UNL     1     -44.432 -54.117  16.093  1.00  0.00     0.076 A 
BRANCH  11  15
HETATM   15  C   UNL     1     -47.210 -51.459  15.537  1.00  0.00     0.060 C 
HETATM   16  C   UNL     1     -47.703 -51.205  16.953  1.00  0.00     0.012 C 
ENDBRANCH  11  15
ENDBRANCH   8   9
ENDBRANCH   7   8
ENDBRANCH   1   7
BRANCH   4  17
HETATM   17  C   UNL     1     -41.324 -49.185  12.021  1.00  0.00     0.089 C 
HETATM   18  C   UNL     1     -41.644 -48.224  10.873  1.00  0.00     0.026 C 
HETATM   19  C   UNL     1     -40.607 -47.105  10.950  1.00  0.00     0.002 C 
HETATM   20  C   UNL     1     -39.838 -47.335  12.246  1.00  0.00     0.006 C 
HETATM   21  C   UNL     1     -39.885 -48.852  12.462  1.00  0.00     0.004 C 
HETATM   22  C   UNL     1     -38.771 -49.552  11.684  1.00  0.00     0.012 C 
ENDBRANCH   4  17
TORSDOF 5
ENDMDL
MODEL 9
REMARK VINA RESULT:      -5.2      2.781      4.358
REMARK  5 active torsions:
REMARK  status: ('A' for Active; 'I' for Inactive)
REMARK    1  A    between atoms: C_2  and  C_3 
REMARK    2  A    between atoms: C_6  and  C_7 
REMARK    3  A    between atoms: C_7  and  C_8 
REMARK    4  A    between atoms: C_8  and  N_9 
REMARK       I    between atoms: N_9  and  C_10 
REMARK       I    between atoms: C_10  and  N_12 
REMARK    5  A    between atoms: N_12  and  C_13 
ROOT
HETATM    1  N   UNL     1     -42.144 -49.777  11.580  1.00  0.00    -0.343 N 
HETATM    2  C   UNL     1     -42.242 -50.803  12.485  1.00  0.00     0.316 C 
HETATM    3  O   UNL     1     -41.305 -51.204  13.160  1.00  0.00    -0.247 OA
HETATM    4  N   UNL     1     -43.507 -51.331  12.526  1.00  0.00    -0.338 N 
HETATM    5  H   UNL     1     -42.821 -49.759  10.832  1.00  0.00     0.164 HD
HETATM    6  H   UNL     1     -44.256 -50.727  12.221  1.00  0.00     0.164 HD
ENDROOT
BRANCH   1   7
HETATM    7  C   UNL     1     -40.862 -49.139  11.317  1.00  0.00     0.130 C 
BRANCH   7   8
HETATM    8  C   UNL     1     -40.637 -47.860  12.130  1.00  0.00     0.077 C 
BRANCH   8   9
HETATM    9  C   UNL     1     -39.490 -47.971  13.086  1.00  0.00     0.018 A 
HETATM   10  N   UNL     1     -38.974 -49.227  13.370  1.00  0.00    -0.357 N 
HETATM   11  C   UNL     1     -37.979 -49.128  14.227  1.00  0.00     0.050 A 
ATOM     12  HN  UNL     1     -39.317 -50.101  12.972  1.00  0.00     0.166 HD
HETATM   13  S   UNL     1     -37.591 -47.528  14.722  1.00  0.00    -0.087 SA
HETATM   14  C   UNL     1     -38.857 -46.929  13.736  1.00  0.00     0.076 A 
BRANCH  11  15
HETATM   15  C   UNL     1     -37.226 -50.298  14.778  1.00  0.00     0.060 C 
HETATM   16  C   UNL     1     -37.169 -50.247  16.297  1.00  0.00     0.012 C 
ENDBRANCH  11  15
ENDBRANCH   8   9
ENDBRANCH   7   8
ENDBRANCH   1   7
BRANCH   4  17
HETATM   17  C   UNL     1     -43.824 -52.411  13.441  1.00  0.00     0.089 C 
HETATM   18  C   UNL     1     -44.025 -53.751  12.730  1.00  0.00     0.026 C 
HETATM   19  C   UNL     1     -45.120 -54.485  13.501  1.00  0.00     0.002 C 
HETATM   20  C   UNL     1     -45.388 -53.647  14.747  1.00  0.00     0.006 C 
HETATM   21  C   UNL     1     -45.072 -52.209  14.323  1.00  0.00     0.004 C 
HETATM   22  C   UNL     1     -46.274 -51.562  13.636  1.00  0.00     0.012 C 
ENDBRANCH   4  17
TORSDOF 5
ENDMDL
