MODEL 1
REMARK VINA RESULT:      -7.1      0.000      0.000
REMARK  8 active torsions:
REMARK  status: ('A' for Active; 'I' for Inactive)
REMARK    1  A    between atoms: C_2  and  C_3 
REMARK    2  A    between atoms: C_2  and  N_11 
REMARK    3  A    between atoms: C_3  and  N_4 
REMARK    4  A    between atoms: N_11  and  C_12 
REMARK    5  A    between atoms: C_12  and  C_13 
REMARK    6  A    between atoms: N_23  and  C_24 
REMARK    7  A    between atoms: C_24  and  C_25 
REMARK    8  A    between atoms: C_25  and  O_26 
ROOT
HETATM    1  C   UNL     1     -41.139 -51.693  12.384  1.00  0.00     0.113 A 
HETATM    2  N   UNL     1     -42.296 -52.091  11.897  1.00  0.00    -0.342 N 
ATOM      3  HN  UNL     1     -42.733 -51.786  11.027  1.00  0.00     0.167 HD
HETATM    4  C   UNL     1     -42.793 -52.996  12.794  1.00  0.00     0.062 A 
HETATM    5  C   UNL     1     -43.985 -53.730  12.737  1.00  0.00     0.055 A 
HETATM    6  C   UNL     1     -44.272 -54.602  13.789  1.00  0.00     0.036 A 
HETATM    7 CL   UNL     1     -45.728 -55.521  13.743  1.00  0.00    -0.084 Cl
HETATM    8  C   UNL     1     -43.406 -54.741  14.873  1.00  0.00     0.026 A 
HETATM    9  C   UNL     1     -42.213 -54.011  14.942  1.00  0.00     0.034 A 
HETATM   10  C   UNL     1     -41.931 -53.147  13.878  1.00  0.00     0.062 A 
HETATM   11  N   UNL     1     -40.880 -52.302  13.597  1.00  0.00    -0.331 N 
ENDROOT
BRANCH   1  12
HETATM   12  C   UNL     1     -40.244 -50.693  11.721  1.00  0.00     0.346 C 
BRANCH  12  13
HETATM   13  N   UNL     1     -41.052 -49.818  10.865  1.00  0.00     0.096 N 
HETATM   14  H   UNL     1     -40.500 -49.660  10.015  1.00  0.00     0.316 HD
BRANCH  13  15
HETATM   15  C   UNL     1     -41.343 -48.507  11.488  1.00  0.00     0.236 C 
HETATM   16  C   UNL     1     -40.122 -48.148  12.347  1.00  0.00     0.044 C 
BRANCH  15  17
HETATM   17  C   UNL     1     -41.618 -47.423  10.427  1.00  0.00     0.183 C 
BRANCH  17  18
HETATM   18  N   UNL     1     -42.859 -47.587   9.700  1.00  0.00    -0.301 N 
HETATM   19  C   UNL     1     -44.113 -47.366  10.184  1.00  0.00     0.118 A 
HETATM   20  C   UNL     1     -44.972 -47.524   9.118  1.00  0.00    -0.028 A 
HETATM   21  C   UNL     1     -46.442 -47.373   9.104  1.00  0.00     0.051 C 
HETATM   22  C   UNL     1     -44.121 -47.848   8.037  1.00  0.00     0.115 A 
HETATM   23  N   UNL     1     -42.834 -47.880   8.389  1.00  0.00    -0.310 N 
ATOM     24  HN  UNL     1     -42.024 -48.079   7.801  1.00  0.00     0.186 HD
ENDBRANCH  17  18
ENDBRANCH  15  17
ENDBRANCH  13  15
ENDBRANCH  12  13
ENDBRANCH   1  12
BRANCH  11  25
HETATM   25  C   UNL     1     -39.689 -52.144  14.416  1.00  0.00     0.156 C 
BRANCH  25  26
HETATM   26  C   UNL     1     -38.602 -53.177  14.132  1.00  0.00     0.184 C 
BRANCH  26  27
HETATM   27  O   UNL     1     -39.078 -54.220  13.288  1.00  0.00    -0.399 OA
HETATM   28  H   UNL     1     -38.529 -54.212  12.482  1.00  0.00     0.209 HD
ENDBRANCH  26  27
ENDBRANCH  25  26
ENDBRANCH  11  25
TORSDOF 8
ENDMDL
MODEL 2
REMARK VINA RESULT:      -6.8      1.856      2.843
REMARK  8 active torsions:
REMARK  status: ('A' for Active; 'I' for Inactive)
REMARK    1  A    between atoms: C_2  and  C_3 
REMARK    2  A    between atoms: C_2  and  N_11 
REMARK    3  A    between atoms: C_3  and  N_4 
REMARK    4  A    between atoms: N_11  and  C_12 
REMARK    5  A    between atoms: C_12  and  C_13 
REMARK    6  A    between atoms: N_23  and  C_24 
REMARK    7  A    between atoms: C_24  and  C_25 
REMARK    8  A    between atoms: C_25  and  O_26 
ROOT
HETATM    1  C   UNL     1     -40.793 -49.130  11.715  1.00  0.00     0.113 A 
HETATM    2  N   UNL     1     -41.957 -49.745  11.667  1.00  0.00    -0.342 N 
ATOM      3  HN  UNL     1     -42.824 -49.388  11.267  1.00  0.00     0.167 HD
HETATM    4  C   UNL     1     -41.765 -50.961  12.265  1.00  0.00     0.062 A 
HETATM    5  C   UNL     1     -42.681 -52.005  12.454  1.00  0.00     0.055 A 
HETATM    6  C   UNL     1     -42.237 -53.161  13.098  1.00  0.00     0.036 A 
HETATM    7 CL   UNL     1     -43.340 -54.462  13.340  1.00  0.00    -0.084 Cl
HETATM    8  C   UNL     1     -40.923 -53.281  13.550  1.00  0.00     0.026 A 
HETATM    9  C   UNL     1     -40.001 -52.244  13.370  1.00  0.00     0.034 A 
HETATM   10  C   UNL     1     -40.453 -51.094  12.714  1.00  0.00     0.062 A 
HETATM   11  N   UNL     1     -39.849 -49.909  12.354  1.00  0.00    -0.331 N 
ENDROOT
BRANCH   1  12
HETATM   12  C   UNL     1     -40.544 -47.758  11.171  1.00  0.00     0.346 C 
BRANCH  12  13
HETATM   13  N   UNL     1     -41.438 -47.522  10.032  1.00  0.00     0.096 N 
HETATM   14  H   UNL     1     -40.832 -47.304   9.234  1.00  0.00     0.316 HD
BRANCH  13  15
HETATM   15  C   UNL     1     -42.362 -46.384  10.247  1.00  0.00     0.236 C 
HETATM   16  C   UNL     1     -41.512 -45.222  10.779  1.00  0.00     0.044 C 
BRANCH  15  17
HETATM   17  C   UNL     1     -43.092 -45.994   8.947  1.00  0.00     0.183 C 
BRANCH  17  18
HETATM   18  N   UNL     1     -44.425 -46.540   8.812  1.00  0.00    -0.301 N 
HETATM   19  C   UNL     1     -44.748 -47.856   8.665  1.00  0.00     0.118 A 
HETATM   20  C   UNL     1     -46.124 -47.923   8.702  1.00  0.00    -0.028 A 
HETATM   21  C   UNL     1     -46.979 -49.125   8.606  1.00  0.00     0.051 C 
HETATM   22  C   UNL     1     -46.528 -46.579   8.870  1.00  0.00     0.115 A 
HETATM   23  N   UNL     1     -45.495 -45.738   8.944  1.00  0.00    -0.310 N 
ATOM     24  HN  UNL     1     -45.514 -44.726   9.071  1.00  0.00     0.186 HD
ENDBRANCH  17  18
ENDBRANCH  15  17
ENDBRANCH  13  15
ENDBRANCH  12  13
ENDBRANCH   1  12
BRANCH  11  25
HETATM   25  C   UNL     1     -38.447 -49.585  12.564  1.00  0.00     0.156 C 
BRANCH  25  26
HETATM   26  C   UNL     1     -37.551 -49.920  11.375  1.00  0.00     0.184 C 
BRANCH  26  27
HETATM   27  O   UNL     1     -37.290 -51.317  11.292  1.00  0.00    -0.399 OA
HETATM   28  H   UNL     1     -37.153 -51.530  10.351  1.00  0.00     0.209 HD
ENDBRANCH  26  27
ENDBRANCH  25  26
ENDBRANCH  11  25
TORSDOF 8
ENDMDL
MODEL 3
REMARK VINA RESULT:      -6.7      3.285      6.359
REMARK  8 active torsions:
REMARK  status: ('A' for Active; 'I' for Inactive)
REMARK    1  A    between atoms: C_2  and  C_3 
REMARK    2  A    between atoms: C_2  and  N_11 
REMARK    3  A    between atoms: C_3  and  N_4 
REMARK    4  A    between atoms: N_11  and  C_12 
REMARK    5  A    between atoms: C_12  and  C_13 
REMARK    6  A    between atoms: N_23  and  C_24 
REMARK    7  A    between atoms: C_24  and  C_25 
REMARK    8  A    between atoms: C_25  and  O_26 
ROOT
HETATM    1  C   UNL     1     -40.836 -50.226  11.749  1.00  0.00     0.113 A 
HETATM    2  N   UNL     1     -41.976 -49.751  11.289  1.00  0.00    -0.342 N 
ATOM      3  HN  UNL     1     -42.842 -50.269  11.144  1.00  0.00     0.167 HD
HETATM    4  C   UNL     1     -41.759 -48.422  11.046  1.00  0.00     0.062 A 
HETATM    5  C   UNL     1     -42.656 -47.456  10.570  1.00  0.00     0.055 A 
HETATM    6  C   UNL     1     -42.190 -46.150  10.406  1.00  0.00     0.036 A 
HETATM    7 CL   UNL     1     -43.271 -44.941   9.826  1.00  0.00    -0.084 Cl
HETATM    8  C   UNL     1     -40.870 -45.808  10.698  1.00  0.00     0.026 A 
HETATM    9  C   UNL     1     -39.965 -46.766  11.172  1.00  0.00     0.034 A 
HETATM   10  C   UNL     1     -40.445 -48.069  11.343  1.00  0.00     0.062 A 
HETATM   11  N   UNL     1     -39.871 -49.240  11.788  1.00  0.00    -0.331 N 
ENDROOT
BRANCH   1  12
HETATM   12  C   UNL     1     -40.618 -51.653  12.146  1.00  0.00     0.346 C 
BRANCH  12  13
HETATM   13  N   UNL     1     -41.724 -52.469  11.634  1.00  0.00     0.096 N 
HETATM   14  H   UNL     1     -42.332 -51.831  11.110  1.00  0.00     0.316 HD
BRANCH  13  15
HETATM   15  C   UNL     1     -42.521 -53.104  12.708  1.00  0.00     0.236 C 
HETATM   16  C   UNL     1     -41.654 -54.226  13.295  1.00  0.00     0.044 C 
BRANCH  15  17
HETATM   17  C   UNL     1     -42.926 -52.085  13.791  1.00  0.00     0.183 C 
BRANCH  17  18
HETATM   18  N   UNL     1     -44.353 -51.929  13.975  1.00  0.00    -0.301 N 
HETATM   19  C   UNL     1     -45.015 -51.906  15.165  1.00  0.00     0.118 A 
HETATM   20  C   UNL     1     -46.329 -51.612  14.871  1.00  0.00    -0.028 A 
HETATM   21  C   UNL     1     -47.459 -51.452  15.810  1.00  0.00     0.051 C 
HETATM   22  C   UNL     1     -46.344 -51.484  13.463  1.00  0.00     0.115 A 
HETATM   23  N   UNL     1     -45.141 -51.669  12.918  1.00  0.00    -0.310 N 
ATOM     24  HN  UNL     1     -44.881 -51.624  11.932  1.00  0.00     0.186 HD
ENDBRANCH  17  18
ENDBRANCH  15  17
ENDBRANCH  13  15
ENDBRANCH  12  13
ENDBRANCH   1  12
BRANCH  11  25
HETATM   25  C   UNL     1     -38.505 -49.373  12.270  1.00  0.00     0.156 C 
BRANCH  25  26
HETATM   26  C   UNL     1     -37.515 -49.831  11.202  1.00  0.00     0.184 C 
BRANCH  26  27
HETATM   27  O   UNL     1     -37.265 -51.230  11.284  1.00  0.00    -0.399 OA
HETATM   28  H   UNL     1     -36.396 -51.393  10.874  1.00  0.00     0.209 HD
ENDBRANCH  26  27
ENDBRANCH  25  26
ENDBRANCH  11  25
TORSDOF 8
ENDMDL
MODEL 4
REMARK VINA RESULT:      -6.6      3.505      7.227
REMARK  8 active torsions:
REMARK  status: ('A' for Active; 'I' for Inactive)
REMARK    1  A    between atoms: C_2  and  C_3 
REMARK    2  A    between atoms: C_2  and  N_11 
REMARK    3  A    between atoms: C_3  and  N_4 
REMARK    4  A    between atoms: N_11  and  C_12 
REMARK    5  A    between atoms: C_12  and  C_13 
REMARK    6  A    between atoms: N_23  and  C_24 
REMARK    7  A    between atoms: C_24  and  C_25 
REMARK    8  A    between atoms: C_25  and  O_26 
ROOT
HETATM    1  C   UNL     1     -41.223 -47.478  11.396  1.00  0.00     0.113 A 
HETATM    2  N   UNL     1     -42.334 -48.186  11.403  1.00  0.00    -0.342 N 
ATOM      3  HN  UNL     1     -42.504 -49.055  11.910  1.00  0.00     0.167 HD
HETATM    4  C   UNL     1     -43.212 -47.519  10.593  1.00  0.00     0.062 A 
HETATM    5  C   UNL     1     -44.539 -47.841  10.279  1.00  0.00     0.055 A 
HETATM    6  C   UNL     1     -45.236 -46.991   9.418  1.00  0.00     0.036 A 
HETATM    7 CL   UNL     1     -46.871 -47.358   9.018  1.00  0.00    -0.084 Cl
HETATM    8  C   UNL     1     -44.635 -45.855   8.876  1.00  0.00     0.026 A 
HETATM    9  C   UNL     1     -43.308 -45.526   9.180  1.00  0.00     0.034 A 
HETATM   10  C   UNL     1     -42.623 -46.379  10.052  1.00  0.00     0.062 A 
HETATM   11  N   UNL     1     -41.348 -46.373  10.577  1.00  0.00    -0.331 N 
ENDROOT
BRANCH   1  12
HETATM   12  C   UNL     1     -39.986 -47.844  12.155  1.00  0.00     0.346 C 
BRANCH  12  13
HETATM   13  N   UNL     1     -39.029 -48.474  11.240  1.00  0.00     0.096 N 
HETATM   14  H   UNL     1     -39.403 -48.334  10.295  1.00  0.00     0.316 HD
BRANCH  13  15
HETATM   15  C   UNL     1     -38.873 -49.927  11.475  1.00  0.00     0.236 C 
HETATM   16  C   UNL     1     -37.368 -50.224  11.410  1.00  0.00     0.044 C 
BRANCH  15  17
HETATM   17  C   UNL     1     -39.469 -50.349  12.833  1.00  0.00     0.183 C 
BRANCH  17  18
HETATM   18  N   UNL     1     -40.427 -51.431  12.765  1.00  0.00    -0.301 N 
HETATM   19  C   UNL     1     -40.616 -52.401  13.704  1.00  0.00     0.118 A 
HETATM   20  C   UNL     1     -41.704 -53.137  13.285  1.00  0.00    -0.028 A 
HETATM   21  C   UNL     1     -42.335 -54.292  13.958  1.00  0.00     0.051 C 
HETATM   22  C   UNL     1     -42.088 -52.520  12.072  1.00  0.00     0.115 A 
HETATM   23  N   UNL     1     -41.316 -51.478  11.759  1.00  0.00    -0.310 N 
ATOM     24  HN  UNL     1     -41.385 -50.863  10.948  1.00  0.00     0.186 HD
ENDBRANCH  17  18
ENDBRANCH  15  17
ENDBRANCH  13  15
ENDBRANCH  12  13
ENDBRANCH   1  12
BRANCH  11  25
HETATM   25  C   UNL     1     -40.351 -45.340  10.345  1.00  0.00     0.156 C 
BRANCH  25  26
HETATM   26  C   UNL     1     -40.512 -44.114  11.239  1.00  0.00     0.184 C 
BRANCH  26  27
HETATM   27  O   UNL     1     -40.678 -42.925  10.474  1.00  0.00    -0.399 OA
HETATM   28  H   UNL     1     -41.292 -43.133   9.746  1.00  0.00     0.209 HD
ENDBRANCH  26  27
ENDBRANCH  25  26
ENDBRANCH  11  25
TORSDOF 8
ENDMDL
MODEL 5
REMARK VINA RESULT:      -6.4      3.104      4.426
REMARK  8 active torsions:
REMARK  status: ('A' for Active; 'I' for Inactive)
REMARK    1  A    between atoms: C_2  and  C_3 
REMARK    2  A    between atoms: C_2  and  N_11 
REMARK    3  A    between atoms: C_3  and  N_4 
REMARK    4  A    between atoms: N_11  and  C_12 
REMARK    5  A    between atoms: C_12  and  C_13 
REMARK    6  A    between atoms: N_23  and  C_24 
REMARK    7  A    between atoms: C_24  and  C_25 
REMARK    8  A    between atoms: C_25  and  O_26 
ROOT
HETATM    1  C   UNL     1     -40.227 -49.343  12.071  1.00  0.00     0.113 A 
HETATM    2  N   UNL     1     -39.068 -48.798  12.380  1.00  0.00    -0.342 N 
ATOM      3  HN  UNL     1     -38.600 -48.033  11.894  1.00  0.00     0.167 HD
HETATM    4  C   UNL     1     -38.620 -49.467  13.487  1.00  0.00     0.062 A 
HETATM    5  C   UNL     1     -37.447 -49.262  14.225  1.00  0.00     0.055 A 
HETATM    6  C   UNL     1     -37.212 -50.083  15.329  1.00  0.00     0.036 A 
HETATM    7 CL   UNL     1     -35.780 -49.852  16.258  1.00  0.00    -0.084 Cl
HETATM    8  C   UNL     1     -38.110 -51.087  15.691  1.00  0.00     0.026 A 
HETATM    9  C   UNL     1     -39.284 -51.303  14.959  1.00  0.00     0.034 A 
HETATM   10  C   UNL     1     -39.514 -50.467  13.861  1.00  0.00     0.062 A 
HETATM   11  N   UNL     1     -40.535 -50.372  12.939  1.00  0.00    -0.331 N 
ENDROOT
BRANCH   1  12
HETATM   12  C   UNL     1     -41.076 -48.916  10.915  1.00  0.00     0.346 C 
BRANCH  12  13
HETATM   13  N   UNL     1     -40.722 -47.543  10.539  1.00  0.00     0.096 N 
HETATM   14  H   UNL     1     -39.796 -47.366  10.944  1.00  0.00     0.316 HD
BRANCH  13  15
HETATM   15  C   UNL     1     -41.669 -46.535  11.066  1.00  0.00     0.236 C 
HETATM   16  C   UNL     1     -40.826 -45.484  11.802  1.00  0.00     0.044 C 
BRANCH  15  17
HETATM   17  C   UNL     1     -42.502 -45.895   9.939  1.00  0.00     0.183 C 
BRANCH  17  18
HETATM   18  N   UNL     1     -43.404 -46.800   9.261  1.00  0.00    -0.301 N 
HETATM   19  C   UNL     1     -44.670 -47.121   9.653  1.00  0.00     0.118 A 
HETATM   20  C   UNL     1     -45.196 -47.910   8.653  1.00  0.00    -0.028 A 
HETATM   21  C   UNL     1     -46.546 -48.505   8.578  1.00  0.00     0.051 C 
HETATM   22  C   UNL     1     -44.150 -48.005   7.706  1.00  0.00     0.115 A 
HETATM   23  N   UNL     1     -43.063 -47.324   8.072  1.00  0.00    -0.310 N 
ATOM     24  HN  UNL     1     -42.181 -47.225   7.569  1.00  0.00     0.186 HD
ENDBRANCH  17  18
ENDBRANCH  15  17
ENDBRANCH  13  15
ENDBRANCH  12  13
ENDBRANCH   1  12
BRANCH  11  25
HETATM   25  C   UNL     1     -41.742 -51.182  12.939  1.00  0.00     0.156 C 
BRANCH  25  26
HETATM   26  C   UNL     1     -41.541 -52.592  12.391  1.00  0.00     0.184 C 
BRANCH  26  27
HETATM   27  O   UNL     1     -41.239 -52.575  11.000  1.00  0.00    -0.399 OA
HETATM   28  H   UNL     1     -40.288 -52.377  10.913  1.00  0.00     0.209 HD
ENDBRANCH  26  27
ENDBRANCH  25  26
ENDBRANCH  11  25
TORSDOF 8
ENDMDL
MODEL 6
REMARK VINA RESULT:      -6.4      2.293      3.730
REMARK  8 active torsions:
REMARK  status: ('A' for Active; 'I' for Inactive)
REMARK    1  A    between atoms: C_2  and  C_3 
REMARK    2  A    between atoms: C_2  and  N_11 
REMARK    3  A    between atoms: C_3  and  N_4 
REMARK    4  A    between atoms: N_11  and  C_12 
REMARK    5  A    between atoms: C_12  and  C_13 
REMARK    6  A    between atoms: N_23  and  C_24 
REMARK    7  A    between atoms: C_24  and  C_25 
REMARK    8  A    between atoms: C_25  and  O_26 
ROOT
HETATM    1  C   UNL     1     -41.127 -50.133  11.824  1.00  0.00     0.113 A 
HETATM    2  N   UNL     1     -42.164 -50.929  11.982  1.00  0.00    -0.342 N 
ATOM      3  HN  UNL     1     -43.074 -50.848  11.529  1.00  0.00     0.167 HD
HETATM    4  C   UNL     1     -41.772 -51.887  12.876  1.00  0.00     0.062 A 
HETATM    5  C   UNL     1     -42.494 -52.983  13.367  1.00  0.00     0.055 A 
HETATM    6  C   UNL     1     -41.865 -53.828  14.283  1.00  0.00     0.036 A 
HETATM    7 CL   UNL     1     -42.727 -55.186  14.900  1.00  0.00    -0.084 Cl
HETATM    8  C   UNL     1     -40.557 -53.594  14.708  1.00  0.00     0.026 A 
HETATM    9  C   UNL     1     -39.827 -52.501  14.226  1.00  0.00     0.034 A 
HETATM   10  C   UNL     1     -40.464 -51.666  13.301  1.00  0.00     0.062 A 
HETATM   11  N   UNL     1     -40.071 -50.536  12.617  1.00  0.00    -0.331 N 
ENDROOT
BRANCH   1  12
HETATM   12  C   UNL     1     -41.113 -48.936  10.925  1.00  0.00     0.346 C 
BRANCH  12  13
HETATM   13  N   UNL     1     -42.490 -48.600  10.550  1.00  0.00     0.096 N 
HETATM   14  H   UNL     1     -42.857 -49.416  10.048  1.00  0.00     0.316 HD
BRANCH  13  15
HETATM   15  C   UNL     1     -42.577 -47.421   9.659  1.00  0.00     0.236 C 
HETATM   16  C   UNL     1     -43.768 -47.665   8.721  1.00  0.00     0.044 C 
BRANCH  15  17
HETATM   17  C   UNL     1     -42.755 -46.116  10.460  1.00  0.00     0.183 C 
BRANCH  17  18
HETATM   18  N   UNL     1     -41.521 -45.443  10.805  1.00  0.00    -0.301 N 
HETATM   19  C   UNL     1     -41.224 -44.867  12.004  1.00  0.00     0.118 A 
HETATM   20  C   UNL     1     -39.910 -44.462  11.923  1.00  0.00    -0.028 A 
HETATM   21  C   UNL     1     -39.095 -43.800  12.964  1.00  0.00     0.051 C 
HETATM   22  C   UNL     1     -39.514 -44.841  10.620  1.00  0.00     0.115 A 
HETATM   23  N   UNL     1     -40.492 -45.444   9.942  1.00  0.00    -0.310 N 
ATOM     24  HN  UNL     1     -40.464 -45.818   8.993  1.00  0.00     0.186 HD
ENDBRANCH  17  18
ENDBRANCH  15  17
ENDBRANCH  13  15
ENDBRANCH  12  13
ENDBRANCH   1  12
BRANCH  11  25
HETATM   25  C   UNL     1     -38.750 -49.931  12.687  1.00  0.00     0.156 C 
BRANCH  25  26
HETATM   26  C   UNL     1     -37.741 -50.537  11.716  1.00  0.00     0.184 C 
BRANCH  26  27
HETATM   27  O   UNL     1     -36.923 -51.514  12.351  1.00  0.00    -0.399 OA
HETATM   28  H   UNL     1     -36.658 -51.151  13.216  1.00  0.00     0.209 HD
ENDBRANCH  26  27
ENDBRANCH  25  26
ENDBRANCH  11  25
TORSDOF 8
ENDMDL
MODEL 7
REMARK VINA RESULT:      -6.2      2.103      2.956
REMARK  8 active torsions:
REMARK  status: ('A' for Active; 'I' for Inactive)
REMARK    1  A    between atoms: C_2  and  C_3 
REMARK    2  A    between atoms: C_2  and  N_11 
REMARK    3  A    between atoms: C_3  and  N_4 
REMARK    4  A    between atoms: N_11  and  C_12 
REMARK    5  A    between atoms: C_12  and  C_13 
REMARK    6  A    between atoms: N_23  and  C_24 
REMARK    7  A    between atoms: C_24  and  C_25 
REMARK    8  A    between atoms: C_25  and  O_26 
ROOT
HETATM    1  C   UNL     1     -41.113 -52.305  12.369  1.00  0.00     0.113 A 
HETATM    2  N   UNL     1     -42.368 -52.431  11.991  1.00  0.00    -0.342 N 
ATOM      3  HN  UNL     1     -42.826 -51.956  11.213  1.00  0.00     0.167 HD
HETATM    4  C   UNL     1     -42.934 -53.328  12.856  1.00  0.00     0.062 A 
HETATM    5  C   UNL     1     -44.244 -53.826  12.876  1.00  0.00     0.055 A 
HETATM    6  C   UNL     1     -44.582 -54.746  13.870  1.00  0.00     0.036 A 
HETATM    7 CL   UNL     1     -46.183 -55.379  13.918  1.00  0.00    -0.084 Cl
HETATM    8  C   UNL     1     -43.652 -55.160  14.824  1.00  0.00     0.026 A 
HETATM    9  C   UNL     1     -42.341 -54.667  14.814  1.00  0.00     0.034 A 
HETATM   10  C   UNL     1     -42.010 -53.753  13.808  1.00  0.00     0.062 A 
HETATM   11  N   UNL     1     -40.851 -53.083  13.480  1.00  0.00    -0.331 N 
ENDROOT
BRANCH   1  12
HETATM   12  C   UNL     1     -40.117 -51.413  11.697  1.00  0.00     0.346 C 
BRANCH  12  13
HETATM   13  N   UNL     1     -40.828 -50.329  11.010  1.00  0.00     0.096 N 
HETATM   14  H   UNL     1     -40.471 -50.318  10.048  1.00  0.00     0.316 HD
BRANCH  13  15
HETATM   15  C   UNL     1     -40.586 -49.001  11.618  1.00  0.00     0.236 C 
HETATM   16  C   UNL     1     -39.063 -48.831  11.713  1.00  0.00     0.044 C 
BRANCH  15  17
HETATM   17  C   UNL     1     -41.223 -47.871  10.785  1.00  0.00     0.183 C 
BRANCH  17  18
HETATM   18  N   UNL     1     -40.680 -46.553  11.032  1.00  0.00    -0.301 N 
HETATM   19  C   UNL     1     -40.599 -45.927  12.240  1.00  0.00     0.118 A 
HETATM   20  C   UNL     1     -39.905 -44.757  12.023  1.00  0.00    -0.028 A 
HETATM   21  C   UNL     1     -39.528 -43.725  13.012  1.00  0.00     0.051 C 
HETATM   22  C   UNL     1     -39.621 -44.779  10.638  1.00  0.00     0.115 A 
HETATM   23  N   UNL     1     -40.086 -45.875  10.036  1.00  0.00    -0.310 N 
ATOM     24  HN  UNL     1     -40.008 -46.135   9.053  1.00  0.00     0.186 HD
ENDBRANCH  17  18
ENDBRANCH  15  17
ENDBRANCH  13  15
ENDBRANCH  12  13
ENDBRANCH   1  12
BRANCH  11  25
HETATM   25  C   UNL     1     -39.575 -53.234  14.159  1.00  0.00     0.156 C 
BRANCH  25  26
HETATM   26  C   UNL     1     -38.853 -54.539  13.834  1.00  0.00     0.184 C 
BRANCH  26  27
HETATM   27  O   UNL     1     -38.707 -55.359  14.988  1.00  0.00    -0.399 OA
HETATM   28  H   UNL     1     -37.886 -55.873  14.876  1.00  0.00     0.209 HD
ENDBRANCH  26  27
ENDBRANCH  25  26
ENDBRANCH  11  25
TORSDOF 8
ENDMDL
MODEL 8
REMARK VINA RESULT:      -6.2      3.027      6.607
REMARK  8 active torsions:
REMARK  status: ('A' for Active; 'I' for Inactive)
REMARK    1  A    between atoms: C_2  and  C_3 
REMARK    2  A    between atoms: C_2  and  N_11 
REMARK    3  A    between atoms: C_3  and  N_4 
REMARK    4  A    between atoms: N_11  and  C_12 
REMARK    5  A    between atoms: C_12  and  C_13 
REMARK    6  A    between atoms: N_23  and  C_24 
REMARK    7  A    between atoms: C_24  and  C_25 
REMARK    8  A    between atoms: C_25  and  O_26 
ROOT
HETATM    1  C   UNL     1     -39.972 -49.193  11.564  1.00  0.00     0.113 A 
HETATM    2  N   UNL     1     -40.890 -49.350  10.633  1.00  0.00    -0.342 N 
ATOM      3  HN  UNL     1     -41.080 -50.195  10.094  1.00  0.00     0.167 HD
HETATM    4  C   UNL     1     -41.538 -48.148  10.536  1.00  0.00     0.062 A 
HETATM    5  C   UNL     1     -42.612 -47.790   9.710  1.00  0.00     0.055 A 
HETATM    6  C   UNL     1     -43.104 -46.487   9.799  1.00  0.00     0.036 A 
HETATM    7 CL   UNL     1     -44.427 -46.020   8.798  1.00  0.00    -0.084 Cl
HETATM    8  C   UNL     1     -42.546 -45.558  10.677  1.00  0.00     0.026 A 
HETATM    9  C   UNL     1     -41.471 -45.904  11.505  1.00  0.00     0.034 A 
HETATM   10  C   UNL     1     -40.992 -47.215  11.415  1.00  0.00     0.062 A 
HETATM   11  N   UNL     1     -39.989 -47.905  12.061  1.00  0.00    -0.331 N 
ENDROOT
BRANCH   1  12
HETATM   12  C   UNL     1     -39.022 -50.265  11.998  1.00  0.00     0.346 C 
BRANCH  12  13
HETATM   13  N   UNL     1     -39.470 -50.814  13.282  1.00  0.00     0.096 N 
HETATM   14  H   UNL     1     -38.625 -51.130  13.769  1.00  0.00     0.316 HD
BRANCH  13  15
HETATM   15  C   UNL     1     -40.386 -51.968  13.130  1.00  0.00     0.236 C 
HETATM   16  C   UNL     1     -39.717 -53.155  13.838  1.00  0.00     0.044 C 
BRANCH  15  17
HETATM   17  C   UNL     1     -41.776 -51.672  13.726  1.00  0.00     0.183 C 
BRANCH  17  18
HETATM   18  N   UNL     1     -42.799 -52.638  13.390  1.00  0.00    -0.301 N 
HETATM   19  C   UNL     1     -43.484 -53.426  14.266  1.00  0.00     0.118 A 
HETATM   20  C   UNL     1     -44.436 -54.091  13.525  1.00  0.00    -0.028 A 
HETATM   21  C   UNL     1     -45.453 -55.052  14.002  1.00  0.00     0.051 C 
HETATM   22  C   UNL     1     -44.228 -53.628  12.205  1.00  0.00     0.115 A 
HETATM   23  N   UNL     1     -43.237 -52.739  12.124  1.00  0.00    -0.310 N 
ATOM     24  HN  UNL     1     -42.894 -52.251  11.296  1.00  0.00     0.186 HD
ENDBRANCH  17  18
ENDBRANCH  15  17
ENDBRANCH  13  15
ENDBRANCH  12  13
ENDBRANCH   1  12
BRANCH  11  25
HETATM   25  C   UNL     1     -39.151 -47.367  13.121  1.00  0.00     0.156 C 
BRANCH  25  26
HETATM   26  C   UNL     1     -39.815 -47.373  14.496  1.00  0.00     0.184 C 
BRANCH  26  27
HETATM   27  O   UNL     1     -39.581 -48.596  15.185  1.00  0.00    -0.399 OA
HETATM   28  H   UNL     1     -38.700 -48.916  14.917  1.00  0.00     0.209 HD
ENDBRANCH  26  27
ENDBRANCH  25  26
ENDBRANCH  11  25
TORSDOF 8
ENDMDL
MODEL 9
REMARK VINA RESULT:      -6.1      3.711      5.628
REMARK  8 active torsions:
REMARK  status: ('A' for Active; 'I' for Inactive)
REMARK    1  A    between atoms: C_2  and  C_3 
REMARK    2  A    between atoms: C_2  and  N_11 
REMARK    3  A    between atoms: C_3  and  N_4 
REMARK    4  A    between atoms: N_11  and  C_12 
REMARK    5  A    between atoms: C_12  and  C_13 
REMARK    6  A    between atoms: N_23  and  C_24 
REMARK    7  A    between atoms: C_24  and  C_25 
REMARK    8  A    between atoms: C_25  and  O_26 
ROOT
HETATM    1  C   UNL     1     -43.416 -54.332  15.172  1.00  0.00     0.113 A 
HETATM    2  N   UNL     1     -43.729 -54.343  13.893  1.00  0.00    -0.342 N 
ATOM      3  HN  UNL     1     -43.322 -54.931  13.166  1.00  0.00     0.167 HD
HETATM    4  C   UNL     1     -44.713 -53.404  13.738  1.00  0.00     0.062 A 
HETATM    5  C   UNL     1     -45.406 -53.038  12.576  1.00  0.00     0.055 A 
HETATM    6  C   UNL     1     -46.379 -52.042  12.677  1.00  0.00     0.036 A 
HETATM    7 CL   UNL     1     -47.250 -51.574  11.266  1.00  0.00    -0.084 Cl
HETATM    8  C   UNL     1     -46.656 -51.418  13.893  1.00  0.00     0.026 A 
HETATM    9  C   UNL     1     -45.967 -51.774  15.059  1.00  0.00     0.034 A 
HETATM   10  C   UNL     1     -45.002 -52.780  14.949  1.00  0.00     0.062 A 
HETATM   11  N   UNL     1     -44.158 -53.388  15.854  1.00  0.00    -0.331 N 
ENDROOT
BRANCH   1  12
HETATM   12  C   UNL     1     -42.374 -55.211  15.791  1.00  0.00     0.346 C 
BRANCH  12  13
HETATM   13  N   UNL     1     -41.066 -54.884  15.214  1.00  0.00     0.096 N 
HETATM   14  H   UNL     1     -40.478 -55.714  15.352  1.00  0.00     0.316 HD
BRANCH  13  15
HETATM   15  C   UNL     1     -40.413 -53.730  15.874  1.00  0.00     0.236 C 
HETATM   16  C   UNL     1     -39.309 -54.304  16.772  1.00  0.00     0.044 C 
BRANCH  15  17
HETATM   17  C   UNL     1     -39.838 -52.740  14.843  1.00  0.00     0.183 C 
BRANCH  17  18
HETATM   18  N   UNL     1     -40.822 -52.117  13.983  1.00  0.00    -0.301 N 
HETATM   19  C   UNL     1     -41.697 -51.135  14.338  1.00  0.00     0.118 A 
HETATM   20  C   UNL     1     -42.350 -50.763  13.183  1.00  0.00    -0.028 A 
HETATM   21  C   UNL     1     -43.385 -49.721  13.018  1.00  0.00     0.051 C 
HETATM   22  C   UNL     1     -41.788 -51.597  12.189  1.00  0.00     0.115 A 
HETATM   23  N   UNL     1     -40.853 -52.415  12.674  1.00  0.00    -0.310 N 
ATOM     24  HN  UNL     1     -40.295 -53.105  12.169  1.00  0.00     0.186 HD
ENDBRANCH  17  18
ENDBRANCH  15  17
ENDBRANCH  13  15
ENDBRANCH  12  13
ENDBRANCH   1  12
BRANCH  11  25
HETATM   25  C   UNL     1     -44.120 -53.110  17.281  1.00  0.00     0.156 C 
BRANCH  25  26
HETATM   26  C   UNL     1     -44.955 -54.073  18.120  1.00  0.00     0.184 C 
BRANCH  26  27
HETATM   27  O   UNL     1     -45.941 -54.734  17.334  1.00  0.00    -0.399 OA
HETATM   28  H   UNL     1     -46.640 -54.084  17.139  1.00  0.00     0.209 HD
ENDBRANCH  26  27
ENDBRANCH  25  26
ENDBRANCH  11  25
TORSDOF 8
ENDMDL
