MODEL 1
REMARK VINA RESULT:      -5.7      0.000      0.000
REMARK  6 active torsions:
REMARK  status: ('A' for Active; 'I' for Inactive)
REMARK    1  A    between atoms: C_2  and  N_3 
REMARK    2  A    between atoms: N_6  and  C_7 
REMARK    3  A    between atoms: C_7  and  C_8 
REMARK    4  A    between atoms: C_8  and  O_9 
REMARK    5  A    between atoms: C_8  and  C_10 
REMARK    6  A    between atoms: C_10  and  N_11 
ROOT
HETATM    1  N   UNL     1     -39.208 -50.011  12.287  1.00  0.00    -0.298 N 
HETATM    2  C   UNL     1     -39.608 -51.232  12.850  1.00  0.00     0.330 A 
HETATM    3  O   UNL     1     -38.862 -52.164  13.109  1.00  0.00    -0.246 OA
HETATM    4  N   UNL     1     -40.998 -51.148  13.072  1.00  0.00    -0.295 N 
HETATM    5  C   UNL     1     -41.455 -49.937  12.521  1.00  0.00     0.066 A 
HETATM    6  C   UNL     1     -42.736 -49.438  12.401  1.00  0.00     0.032 A 
HETATM    7  C   UNL     1     -42.882 -48.201  11.765  1.00  0.00     0.002 A 
HETATM    8  C   UNL     1     -41.760 -47.488  11.297  1.00  0.00     0.002 A 
HETATM    9  C   UNL     1     -40.468 -47.999  11.452  1.00  0.00     0.032 A 
HETATM   10  C   UNL     1     -40.344 -49.231  12.053  1.00  0.00     0.065 A 
ENDROOT
BRANCH   4  11
HETATM   11  C   UNL     1     -41.869 -52.092  13.753  1.00  0.00     0.167 C 
BRANCH  11  12
HETATM   12  C   UNL     1     -42.399 -53.293  12.946  1.00  0.00     0.164 C 
BRANCH  12  13
HETATM   13  O   UNL     1     -41.305 -54.050  12.426  1.00  0.00    -0.392 OA
HETATM   14  H   UNL     1     -40.830 -53.444  11.816  1.00  0.00     0.210 HD
ENDBRANCH  12  13
BRANCH  12  15
HETATM   15  C   UNL     1     -43.425 -54.157  13.734  1.00  0.00     0.305 C 
BRANCH  15  16
HETATM   16  N   UNL     1     -44.715 -54.351  13.040  1.00  0.00     0.095 N 
HETATM   17  C   UNL     1     -45.357 -53.081  12.654  1.00  0.00     0.298 C 
HETATM   18  C   UNL     1     -45.881 -52.286  13.861  1.00  0.00     0.198 C 
HETATM   19  O   UNL     1     -46.800 -53.060  14.643  1.00  0.00    -0.388 OA
HETATM   20  C   UNL     1     -46.214 -54.299  15.067  1.00  0.00     0.198 C 
HETATM   21  C   UNL     1     -45.671 -55.109  13.876  1.00  0.00     0.298 C 
ENDBRANCH  15  16
ENDBRANCH  12  15
ENDBRANCH  11  12
ENDBRANCH   4  11
BRANCH   1  22
HETATM   22  C   UNL     1     -37.836 -49.587  12.197  1.00  0.00     0.130 C 
HETATM   23  C   UNL     1     -37.213 -50.008  10.871  1.00  0.00     0.027 C 
ENDBRANCH   1  22
TORSDOF 6
ENDMDL
MODEL 2
REMARK VINA RESULT:      -5.6      1.236      2.808
REMARK  6 active torsions:
REMARK  status: ('A' for Active; 'I' for Inactive)
REMARK    1  A    between atoms: C_2  and  N_3 
REMARK    2  A    between atoms: N_6  and  C_7 
REMARK    3  A    between atoms: C_7  and  C_8 
REMARK    4  A    between atoms: C_8  and  O_9 
REMARK    5  A    between atoms: C_8  and  C_10 
REMARK    6  A    between atoms: C_10  and  N_11 
ROOT
HETATM    1  N   UNL     1     -41.127 -49.252  11.686  1.00  0.00    -0.298 N 
HETATM    2  C   UNL     1     -42.018 -50.036  12.435  1.00  0.00     0.330 A 
HETATM    3  O   UNL     1     -43.224 -49.853  12.507  1.00  0.00    -0.246 OA
HETATM    4  N   UNL     1     -41.259 -51.058  13.041  1.00  0.00    -0.295 N 
HETATM    5  C   UNL     1     -39.901 -50.811  12.769  1.00  0.00     0.066 A 
HETATM    6  C   UNL     1     -38.769 -51.466  13.211  1.00  0.00     0.032 A 
HETATM    7  C   UNL     1     -37.535 -50.959  12.792  1.00  0.00     0.002 A 
HETATM    8  C   UNL     1     -37.461 -49.846  11.931  1.00  0.00     0.002 A 
HETATM    9  C   UNL     1     -38.620 -49.213  11.473  1.00  0.00     0.032 A 
HETATM   10  C   UNL     1     -39.826 -49.706  11.919  1.00  0.00     0.065 A 
ENDROOT
BRANCH   4  11
HETATM   11  C   UNL     1     -41.723 -52.202  13.808  1.00  0.00     0.167 C 
BRANCH  11  12
HETATM   12  C   UNL     1     -42.332 -53.388  13.033  1.00  0.00     0.164 C 
BRANCH  12  13
HETATM   13  O   UNL     1     -41.291 -54.241  12.553  1.00  0.00    -0.392 OA
HETATM   14  H   UNL     1     -41.721 -55.102  12.360  1.00  0.00     0.210 HD
ENDBRANCH  12  13
BRANCH  12  15
HETATM   15  C   UNL     1     -43.427 -54.147  13.834  1.00  0.00     0.305 C 
BRANCH  15  16
HETATM   16  N   UNL     1     -44.687 -54.358  13.091  1.00  0.00     0.095 N 
HETATM   17  C   UNL     1     -45.315 -53.097  12.656  1.00  0.00     0.298 C 
HETATM   18  C   UNL     1     -45.890 -52.281  13.825  1.00  0.00     0.198 C 
HETATM   19  O   UNL     1     -46.839 -53.043  14.582  1.00  0.00    -0.388 OA
HETATM   20  C   UNL     1     -46.269 -54.273  15.053  1.00  0.00     0.198 C 
HETATM   21  C   UNL     1     -45.676 -55.102  13.901  1.00  0.00     0.298 C 
ENDBRANCH  15  16
ENDBRANCH  12  15
ENDBRANCH  11  12
ENDBRANCH   4  11
BRANCH   1  22
HETATM   22  C   UNL     1     -41.547 -48.304  10.687  1.00  0.00     0.130 C 
HETATM   23  C   UNL     1     -41.453 -46.875  11.208  1.00  0.00     0.027 C 
ENDBRANCH   1  22
TORSDOF 6
ENDMDL
MODEL 3
REMARK VINA RESULT:      -5.6      3.074      4.787
REMARK  6 active torsions:
REMARK  status: ('A' for Active; 'I' for Inactive)
REMARK    1  A    between atoms: C_2  and  N_3 
REMARK    2  A    between atoms: N_6  and  C_7 
REMARK    3  A    between atoms: C_7  and  C_8 
REMARK    4  A    between atoms: C_8  and  O_9 
REMARK    5  A    between atoms: C_8  and  C_10 
REMARK    6  A    between atoms: C_10  and  N_11 
ROOT
HETATM    1  N   UNL     1     -41.044 -45.990  10.650  1.00  0.00    -0.298 N 
HETATM    2  C   UNL     1     -40.657 -47.160  11.321  1.00  0.00     0.330 A 
HETATM    3  O   UNL     1     -39.554 -47.358  11.808  1.00  0.00    -0.246 OA
HETATM    4  N   UNL     1     -41.780 -48.013  11.342  1.00  0.00    -0.295 N 
HETATM    5  C   UNL     1     -42.793 -47.419  10.569  1.00  0.00     0.066 A 
HETATM    6  C   UNL     1     -44.037 -47.896  10.209  1.00  0.00     0.032 A 
HETATM    7  C   UNL     1     -44.822 -47.077   9.391  1.00  0.00     0.002 A 
HETATM    8  C   UNL     1     -44.365 -45.809   8.980  1.00  0.00     0.002 A 
HETATM    9  C   UNL     1     -43.112 -45.332   9.377  1.00  0.00     0.032 A 
HETATM   10  C   UNL     1     -42.340 -46.163  10.158  1.00  0.00     0.065 A 
ENDROOT
BRANCH   4  11
HETATM   11  C   UNL     1     -41.943 -49.284  12.028  1.00  0.00     0.167 C 
BRANCH  11  12
HETATM   12  C   UNL     1     -41.066 -50.467  11.570  1.00  0.00     0.164 C 
BRANCH  12  13
HETATM   13  O   UNL     1     -40.388 -50.129  10.359  1.00  0.00    -0.392 OA
HETATM   14  H   UNL     1     -40.029 -50.974  10.011  1.00  0.00     0.210 HD
ENDBRANCH  12  13
BRANCH  12  15
HETATM   15  C   UNL     1     -40.114 -50.992  12.681  1.00  0.00     0.305 C 
BRANCH  15  16
HETATM   16  N   UNL     1     -40.802 -51.660  13.806  1.00  0.00     0.095 N 
HETATM   17  C   UNL     1     -39.869 -52.205  14.809  1.00  0.00     0.298 C 
HETATM   18  C   UNL     1     -39.079 -53.418  14.292  1.00  0.00     0.198 C 
HETATM   19  O   UNL     1     -39.951 -54.463  13.843  1.00  0.00    -0.388 OA
HETATM   20  C   UNL     1     -40.866 -53.989  12.844  1.00  0.00     0.198 C 
HETATM   21  C   UNL     1     -41.662 -52.767  13.334  1.00  0.00     0.298 C 
ENDBRANCH  15  16
ENDBRANCH  12  15
ENDBRANCH  11  12
ENDBRANCH   4  11
BRANCH   1  22
HETATM   22  C   UNL     1     -40.288 -44.766  10.684  1.00  0.00     0.130 C 
HETATM   23  C   UNL     1     -39.221 -44.743   9.597  1.00  0.00     0.027 C 
ENDBRANCH   1  22
TORSDOF 6
ENDMDL
MODEL 4
REMARK VINA RESULT:      -5.6      2.125      6.317
REMARK  6 active torsions:
REMARK  status: ('A' for Active; 'I' for Inactive)
REMARK    1  A    between atoms: C_2  and  N_3 
REMARK    2  A    between atoms: N_6  and  C_7 
REMARK    3  A    between atoms: C_7  and  C_8 
REMARK    4  A    between atoms: C_8  and  O_9 
REMARK    5  A    between atoms: C_8  and  C_10 
REMARK    6  A    between atoms: C_10  and  N_11 
ROOT
HETATM    1  N   UNL     1     -43.733 -52.509  16.183  1.00  0.00    -0.298 N 
HETATM    2  C   UNL     1     -42.647 -52.963  15.419  1.00  0.00     0.330 A 
HETATM    3  O   UNL     1     -41.549 -53.261  15.867  1.00  0.00    -0.246 OA
HETATM    4  N   UNL     1     -43.083 -53.028  14.080  1.00  0.00    -0.295 N 
HETATM    5  C   UNL     1     -44.380 -52.487  14.017  1.00  0.00     0.066 A 
HETATM    6  C   UNL     1     -45.195 -52.246  12.930  1.00  0.00     0.032 A 
HETATM    7  C   UNL     1     -46.438 -51.658  13.183  1.00  0.00     0.002 A 
HETATM    8  C   UNL     1     -46.845 -51.356  14.498  1.00  0.00     0.002 A 
HETATM    9  C   UNL     1     -46.016 -51.633  15.588  1.00  0.00     0.032 A 
HETATM   10  C   UNL     1     -44.783 -52.184  15.320  1.00  0.00     0.065 A 
ENDROOT
BRANCH   4  11
HETATM   11  C   UNL     1     -42.385 -53.560  12.921  1.00  0.00     0.167 C 
BRANCH  11  12
HETATM   12  C   UNL     1     -41.087 -52.855  12.477  1.00  0.00     0.164 C 
BRANCH  12  13
HETATM   13  O   UNL     1     -40.567 -53.487  11.306  1.00  0.00    -0.392 OA
HETATM   14  H   UNL     1     -41.349 -53.712  10.757  1.00  0.00     0.210 HD
ENDBRANCH  12  13
BRANCH  12  15
HETATM   15  C   UNL     1     -41.246 -51.316  12.325  1.00  0.00     0.305 C 
BRANCH  15  16
HETATM   16  N   UNL     1     -40.491 -50.526  13.321  1.00  0.00     0.095 N 
HETATM   17  C   UNL     1     -40.548 -49.075  13.066  1.00  0.00     0.298 C 
HETATM   18  C   UNL     1     -39.756 -48.656  11.817  1.00  0.00     0.198 C 
HETATM   19  O   UNL     1     -38.385 -49.067  11.901  1.00  0.00    -0.388 OA
HETATM   20  C   UNL     1     -38.273 -50.480  12.124  1.00  0.00     0.198 C 
HETATM   21  C   UNL     1     -39.068 -50.925  13.363  1.00  0.00     0.298 C 
ENDBRANCH  15  16
ENDBRANCH  12  15
ENDBRANCH  11  12
ENDBRANCH   4  11
BRANCH   1  22
HETATM   22  C   UNL     1     -43.790 -52.597  17.618  1.00  0.00     0.130 C 
HETATM   23  C   UNL     1     -44.328 -53.950  18.069  1.00  0.00     0.027 C 
ENDBRANCH   1  22
TORSDOF 6
ENDMDL
MODEL 5
REMARK VINA RESULT:      -5.6      2.841      6.183
REMARK  6 active torsions:
REMARK  status: ('A' for Active; 'I' for Inactive)
REMARK    1  A    between atoms: C_2  and  N_3 
REMARK    2  A    between atoms: N_6  and  C_7 
REMARK    3  A    between atoms: C_7  and  C_8 
REMARK    4  A    between atoms: C_8  and  O_9 
REMARK    5  A    between atoms: C_8  and  C_10 
REMARK    6  A    between atoms: C_10  and  N_11 
ROOT
HETATM    1  N   UNL     1     -40.936 -53.144  13.569  1.00  0.00    -0.298 N 
HETATM    2  C   UNL     1     -40.653 -51.801  13.276  1.00  0.00     0.330 A 
HETATM    3  O   UNL     1     -39.546 -51.288  13.334  1.00  0.00    -0.246 OA
HETATM    4  N   UNL     1     -41.868 -51.201  12.884  1.00  0.00    -0.295 N 
HETATM    5  C   UNL     1     -42.898 -52.139  13.072  1.00  0.00     0.066 A 
HETATM    6  C   UNL     1     -44.264 -52.007  12.923  1.00  0.00     0.032 A 
HETATM    7  C   UNL     1     -45.049 -53.125  13.222  1.00  0.00     0.002 A 
HETATM    8  C   UNL     1     -44.460 -54.339  13.628  1.00  0.00     0.002 A 
HETATM    9  C   UNL     1     -43.073 -54.461  13.748  1.00  0.00     0.032 A 
HETATM   10  C   UNL     1     -42.316 -53.342  13.479  1.00  0.00     0.065 A 
ENDROOT
BRANCH   4  11
HETATM   11  C   UNL     1     -42.093 -49.866  12.356  1.00  0.00     0.167 C 
BRANCH  11  12
HETATM   12  C   UNL     1     -41.103 -49.333  11.300  1.00  0.00     0.164 C 
BRANCH  12  13
HETATM   13  O   UNL     1     -40.589 -50.418  10.525  1.00  0.00    -0.392 OA
HETATM   14  H   UNL     1     -40.304 -50.023   9.673  1.00  0.00     0.210 HD
ENDBRANCH  12  13
BRANCH  12  15
HETATM   15  C   UNL     1     -41.689 -48.183  10.434  1.00  0.00     0.305 C 
BRANCH  15  16
HETATM   16  N   UNL     1     -42.917 -47.572  10.985  1.00  0.00     0.095 N 
HETATM   17  C   UNL     1     -43.959 -47.355   9.964  1.00  0.00     0.298 C 
HETATM   18  C   UNL     1     -43.596 -46.243   8.968  1.00  0.00     0.198 C 
HETATM   19  O   UNL     1     -43.326 -45.004   9.636  1.00  0.00    -0.388 OA
HETATM   20  C   UNL     1     -42.298 -45.155  10.626  1.00  0.00     0.198 C 
HETATM   21  C   UNL     1     -42.633 -46.272  11.629  1.00  0.00     0.298 C 
ENDBRANCH  15  16
ENDBRANCH  12  15
ENDBRANCH  11  12
ENDBRANCH   4  11
BRANCH   1  22
HETATM   22  C   UNL     1     -39.924 -54.158  13.709  1.00  0.00     0.130 C 
HETATM   23  C   UNL     1     -39.576 -54.394  15.174  1.00  0.00     0.027 C 
ENDBRANCH   1  22
TORSDOF 6
ENDMDL
MODEL 6
REMARK VINA RESULT:      -5.5      2.494      6.196
REMARK  6 active torsions:
REMARK  status: ('A' for Active; 'I' for Inactive)
REMARK    1  A    between atoms: C_2  and  N_3 
REMARK    2  A    between atoms: N_6  and  C_7 
REMARK    3  A    between atoms: C_7  and  C_8 
REMARK    4  A    between atoms: C_8  and  O_9 
REMARK    5  A    between atoms: C_8  and  C_10 
REMARK    6  A    between atoms: C_10  and  N_11 
ROOT
HETATM    1  N   UNL     1     -41.143 -54.352  14.883  1.00  0.00    -0.298 N 
HETATM    2  C   UNL     1     -40.406 -53.455  14.096  1.00  0.00     0.330 A 
HETATM    3  O   UNL     1     -39.248 -53.124  14.305  1.00  0.00    -0.246 OA
HETATM    4  N   UNL     1     -41.244 -53.054  13.034  1.00  0.00    -0.295 N 
HETATM    5  C   UNL     1     -42.520 -53.600  13.257  1.00  0.00     0.066 A 
HETATM    6  C   UNL     1     -43.699 -53.427  12.559  1.00  0.00     0.032 A 
HETATM    7  C   UNL     1     -44.832 -54.083  13.050  1.00  0.00     0.002 A 
HETATM    8  C   UNL     1     -44.758 -54.908  14.191  1.00  0.00     0.002 A 
HETATM    9  C   UNL     1     -43.549 -55.091  14.868  1.00  0.00     0.032 A 
HETATM   10  C   UNL     1     -42.449 -54.414  14.390  1.00  0.00     0.065 A 
ENDROOT
BRANCH   4  11
HETATM   11  C   UNL     1     -40.916 -52.240  11.875  1.00  0.00     0.167 C 
BRANCH  11  12
HETATM   12  C   UNL     1     -40.071 -50.971  12.103  1.00  0.00     0.164 C 
BRANCH  12  13
HETATM   13  O   UNL     1     -38.681 -51.295  12.048  1.00  0.00    -0.392 OA
HETATM   14  H   UNL     1     -38.224 -50.461  11.802  1.00  0.00     0.210 HD
ENDBRANCH  12  13
BRANCH  12  15
HETATM   15  C   UNL     1     -40.466 -49.794  11.166  1.00  0.00     0.305 C 
BRANCH  15  16
HETATM   16  N   UNL     1     -41.774 -49.182  11.478  1.00  0.00     0.095 N 
HETATM   17  C   UNL     1     -42.134 -48.092  10.552  1.00  0.00     0.298 C 
HETATM   18  C   UNL     1     -41.262 -46.839  10.737  1.00  0.00     0.198 C 
HETATM   19  O   UNL     1     -41.319 -46.352  12.084  1.00  0.00    -0.388 OA
HETATM   20  C   UNL     1     -40.953 -47.370  13.027  1.00  0.00     0.198 C 
HETATM   21  C   UNL     1     -41.805 -48.639  12.854  1.00  0.00     0.298 C 
ENDBRANCH  15  16
ENDBRANCH  12  15
ENDBRANCH  11  12
ENDBRANCH   4  11
BRANCH   1  22
HETATM   22  C   UNL     1     -40.553 -55.211  15.876  1.00  0.00     0.130 C 
HETATM   23  C   UNL     1     -40.673 -54.608  17.271  1.00  0.00     0.027 C 
ENDBRANCH   1  22
TORSDOF 6
ENDMDL
MODEL 7
REMARK VINA RESULT:      -5.5      2.288      6.708
REMARK  6 active torsions:
REMARK  status: ('A' for Active; 'I' for Inactive)
REMARK    1  A    between atoms: C_2  and  N_3 
REMARK    2  A    between atoms: N_6  and  C_7 
REMARK    3  A    between atoms: C_7  and  C_8 
REMARK    4  A    between atoms: C_8  and  O_9 
REMARK    5  A    between atoms: C_8  and  C_10 
REMARK    6  A    between atoms: C_10  and  N_11 
ROOT
HETATM    1  N   UNL     1     -44.622 -51.200  15.047  1.00  0.00    -0.298 N 
HETATM    2  C   UNL     1     -43.672 -50.816  14.089  1.00  0.00     0.330 A 
HETATM    3  O   UNL     1     -43.168 -49.706  14.004  1.00  0.00    -0.246 OA
HETATM    4  N   UNL     1     -43.409 -51.950  13.292  1.00  0.00    -0.295 N 
HETATM    5  C   UNL     1     -44.295 -52.970  13.682  1.00  0.00     0.066 A 
HETATM    6  C   UNL     1     -44.496 -54.229  13.151  1.00  0.00     0.032 A 
HETATM    7  C   UNL     1     -45.488 -55.018  13.739  1.00  0.00     0.002 A 
HETATM    8  C   UNL     1     -46.226 -54.552  14.846  1.00  0.00     0.002 A 
HETATM    9  C   UNL     1     -45.990 -53.285  15.386  1.00  0.00     0.032 A 
HETATM   10  C   UNL     1     -45.030 -52.509  14.776  1.00  0.00     0.065 A 
ENDROOT
BRANCH   4  11
HETATM   11  C   UNL     1     -42.409 -52.117  12.251  1.00  0.00     0.167 C 
BRANCH  11  12
HETATM   12  C   UNL     1     -41.051 -52.728  12.648  1.00  0.00     0.164 C 
BRANCH  12  13
HETATM   13  O   UNL     1     -40.474 -53.401  11.527  1.00  0.00    -0.392 OA
HETATM   14  H   UNL     1     -41.224 -53.832  11.063  1.00  0.00     0.210 HD
ENDBRANCH  12  13
BRANCH  12  15
HETATM   15  C   UNL     1     -40.088 -51.704  13.313  1.00  0.00     0.305 C 
BRANCH  15  16
HETATM   16  N   UNL     1     -39.145 -51.059  12.375  1.00  0.00     0.095 N 
HETATM   17  C   UNL     1     -37.784 -50.930  12.926  1.00  0.00     0.298 C 
HETATM   18  C   UNL     1     -37.694 -49.898  14.061  1.00  0.00     0.198 C 
HETATM   19  O   UNL     1     -38.156 -48.608  13.638  1.00  0.00    -0.388 OA
HETATM   20  C   UNL     1     -39.491 -48.674  13.115  1.00  0.00     0.198 C 
HETATM   21  C   UNL     1     -39.608 -49.710  11.984  1.00  0.00     0.298 C 
ENDBRANCH  15  16
ENDBRANCH  12  15
ENDBRANCH  11  12
ENDBRANCH   4  11
BRANCH   1  22
HETATM   22  C   UNL     1     -44.924 -50.426  16.223  1.00  0.00     0.130 C 
HETATM   23  C   UNL     1     -43.975 -50.764  17.367  1.00  0.00     0.027 C 
ENDBRANCH   1  22
TORSDOF 6
ENDMDL
MODEL 8
REMARK VINA RESULT:      -5.4      2.140      6.863
REMARK  6 active torsions:
REMARK  status: ('A' for Active; 'I' for Inactive)
REMARK    1  A    between atoms: C_2  and  N_3 
REMARK    2  A    between atoms: N_6  and  C_7 
REMARK    3  A    between atoms: C_7  and  C_8 
REMARK    4  A    between atoms: C_8  and  O_9 
REMARK    5  A    between atoms: C_8  and  C_10 
REMARK    6  A    between atoms: C_10  and  N_11 
ROOT
HETATM    1  N   UNL     1     -44.931 -53.561  14.232  1.00  0.00    -0.298 N 
HETATM    2  C   UNL     1     -44.041 -53.718  13.159  1.00  0.00     0.330 A 
HETATM    3  O   UNL     1     -44.328 -53.564  11.981  1.00  0.00    -0.246 OA
HETATM    4  N   UNL     1     -42.785 -54.047  13.710  1.00  0.00    -0.295 N 
HETATM    5  C   UNL     1     -42.950 -54.223  15.095  1.00  0.00     0.066 A 
HETATM    6  C   UNL     1     -42.048 -54.636  16.056  1.00  0.00     0.032 A 
HETATM    7  C   UNL     1     -42.521 -54.750  17.367  1.00  0.00     0.002 A 
HETATM    8  C   UNL     1     -43.854 -54.425  17.689  1.00  0.00     0.002 A 
HETATM    9  C   UNL     1     -44.744 -53.983  16.706  1.00  0.00     0.032 A 
HETATM   10  C   UNL     1     -44.271 -53.905  15.416  1.00  0.00     0.065 A 
ENDROOT
BRANCH   4  11
HETATM   11  C   UNL     1     -41.505 -54.183  13.035  1.00  0.00     0.167 C 
BRANCH  11  12
HETATM   12  C   UNL     1     -40.902 -52.927  12.376  1.00  0.00     0.164 C 
BRANCH  12  13
HETATM   13  O   UNL     1     -41.495 -52.720  11.092  1.00  0.00    -0.392 OA
HETATM   14  H   UNL     1     -41.826 -51.796  11.099  1.00  0.00     0.210 HD
ENDBRANCH  12  13
BRANCH  12  15
HETATM   15  C   UNL     1     -40.956 -51.668  13.287  1.00  0.00     0.305 C 
BRANCH  15  16
HETATM   16  N   UNL     1     -39.636 -51.070  13.576  1.00  0.00     0.095 N 
HETATM   17  C   UNL     1     -39.709 -49.952  14.535  1.00  0.00     0.298 C 
HETATM   18  C   UNL     1     -40.386 -48.703  13.946  1.00  0.00     0.198 C 
HETATM   19  O   UNL     1     -39.725 -48.259  12.754  1.00  0.00    -0.388 OA
HETATM   20  C   UNL     1     -39.650 -49.305  11.775  1.00  0.00     0.198 C 
HETATM   21  C   UNL     1     -38.986 -50.571  12.344  1.00  0.00     0.298 C 
ENDBRANCH  15  16
ENDBRANCH  12  15
ENDBRANCH  11  12
ENDBRANCH   4  11
BRANCH   1  22
HETATM   22  C   UNL     1     -46.220 -52.933  14.113  1.00  0.00     0.130 C 
HETATM   23  C   UNL     1     -46.116 -51.421  14.265  1.00  0.00     0.027 C 
ENDBRANCH   1  22
TORSDOF 6
ENDMDL
MODEL 9
REMARK VINA RESULT:      -5.4      2.494      7.156
REMARK  6 active torsions:
REMARK  status: ('A' for Active; 'I' for Inactive)
REMARK    1  A    between atoms: C_2  and  N_3 
REMARK    2  A    between atoms: N_6  and  C_7 
REMARK    3  A    between atoms: C_7  and  C_8 
REMARK    4  A    between atoms: C_8  and  O_9 
REMARK    5  A    between atoms: C_8  and  C_10 
REMARK    6  A    between atoms: C_10  and  N_11 
ROOT
HETATM    1  N   UNL     1     -43.506 -54.233  14.136  1.00  0.00    -0.298 N 
HETATM    2  C   UNL     1     -43.143 -53.567  12.956  1.00  0.00     0.330 A 
HETATM    3  O   UNL     1     -43.925 -53.166  12.106  1.00  0.00    -0.246 OA
HETATM    4  N   UNL     1     -41.739 -53.436  12.972  1.00  0.00    -0.295 N 
HETATM    5  C   UNL     1     -41.249 -54.138  14.087  1.00  0.00     0.066 A 
HETATM    6  C   UNL     1     -39.951 -54.384  14.487  1.00  0.00     0.032 A 
HETATM    7  C   UNL     1     -39.774 -55.156  15.639  1.00  0.00     0.002 A 
HETATM    8  C   UNL     1     -40.880 -55.632  16.372  1.00  0.00     0.002 A 
HETATM    9  C   UNL     1     -42.187 -55.350  15.965  1.00  0.00     0.032 A 
HETATM   10  C   UNL     1     -42.344 -54.614  14.812  1.00  0.00     0.065 A 
ENDROOT
BRANCH   4  11
HETATM   11  C   UNL     1     -40.883 -52.708  12.049  1.00  0.00     0.167 C 
BRANCH  11  12
HETATM   12  C   UNL     1     -40.876 -51.169  12.136  1.00  0.00     0.164 C 
BRANCH  12  13
HETATM   13  O   UNL     1     -42.177 -50.659  11.836  1.00  0.00    -0.392 OA
HETATM   14  H   UNL     1     -42.161 -50.439  10.879  1.00  0.00     0.210 HD
ENDBRANCH  12  13
BRANCH  12  15
HETATM   15  C   UNL     1     -40.299 -50.632  13.476  1.00  0.00     0.305 C 
BRANCH  15  16
HETATM   16  N   UNL     1     -38.902 -51.035  13.741  1.00  0.00     0.095 N 
HETATM   17  C   UNL     1     -38.543 -50.959  15.169  1.00  0.00     0.298 C 
HETATM   18  C   UNL     1     -38.451 -49.514  15.686  1.00  0.00     0.198 C 
HETATM   19  O   UNL     1     -37.516 -48.741  14.924  1.00  0.00    -0.388 OA
HETATM   20  C   UNL     1     -37.835 -48.760  13.525  1.00  0.00     0.198 C 
HETATM   21  C   UNL     1     -37.945 -50.197  12.986  1.00  0.00     0.298 C 
ENDBRANCH  15  16
ENDBRANCH  12  15
ENDBRANCH  11  12
ENDBRANCH   4  11
BRANCH   1  22
HETATM   22  C   UNL     1     -44.854 -54.289  14.636  1.00  0.00     0.130 C 
HETATM   23  C   UNL     1     -45.671 -55.349  13.909  1.00  0.00     0.027 C 
ENDBRANCH   1  22
TORSDOF 6
ENDMDL
