MODEL 1
REMARK VINA RESULT:      -6.9      0.000      0.000
REMARK  8 active torsions:
REMARK  status: ('A' for Active; 'I' for Inactive)
REMARK    1  A    between atoms: N_2  and  C_14 
REMARK    2  A    between atoms: C_6  and  N_7 
REMARK    3  A    between atoms: C_13  and  C_14 
REMARK    4  A    between atoms: C_13  and  C_27 
REMARK    5  A    between atoms: C_15  and  C_16 
REMARK    6  A    between atoms: C_15  and  O_26 
REMARK    7  A    between atoms: C_16  and  C_18 
REMARK       I    between atoms: C_18  and  N_22 
REMARK    8  A    between atoms: C_27  and  O_29 
ROOT
HETATM    1  C   UNL     1     -41.866 -49.484  11.913  1.00  0.00     0.122 A 
HETATM    2  N   UNL     1     -42.109 -47.568  10.889  1.00  0.00    -0.326 N 
HETATM    3  C   UNL     1     -41.164 -48.481  11.257  1.00  0.00     0.140 A 
HETATM    4  N   UNL     1     -43.218 -49.177  11.926  1.00  0.00    -0.346 N 
ATOM      5  HN  UNL     1     -43.975 -49.741  12.313  1.00  0.00     0.167 HD
HETATM    6  C   UNL     1     -41.117 -50.577  12.409  1.00  0.00     0.135 A 
HETATM    7  C   UNL     1     -43.319 -48.009  11.333  1.00  0.00     0.185 A 
HETATM    8  N   UNL     1     -39.845 -48.417  11.028  1.00  0.00    -0.336 N 
ATOM      9  HN  UNL     1     -39.378 -47.650  10.544  1.00  0.00     0.168 HD
HETATM   10  N   UNL     1     -39.770 -50.539  12.179  1.00  0.00    -0.337 N 
ATOM     11  HN  UNL     1     -39.178 -51.303  12.504  1.00  0.00     0.168 HD
HETATM   12  C   UNL     1     -39.222 -49.497  11.525  1.00  0.00     0.183 A 
ENDROOT
BRANCH   6  13
HETATM   13  N   UNL     1     -41.677 -51.698  13.041  1.00  0.00    -0.362 N 
HETATM   14  C   UNL     1     -42.529 -52.526  12.179  1.00  0.00     0.162 C 
HETATM   15  C   UNL     1     -43.481 -53.369  13.061  1.00  0.00     0.082 C 
HETATM   16  C   UNL     1     -42.621 -54.228  14.011  1.00  0.00     0.041 C 
HETATM   17  C   UNL     1     -41.583 -53.423  14.791  1.00  0.00     0.023 C 
HETATM   18  C   UNL     1     -40.776 -52.465  13.911  1.00  0.00     0.124 C 
BRANCH  15  19
HETATM   19  C   UNL     1     -44.481 -52.487  13.846  1.00  0.00     0.142 C 
BRANCH  19  20
HETATM   20  C   UNL     1     -45.887 -52.523  13.266  1.00  0.00     0.220 C 
HETATM   21  O   UNL     1     -46.824 -53.087  13.823  1.00  0.00    -0.274 OA
HETATM   22  N   UNL     1     -46.019 -51.817  12.090  1.00  0.00    -0.365 N 
HETATM   23  C   UNL     1     -47.272 -51.733  11.381  1.00  0.00     0.149 C 
HETATM   24  H   UNL     1     -45.232 -51.288  11.740  1.00  0.00     0.161 HD
ENDBRANCH  19  20
ENDBRANCH  15  19
BRANCH  15  25
HETATM   25  O   UNL     1     -44.215 -54.298  12.244  1.00  0.00    -0.388 OA
HETATM   26  H   UNL     1     -43.615 -54.555  11.512  1.00  0.00     0.210 HD
ENDBRANCH  15  25
ENDBRANCH   6  13
BRANCH   2  27
HETATM   27  C   UNL     1     -41.847 -46.318  10.198  1.00  0.00     0.147 C 
BRANCH  27  28
HETATM   28  C   UNL     1     -41.341 -45.203  11.104  1.00  0.00     0.040 C 
HETATM   29  C   UNL     1     -41.591 -45.336  12.621  1.00  0.00     0.183 C 
HETATM   30  O   UNL     1     -42.214 -44.025  12.655  1.00  0.00    -0.389 OA
HETATM   31  C   UNL     1     -42.359 -44.051  11.213  1.00  0.00     0.183 C 
BRANCH  28  32
HETATM   32  C   UNL     1     -39.919 -44.737  10.808  1.00  0.00     0.179 C 
BRANCH  32  33
HETATM   33  O   UNL     1     -39.334 -45.587   9.827  1.00  0.00    -0.400 OA
HETATM   34  H   UNL     1     -40.040 -46.105   9.406  1.00  0.00     0.209 HD
ENDBRANCH  32  33
ENDBRANCH  28  32
ENDBRANCH  27  28
ENDBRANCH   2  27
TORSDOF 8
ENDMDL
MODEL 2
REMARK VINA RESULT:      -6.7      1.303      1.582
REMARK  8 active torsions:
REMARK  status: ('A' for Active; 'I' for Inactive)
REMARK    1  A    between atoms: N_2  and  C_14 
REMARK    2  A    between atoms: C_6  and  N_7 
REMARK    3  A    between atoms: C_13  and  C_14 
REMARK    4  A    between atoms: C_13  and  C_27 
REMARK    5  A    between atoms: C_15  and  C_16 
REMARK    6  A    between atoms: C_15  and  O_26 
REMARK    7  A    between atoms: C_16  and  C_18 
REMARK       I    between atoms: C_18  and  N_22 
REMARK    8  A    between atoms: C_27  and  O_29 
ROOT
HETATM    1  C   UNL     1     -40.871 -49.451  13.054  1.00  0.00     0.122 A 
HETATM    2  N   UNL     1     -40.513 -47.305  12.839  1.00  0.00    -0.326 N 
HETATM    3  C   UNL     1     -40.049 -48.521  12.431  1.00  0.00     0.140 A 
HETATM    4  N   UNL     1     -41.825 -48.794  13.817  1.00  0.00    -0.346 N 
ATOM      5  HN  UNL     1     -42.577 -49.217  14.362  1.00  0.00     0.167 HD
HETATM    6  C   UNL     1     -40.609 -50.818  12.800  1.00  0.00     0.135 A 
HETATM    7  C   UNL     1     -41.557 -47.514  13.689  1.00  0.00     0.185 A 
HETATM    8  N   UNL     1     -39.020 -48.758  11.605  1.00  0.00    -0.336 N 
ATOM      9  HN  UNL     1     -38.442 -48.035  11.177  1.00  0.00     0.168 HD
HETATM   10  N   UNL     1     -39.571 -51.084  11.952  1.00  0.00    -0.337 N 
ATOM     11  HN  UNL     1     -39.338 -52.051  11.723  1.00  0.00     0.168 HD
HETATM   12  C   UNL     1     -38.853 -50.077  11.417  1.00  0.00     0.183 A 
ENDROOT
BRANCH   6  13
HETATM   13  N   UNL     1     -41.380 -51.878  13.301  1.00  0.00    -0.362 N 
HETATM   14  C   UNL     1     -42.214 -52.555  12.301  1.00  0.00     0.162 C 
HETATM   15  C   UNL     1     -43.367 -53.298  13.017  1.00  0.00     0.082 C 
HETATM   16  C   UNL     1     -42.748 -54.296  14.017  1.00  0.00     0.041 C 
HETATM   17  C   UNL     1     -41.724 -53.663  14.957  1.00  0.00     0.023 C 
HETATM   18  C   UNL     1     -40.699 -52.787  14.231  1.00  0.00     0.124 C 
BRANCH  15  19
HETATM   19  C   UNL     1     -44.340 -52.321  13.722  1.00  0.00     0.142 C 
BRANCH  19  20
HETATM   20  C   UNL     1     -45.763 -52.417  13.194  1.00  0.00     0.220 C 
HETATM   21  O   UNL     1     -46.655 -53.015  13.788  1.00  0.00    -0.274 OA
HETATM   22  N   UNL     1     -45.967 -51.725  12.021  1.00  0.00    -0.365 N 
HETATM   23  C   UNL     1     -47.247 -51.695  11.357  1.00  0.00     0.149 C 
HETATM   24  H   UNL     1     -45.214 -51.167  11.639  1.00  0.00     0.161 HD
ENDBRANCH  19  20
ENDBRANCH  15  19
BRANCH  15  25
HETATM   25  O   UNL     1     -44.103 -54.092  12.071  1.00  0.00    -0.388 OA
HETATM   26  H   UNL     1     -44.886 -54.438  12.552  1.00  0.00     0.210 HD
ENDBRANCH  15  25
ENDBRANCH   6  13
BRANCH   2  27
HETATM   27  C   UNL     1     -39.944 -46.020  12.472  1.00  0.00     0.147 C 
BRANCH  27  28
HETATM   28  C   UNL     1     -40.581 -45.390  11.240  1.00  0.00     0.040 C 
HETATM   29  C   UNL     1     -39.675 -44.565  10.301  1.00  0.00     0.183 C 
HETATM   30  O   UNL     1     -40.577 -43.430  10.393  1.00  0.00    -0.389 OA
HETATM   31  C   UNL     1     -41.204 -44.016  11.560  1.00  0.00     0.183 C 
BRANCH  28  32
HETATM   32  C   UNL     1     -41.507 -46.314  10.457  1.00  0.00     0.179 C 
BRANCH  32  33
HETATM   33  O   UNL     1     -41.889 -45.684   9.239  1.00  0.00    -0.400 OA
HETATM   34  H   UNL     1     -41.136 -45.713   8.626  1.00  0.00     0.209 HD
ENDBRANCH  32  33
ENDBRANCH  28  32
ENDBRANCH  27  28
ENDBRANCH   2  27
TORSDOF 8
ENDMDL
MODEL 3
REMARK VINA RESULT:      -6.3      2.531      6.914
REMARK  8 active torsions:
REMARK  status: ('A' for Active; 'I' for Inactive)
REMARK    1  A    between atoms: N_2  and  C_14 
REMARK    2  A    between atoms: C_6  and  N_7 
REMARK    3  A    between atoms: C_13  and  C_14 
REMARK    4  A    between atoms: C_13  and  C_27 
REMARK    5  A    between atoms: C_15  and  C_16 
REMARK    6  A    between atoms: C_15  and  O_26 
REMARK    7  A    between atoms: C_16  and  C_18 
REMARK       I    between atoms: C_18  and  N_22 
REMARK    8  A    between atoms: C_27  and  O_29 
ROOT
HETATM    1  C   UNL     1     -40.848 -50.369  11.976  1.00  0.00     0.122 A 
HETATM    2  N   UNL     1     -41.172 -52.443  12.587  1.00  0.00    -0.326 N 
HETATM    3  C   UNL     1     -40.187 -51.523  12.375  1.00  0.00     0.140 A 
HETATM    4  N   UNL     1     -42.216 -50.595  11.963  1.00  0.00    -0.346 N 
ATOM      5  HN  UNL     1     -42.951 -49.924  11.737  1.00  0.00     0.167 HD
HETATM    6  C   UNL     1     -40.053 -49.235  11.686  1.00  0.00     0.135 A 
HETATM    7  C   UNL     1     -42.367 -51.856  12.301  1.00  0.00     0.185 A 
HETATM    8  N   UNL     1     -38.867 -51.703  12.523  1.00  0.00    -0.336 N 
ATOM      9  HN  UNL     1     -38.430 -52.577  12.815  1.00  0.00     0.168 HD
HETATM   10  N   UNL     1     -38.703 -49.391  11.840  1.00  0.00    -0.337 N 
ATOM     11  HN  UNL     1     -38.077 -48.608  11.655  1.00  0.00     0.168 HD
HETATM   12  C   UNL     1     -38.196 -50.576  12.236  1.00  0.00     0.183 A 
ENDROOT
BRANCH   6  13
HETATM   13  N   UNL     1     -40.565 -47.979  11.330  1.00  0.00    -0.362 N 
HETATM   14  C   UNL     1     -41.879 -47.667  11.904  1.00  0.00     0.162 C 
HETATM   15  C   UNL     1     -42.558 -46.565  11.056  1.00  0.00     0.082 C 
HETATM   16  C   UNL     1     -41.632 -45.331  11.042  1.00  0.00     0.041 C 
HETATM   17  C   UNL     1     -40.196 -45.650  10.631  1.00  0.00     0.023 C 
HETATM   18  C   UNL     1     -39.613 -46.861  11.364  1.00  0.00     0.124 C 
BRANCH  15  19
HETATM   19  C   UNL     1     -42.878 -47.049   9.621  1.00  0.00     0.142 C 
BRANCH  19  20
HETATM   20  C   UNL     1     -44.323 -46.800   9.220  1.00  0.00     0.220 C 
HETATM   21  O   UNL     1     -44.722 -45.718   8.800  1.00  0.00    -0.274 OA
HETATM   22  N   UNL     1     -45.126 -47.916   9.318  1.00  0.00    -0.365 N 
HETATM   23  C   UNL     1     -46.529 -47.886   8.987  1.00  0.00     0.149 C 
HETATM   24  H   UNL     1     -44.710 -48.803   9.571  1.00  0.00     0.161 HD
ENDBRANCH  19  20
ENDBRANCH  15  19
BRANCH  15  25
HETATM   25  O   UNL     1     -43.776 -46.137  11.690  1.00  0.00    -0.388 OA
HETATM   26  H   UNL     1     -43.817 -45.162  11.578  1.00  0.00     0.210 HD
ENDBRANCH  15  25
ENDBRANCH   6  13
BRANCH   2  27
HETATM   27  C   UNL     1     -40.962 -53.823  12.988  1.00  0.00     0.147 C 
BRANCH  27  28
HETATM   28  C   UNL     1     -40.639 -53.996  14.466  1.00  0.00     0.040 C 
HETATM   29  C   UNL     1     -41.643 -54.779  15.339  1.00  0.00     0.183 C 
HETATM   30  O   UNL     1     -41.718 -53.676  16.280  1.00  0.00    -0.389 OA
HETATM   31  C   UNL     1     -41.120 -52.792  15.300  1.00  0.00     0.183 C 
BRANCH  28  32
HETATM   32  C   UNL     1     -39.200 -54.409  14.760  1.00  0.00     0.179 C 
BRANCH  32  33
HETATM   33  O   UNL     1     -38.494 -54.576  13.536  1.00  0.00    -0.400 OA
HETATM   34  H   UNL     1     -38.479 -53.724  13.068  1.00  0.00     0.209 HD
ENDBRANCH  32  33
ENDBRANCH  28  32
ENDBRANCH  27  28
ENDBRANCH   2  27
TORSDOF 8
ENDMDL
MODEL 4
REMARK VINA RESULT:      -6.0      2.348      7.857
REMARK  8 active torsions:
REMARK  status: ('A' for Active; 'I' for Inactive)
REMARK    1  A    between atoms: N_2  and  C_14 
REMARK    2  A    between atoms: C_6  and  N_7 
REMARK    3  A    between atoms: C_13  and  C_14 
REMARK    4  A    between atoms: C_13  and  C_27 
REMARK    5  A    between atoms: C_15  and  C_16 
REMARK    6  A    between atoms: C_15  and  O_26 
REMARK    7  A    between atoms: C_16  and  C_18 
REMARK       I    between atoms: C_18  and  N_22 
REMARK    8  A    between atoms: C_27  and  O_29 
ROOT
HETATM    1  C   UNL     1     -41.083 -50.097  11.911  1.00  0.00     0.122 A 
HETATM    2  N   UNL     1     -41.247 -52.195  12.506  1.00  0.00    -0.326 N 
HETATM    3  C   UNL     1     -40.333 -51.234  12.186  1.00  0.00     0.140 A 
HETATM    4  N   UNL     1     -42.431 -50.375  12.078  1.00  0.00    -0.346 N 
ATOM      5  HN  UNL     1     -43.212 -49.727  11.973  1.00  0.00     0.167 HD
HETATM    6  C   UNL     1     -40.374 -48.928  11.546  1.00  0.00     0.135 A 
HETATM    7  C   UNL     1     -42.490 -51.647  12.401  1.00  0.00     0.185 A 
HETATM    8  N   UNL     1     -39.000 -51.366  12.148  1.00  0.00    -0.336 N 
ATOM      9  HN  UNL     1     -38.498 -52.230  12.355  1.00  0.00     0.168 HD
HETATM   10  N   UNL     1     -39.012 -49.036  11.511  1.00  0.00    -0.337 N 
ATOM     11  HN  UNL     1     -38.445 -48.226  11.263  1.00  0.00     0.168 HD
HETATM   12  C   UNL     1     -38.415 -50.209  11.802  1.00  0.00     0.183 A 
ENDROOT
BRANCH   6  13
HETATM   13  N   UNL     1     -40.974 -47.684  11.296  1.00  0.00    -0.362 N 
HETATM   14  C   UNL     1     -40.031 -46.574  11.117  1.00  0.00     0.162 C 
HETATM   15  C   UNL     1     -40.762 -45.237  11.385  1.00  0.00     0.082 C 
HETATM   16  C   UNL     1     -41.954 -45.137  10.411  1.00  0.00     0.041 C 
HETATM   17  C   UNL     1     -42.860 -46.367  10.428  1.00  0.00     0.023 C 
HETATM   18  C   UNL     1     -42.089 -47.687  10.341  1.00  0.00     0.124 C 
BRANCH  15  19
HETATM   19  C   UNL     1     -41.221 -45.109  12.857  1.00  0.00     0.142 C 
BRANCH  19  20
HETATM   20  C   UNL     1     -40.496 -44.005  13.611  1.00  0.00     0.220 C 
HETATM   21  O   UNL     1     -39.398 -44.167  14.137  1.00  0.00    -0.274 OA
HETATM   22  N   UNL     1     -41.159 -42.797  13.600  1.00  0.00    -0.365 N 
HETATM   23  C   UNL     1     -40.637 -41.627  14.262  1.00  0.00     0.149 C 
HETATM   24  H   UNL     1     -42.009 -42.705  13.059  1.00  0.00     0.161 HD
ENDBRANCH  19  20
ENDBRANCH  15  19
BRANCH  15  25
HETATM   25  O   UNL     1     -39.898 -44.132  11.064  1.00  0.00    -0.388 OA
HETATM   26  H   UNL     1     -39.283 -44.455  10.372  1.00  0.00     0.210 HD
ENDBRANCH  15  25
ENDBRANCH   6  13
BRANCH   2  27
HETATM   27  C   UNL     1     -40.937 -53.574  12.838  1.00  0.00     0.147 C 
BRANCH  27  28
HETATM   28  C   UNL     1     -40.614 -53.799  14.309  1.00  0.00     0.040 C 
HETATM   29  C   UNL     1     -41.589 -54.661  15.139  1.00  0.00     0.183 C 
HETATM   30  O   UNL     1     -41.715 -53.606  16.128  1.00  0.00    -0.389 OA
HETATM   31  C   UNL     1     -41.149 -52.655  15.192  1.00  0.00     0.183 C 
BRANCH  28  32
HETATM   32  C   UNL     1     -39.161 -54.164  14.594  1.00  0.00     0.179 C 
BRANCH  32  33
HETATM   33  O   UNL     1     -38.456 -54.308  13.365  1.00  0.00    -0.400 OA
HETATM   34  H   UNL     1     -37.732 -54.942  13.496  1.00  0.00     0.209 HD
ENDBRANCH  32  33
ENDBRANCH  28  32
ENDBRANCH  27  28
ENDBRANCH   2  27
TORSDOF 8
ENDMDL
MODEL 5
REMARK VINA RESULT:      -5.9      2.789      7.534
REMARK  8 active torsions:
REMARK  status: ('A' for Active; 'I' for Inactive)
REMARK    1  A    between atoms: N_2  and  C_14 
REMARK    2  A    between atoms: C_6  and  N_7 
REMARK    3  A    between atoms: C_13  and  C_14 
REMARK    4  A    between atoms: C_13  and  C_27 
REMARK    5  A    between atoms: C_15  and  C_16 
REMARK    6  A    between atoms: C_15  and  O_26 
REMARK    7  A    between atoms: C_16  and  C_18 
REMARK       I    between atoms: C_18  and  N_22 
REMARK    8  A    between atoms: C_27  and  O_29 
ROOT
HETATM    1  C   UNL     1     -43.492 -49.760  13.841  1.00  0.00     0.122 A 
HETATM    2  N   UNL     1     -44.981 -51.177  14.587  1.00  0.00    -0.326 N 
HETATM    3  C   UNL     1     -43.995 -50.331  15.004  1.00  0.00     0.140 A 
HETATM    4  N   UNL     1     -44.180 -50.253  12.743  1.00  0.00    -0.346 N 
ATOM      5  HN  UNL     1     -44.047 -49.996  11.765  1.00  0.00     0.167 HD
HETATM    6  C   UNL     1     -42.440 -48.825  13.983  1.00  0.00     0.135 A 
HETATM    7  C   UNL     1     -45.038 -51.123  13.228  1.00  0.00     0.185 A 
HETATM    8  N   UNL     1     -43.604 -50.103  16.266  1.00  0.00    -0.336 N 
ATOM      9  HN  UNL     1     -44.006 -50.555  17.087  1.00  0.00     0.168 HD
HETATM   10  N   UNL     1     -42.031 -48.568  15.262  1.00  0.00    -0.337 N 
ATOM     11  HN  UNL     1     -41.283 -47.896  15.431  1.00  0.00     0.168 HD
HETATM   12  C   UNL     1     -42.612 -49.199  16.302  1.00  0.00     0.183 A 
ENDROOT
BRANCH   6  13
HETATM   13  N   UNL     1     -41.863 -48.115  12.919  1.00  0.00    -0.362 N 
HETATM   14  C   UNL     1     -42.677 -47.006  12.409  1.00  0.00     0.162 C 
HETATM   15  C   UNL     1     -42.227 -46.665  10.968  1.00  0.00     0.082 C 
HETATM   16  C   UNL     1     -40.728 -46.304  11.006  1.00  0.00     0.041 C 
HETATM   17  C   UNL     1     -39.865 -47.353  11.706  1.00  0.00     0.023 C 
HETATM   18  C   UNL     1     -40.435 -47.801  13.054  1.00  0.00     0.124 C 
BRANCH  15  19
HETATM   19  C   UNL     1     -42.505 -47.824   9.981  1.00  0.00     0.142 C 
BRANCH  19  20
HETATM   20  C   UNL     1     -43.692 -47.554   9.069  1.00  0.00     0.220 C 
HETATM   21  O   UNL     1     -43.569 -47.141   7.919  1.00  0.00    -0.274 OA
HETATM   22  N   UNL     1     -44.908 -47.869   9.633  1.00  0.00    -0.365 N 
HETATM   23  C   UNL     1     -46.154 -47.683   8.931  1.00  0.00     0.149 C 
HETATM   24  H   UNL     1     -44.931 -48.304  10.547  1.00  0.00     0.161 HD
ENDBRANCH  19  20
ENDBRANCH  15  19
BRANCH  15  25
HETATM   25  O   UNL     1     -42.905 -45.483  10.508  1.00  0.00    -0.388 OA
HETATM   26  H   UNL     1     -43.620 -45.791   9.911  1.00  0.00     0.210 HD
ENDBRANCH  15  25
ENDBRANCH   6  13
BRANCH   2  27
HETATM   27  C   UNL     1     -45.778 -52.029  15.451  1.00  0.00     0.147 C 
BRANCH  27  28
HETATM   28  C   UNL     1     -45.170 -53.403  15.701  1.00  0.00     0.040 C 
HETATM   29  C   UNL     1     -44.195 -53.964  14.644  1.00  0.00     0.183 C 
HETATM   30  O   UNL     1     -44.975 -55.185  14.541  1.00  0.00    -0.389 OA
HETATM   31  C   UNL     1     -46.090 -54.534  15.200  1.00  0.00     0.183 C 
BRANCH  28  32
HETATM   32  C   UNL     1     -44.648 -53.621  17.117  1.00  0.00     0.179 C 
BRANCH  32  33
HETATM   33  O   UNL     1     -45.005 -54.926  17.560  1.00  0.00    -0.400 OA
HETATM   34  H   UNL     1     -45.936 -55.085  17.335  1.00  0.00     0.209 HD
ENDBRANCH  32  33
ENDBRANCH  28  32
ENDBRANCH  27  28
ENDBRANCH   2  27
TORSDOF 8
ENDMDL
MODEL 6
REMARK VINA RESULT:      -5.9      1.831      2.103
REMARK  8 active torsions:
REMARK  status: ('A' for Active; 'I' for Inactive)
REMARK    1  A    between atoms: N_2  and  C_14 
REMARK    2  A    between atoms: C_6  and  N_7 
REMARK    3  A    between atoms: C_13  and  C_14 
REMARK    4  A    between atoms: C_13  and  C_27 
REMARK    5  A    between atoms: C_15  and  C_16 
REMARK    6  A    between atoms: C_15  and  O_26 
REMARK    7  A    between atoms: C_16  and  C_18 
REMARK       I    between atoms: C_18  and  N_22 
REMARK    8  A    between atoms: C_27  and  O_29 
ROOT
HETATM    1  C   UNL     1     -40.875 -49.204  12.113  1.00  0.00     0.122 A 
HETATM    2  N   UNL     1     -40.996 -47.310  11.027  1.00  0.00    -0.326 N 
HETATM    3  C   UNL     1     -40.368 -47.911  12.079  1.00  0.00     0.140 A 
HETATM    4  N   UNL     1     -41.789 -49.375  11.084  1.00  0.00    -0.346 N 
ATOM      5  HN  UNL     1     -42.299 -50.226  10.848  1.00  0.00     0.167 HD
HETATM    6  C   UNL     1     -40.386 -50.063  13.126  1.00  0.00     0.135 A 
HETATM    7  C   UNL     1     -41.858 -48.211  10.479  1.00  0.00     0.185 A 
HETATM    8  N   UNL     1     -39.457 -47.365  12.896  1.00  0.00    -0.336 N 
ATOM      9  HN  UNL     1     -39.121 -46.404  12.830  1.00  0.00     0.168 HD
HETATM   10  N   UNL     1     -39.448 -49.531  13.966  1.00  0.00    -0.337 N 
ATOM     11  HN  UNL     1     -39.051 -50.103  14.710  1.00  0.00     0.168 HD
HETATM   12  C   UNL     1     -39.046 -48.254  13.815  1.00  0.00     0.183 A 
ENDROOT
BRANCH   6  13
HETATM   13  N   UNL     1     -40.749 -51.412  13.263  1.00  0.00    -0.362 N 
HETATM   14  C   UNL     1     -41.859 -51.839  12.403  1.00  0.00     0.162 C 
HETATM   15  C   UNL     1     -42.503 -53.114  12.997  1.00  0.00     0.082 C 
HETATM   16  C   UNL     1     -41.412 -54.198  13.104  1.00  0.00     0.041 C 
HETATM   17  C   UNL     1     -40.152 -53.729  13.830  1.00  0.00     0.023 C 
HETATM   18  C   UNL     1     -39.641 -52.372  13.337  1.00  0.00     0.124 C 
BRANCH  15  19
HETATM   19  C   UNL     1     -43.169 -52.845  14.368  1.00  0.00     0.142 C 
BRANCH  19  20
HETATM   20  C   UNL     1     -44.681 -53.002  14.335  1.00  0.00     0.220 C 
HETATM   21  O   UNL     1     -45.437 -52.109  13.965  1.00  0.00    -0.274 OA
HETATM   22  N   UNL     1     -45.116 -54.257  14.703  1.00  0.00    -0.365 N 
HETATM   23  C   UNL     1     -46.515 -54.606  14.740  1.00  0.00     0.149 C 
HETATM   24  H   UNL     1     -44.435 -54.979  14.896  1.00  0.00     0.161 HD
ENDBRANCH  19  20
ENDBRANCH  15  19
BRANCH  15  25
HETATM   25  O   UNL     1     -43.490 -53.635  12.090  1.00  0.00    -0.388 OA
HETATM   26  H   UNL     1     -43.367 -54.609  12.079  1.00  0.00     0.210 HD
ENDBRANCH  15  25
ENDBRANCH   6  13
BRANCH   2  27
HETATM   27  C   UNL     1     -40.813 -45.930  10.615  1.00  0.00     0.147 C 
BRANCH  27  28
HETATM   28  C   UNL     1     -42.016 -45.037  10.886  1.00  0.00     0.040 C 
HETATM   29  C   UNL     1     -41.753 -43.559  11.244  1.00  0.00     0.183 C 
HETATM   30  O   UNL     1     -42.553 -43.685  12.450  1.00  0.00    -0.389 OA
HETATM   31  C   UNL     1     -42.476 -45.129  12.355  1.00  0.00     0.183 C 
BRANCH  28  32
HETATM   32  C   UNL     1     -43.154 -45.177   9.880  1.00  0.00     0.179 C 
BRANCH  32  33
HETATM   33  O   UNL     1     -43.847 -43.938   9.771  1.00  0.00    -0.400 OA
HETATM   34  H   UNL     1     -44.770 -44.076  10.039  1.00  0.00     0.209 HD
ENDBRANCH  32  33
ENDBRANCH  28  32
ENDBRANCH  27  28
ENDBRANCH   2  27
TORSDOF 8
ENDMDL
MODEL 7
REMARK VINA RESULT:      -5.9      2.140      3.702
REMARK  8 active torsions:
REMARK  status: ('A' for Active; 'I' for Inactive)
REMARK    1  A    between atoms: N_2  and  C_14 
REMARK    2  A    between atoms: C_6  and  N_7 
REMARK    3  A    between atoms: C_13  and  C_14 
REMARK    4  A    between atoms: C_13  and  C_27 
REMARK    5  A    between atoms: C_15  and  C_16 
REMARK    6  A    between atoms: C_15  and  O_26 
REMARK    7  A    between atoms: C_16  and  C_18 
REMARK       I    between atoms: C_18  and  N_22 
REMARK    8  A    between atoms: C_27  and  O_29 
ROOT
HETATM    1  C   UNL     1     -42.830 -49.000  12.719  1.00  0.00     0.122 A 
HETATM    2  N   UNL     1     -42.388 -46.998  11.960  1.00  0.00    -0.326 N 
HETATM    3  C   UNL     1     -42.698 -47.672  13.105  1.00  0.00     0.140 A 
HETATM    4  N   UNL     1     -42.588 -49.118  11.358  1.00  0.00    -0.346 N 
ATOM      5  HN  UNL     1     -42.587 -49.974  10.803  1.00  0.00     0.167 HD
HETATM    6  C   UNL     1     -43.155 -49.937  13.728  1.00  0.00     0.135 A 
HETATM    7  C   UNL     1     -42.361 -47.895  10.935  1.00  0.00     0.185 A 
HETATM    8  N   UNL     1     -42.842 -47.157  14.334  1.00  0.00    -0.336 N 
ATOM      9  HN  UNL     1     -42.739 -46.168  14.562  1.00  0.00     0.168 HD
HETATM   10  N   UNL     1     -43.296 -49.436  14.992  1.00  0.00    -0.337 N 
ATOM     11  HN  UNL     1     -43.522 -50.063  15.764  1.00  0.00     0.168 HD
HETATM   12  C   UNL     1     -43.140 -48.118  15.222  1.00  0.00     0.183 A 
ENDROOT
BRANCH   6  13
HETATM   13  N   UNL     1     -43.265 -51.320  13.518  1.00  0.00    -0.362 N 
HETATM   14  C   UNL     1     -42.519 -52.147  14.475  1.00  0.00     0.162 C 
HETATM   15  C   UNL     1     -42.272 -53.544  13.857  1.00  0.00     0.082 C 
HETATM   16  C   UNL     1     -43.641 -54.165  13.510  1.00  0.00     0.041 C 
HETATM   17  C   UNL     1     -44.531 -53.250  12.670  1.00  0.00     0.023 C 
HETATM   18  C   UNL     1     -44.611 -51.821  13.212  1.00  0.00     0.124 C 
BRANCH  15  19
HETATM   19  C   UNL     1     -41.350 -53.477  12.616  1.00  0.00     0.142 C 
BRANCH  19  20
HETATM   20  C   UNL     1     -40.102 -52.640  12.848  1.00  0.00     0.220 C 
HETATM   21  O   UNL     1     -39.205 -52.979  13.613  1.00  0.00    -0.274 OA
HETATM   22  N   UNL     1     -40.049 -51.499  12.077  1.00  0.00    -0.365 N 
HETATM   23  C   UNL     1     -38.949 -50.570  12.153  1.00  0.00     0.149 C 
HETATM   24  H   UNL     1     -40.772 -51.333  11.390  1.00  0.00     0.161 HD
ENDBRANCH  19  20
ENDBRANCH  15  19
BRANCH  15  25
HETATM   25  O   UNL     1     -41.680 -54.417  14.835  1.00  0.00    -0.388 OA
HETATM   26  H   UNL     1     -41.835 -55.332  14.518  1.00  0.00     0.210 HD
ENDBRANCH  15  25
ENDBRANCH   6  13
BRANCH   2  27
HETATM   27  C   UNL     1     -42.186 -45.564  11.857  1.00  0.00     0.147 C 
BRANCH  27  28
HETATM   28  C   UNL     1     -40.726 -45.152  11.719  1.00  0.00     0.040 C 
HETATM   29  C   UNL     1     -39.697 -45.810  12.663  1.00  0.00     0.183 C 
HETATM   30  O   UNL     1     -39.219 -44.506  13.087  1.00  0.00    -0.389 OA
HETATM   31  C   UNL     1     -40.411 -43.886  12.541  1.00  0.00     0.183 C 
BRANCH  28  32
HETATM   32  C   UNL     1     -40.213 -45.093  10.284  1.00  0.00     0.179 C 
BRANCH  32  33
HETATM   33  O   UNL     1     -39.885 -43.748   9.951  1.00  0.00    -0.400 OA
HETATM   34  H   UNL     1     -40.605 -43.170  10.254  1.00  0.00     0.209 HD
ENDBRANCH  32  33
ENDBRANCH  28  32
ENDBRANCH  27  28
ENDBRANCH   2  27
TORSDOF 8
ENDMDL
MODEL 8
REMARK VINA RESULT:      -5.9      2.037      2.632
REMARK  8 active torsions:
REMARK  status: ('A' for Active; 'I' for Inactive)
REMARK    1  A    between atoms: N_2  and  C_14 
REMARK    2  A    between atoms: C_6  and  N_7 
REMARK    3  A    between atoms: C_13  and  C_14 
REMARK    4  A    between atoms: C_13  and  C_27 
REMARK    5  A    between atoms: C_15  and  C_16 
REMARK    6  A    between atoms: C_15  and  O_26 
REMARK    7  A    between atoms: C_16  and  C_18 
REMARK       I    between atoms: C_18  and  N_22 
REMARK    8  A    between atoms: C_27  and  O_29 
ROOT
HETATM    1  C   UNL     1     -40.953 -49.451  13.574  1.00  0.00     0.122 A 
HETATM    2  N   UNL     1     -41.899 -47.602  12.889  1.00  0.00    -0.326 N 
HETATM    3  C   UNL     1     -40.758 -48.080  13.465  1.00  0.00     0.140 A 
HETATM    4  N   UNL     1     -42.195 -49.789  13.057  1.00  0.00    -0.346 N 
ATOM      5  HN  UNL     1     -42.597 -50.723  12.979  1.00  0.00     0.167 HD
HETATM    6  C   UNL     1     -39.905 -50.209  14.147  1.00  0.00     0.135 A 
HETATM    7  C   UNL     1     -42.743 -48.653  12.689  1.00  0.00     0.185 A 
HETATM    8  N   UNL     1     -39.684 -47.372  13.839  1.00  0.00    -0.336 N 
ATOM      9  HN  UNL     1     -39.594 -46.361  13.741  1.00  0.00     0.168 HD
HETATM   10  N   UNL     1     -38.794 -49.510  14.528  1.00  0.00    -0.337 N 
ATOM     11  HN  UNL     1     -38.001 -50.001  14.939  1.00  0.00     0.168 HD
HETATM   12  C   UNL     1     -38.742 -48.173  14.362  1.00  0.00     0.183 A 
ENDROOT
BRANCH   6  13
HETATM   13  N   UNL     1     -39.917 -51.607  14.274  1.00  0.00    -0.362 N 
HETATM   14  C   UNL     1     -40.162 -52.335  13.024  1.00  0.00     0.162 C 
HETATM   15  C   UNL     1     -40.676 -53.756  13.353  1.00  0.00     0.082 C 
HETATM   16  C   UNL     1     -39.617 -54.460  14.227  1.00  0.00     0.041 C 
HETATM   17  C   UNL     1     -39.191 -53.643  15.445  1.00  0.00     0.023 C 
HETATM   18  C   UNL     1     -38.859 -52.186  15.111  1.00  0.00     0.124 C 
BRANCH  15  19
HETATM   19  C   UNL     1     -42.057 -53.729  14.051  1.00  0.00     0.142 C 
BRANCH  19  20
HETATM   20  C   UNL     1     -43.169 -53.219  13.147  1.00  0.00     0.220 C 
HETATM   21  O   UNL     1     -42.953 -52.651  12.080  1.00  0.00    -0.274 OA
HETATM   22  N   UNL     1     -44.435 -53.504  13.610  1.00  0.00    -0.365 N 
HETATM   23  C   UNL     1     -45.623 -53.102  12.898  1.00  0.00     0.149 C 
HETATM   24  H   UNL     1     -44.541 -54.067  14.443  1.00  0.00     0.161 HD
ENDBRANCH  19  20
ENDBRANCH  15  19
BRANCH  15  25
HETATM   25  O   UNL     1     -40.774 -54.535  12.148  1.00  0.00    -0.388 OA
HETATM   26  H   UNL     1     -40.757 -53.896  11.404  1.00  0.00     0.210 HD
ENDBRANCH  15  25
ENDBRANCH   6  13
BRANCH   2  27
HETATM   27  C   UNL     1     -42.177 -46.206  12.604  1.00  0.00     0.147 C 
BRANCH  27  28
HETATM   28  C   UNL     1     -41.889 -45.799  11.164  1.00  0.00     0.040 C 
HETATM   29  C   UNL     1     -40.439 -45.934  10.651  1.00  0.00     0.183 C 
HETATM   30  O   UNL     1     -40.437 -44.545  10.227  1.00  0.00    -0.389 OA
HETATM   31  C   UNL     1     -41.606 -44.288  11.045  1.00  0.00     0.183 C 
BRANCH  28  32
HETATM   32  C   UNL     1     -42.896 -46.315  10.142  1.00  0.00     0.179 C 
BRANCH  32  33
HETATM   33  O   UNL     1     -42.511 -45.892   8.839  1.00  0.00    -0.400 OA
HETATM   34  H   UNL     1     -42.048 -45.041   8.914  1.00  0.00     0.209 HD
ENDBRANCH  32  33
ENDBRANCH  28  32
ENDBRANCH  27  28
ENDBRANCH   2  27
TORSDOF 8
ENDMDL
MODEL 9
REMARK VINA RESULT:      -5.7      2.034      3.638
REMARK  8 active torsions:
REMARK  status: ('A' for Active; 'I' for Inactive)
REMARK    1  A    between atoms: N_2  and  C_14 
REMARK    2  A    between atoms: C_6  and  N_7 
REMARK    3  A    between atoms: C_13  and  C_14 
REMARK    4  A    between atoms: C_13  and  C_27 
REMARK    5  A    between atoms: C_15  and  C_16 
REMARK    6  A    between atoms: C_15  and  O_26 
REMARK    7  A    between atoms: C_16  and  C_18 
REMARK       I    between atoms: C_18  and  N_22 
REMARK    8  A    between atoms: C_27  and  O_29 
ROOT
HETATM    1  C   UNL     1     -41.968 -49.785  11.979  1.00  0.00     0.122 A 
HETATM    2  N   UNL     1     -42.167 -47.848  10.985  1.00  0.00    -0.326 N 
HETATM    3  C   UNL     1     -41.264 -48.836  11.247  1.00  0.00     0.140 A 
HETATM    4  N   UNL     1     -43.281 -49.371  12.141  1.00  0.00    -0.346 N 
ATOM      5  HN  UNL     1     -44.033 -49.874  12.611  1.00  0.00     0.167 HD
HETATM    6  C   UNL     1     -41.260 -50.939  12.389  1.00  0.00     0.135 A 
HETATM    7  C   UNL     1     -43.352 -48.193  11.562  1.00  0.00     0.185 A 
HETATM    8  N   UNL     1     -39.978 -48.877  10.873  1.00  0.00    -0.336 N 
ATOM      9  HN  UNL     1     -39.507 -48.147  10.338  1.00  0.00     0.168 HD
HETATM   10  N   UNL     1     -39.948 -51.008  12.011  1.00  0.00    -0.337 N 
ATOM     11  HN  UNL     1     -39.387 -51.819  12.269  1.00  0.00     0.168 HD
HETATM   12  C   UNL     1     -39.393 -50.008  11.298  1.00  0.00     0.183 A 
ENDROOT
BRANCH   6  13
HETATM   13  N   UNL     1     -41.835 -52.016  13.081  1.00  0.00    -0.362 N 
HETATM   14  C   UNL     1     -41.960 -51.818  14.530  1.00  0.00     0.162 C 
HETATM   15  C   UNL     1     -42.084 -53.195  15.224  1.00  0.00     0.082 C 
HETATM   16  C   UNL     1     -43.312 -53.920  14.638  1.00  0.00     0.041 C 
HETATM   17  C   UNL     1     -43.316 -53.979  13.111  1.00  0.00     0.023 C 
HETATM   18  C   UNL     1     -43.012 -52.629  12.454  1.00  0.00     0.124 C 
BRANCH  15  19
HETATM   19  C   UNL     1     -40.799 -54.044  15.068  1.00  0.00     0.142 C 
BRANCH  19  20
HETATM   20  C   UNL     1     -39.528 -53.249  15.323  1.00  0.00     0.220 C 
HETATM   21  O   UNL     1     -38.791 -52.861  14.421  1.00  0.00    -0.274 OA
HETATM   22  N   UNL     1     -39.314 -52.959  16.653  1.00  0.00    -0.365 N 
HETATM   23  C   UNL     1     -38.162 -52.217  17.103  1.00  0.00     0.149 C 
HETATM   24  H   UNL     1     -40.014 -53.219  17.335  1.00  0.00     0.161 HD
ENDBRANCH  19  20
ENDBRANCH  15  19
BRANCH  15  25
HETATM   25  O   UNL     1     -42.362 -53.018  16.624  1.00  0.00    -0.388 OA
HETATM   26  H   UNL     1     -43.025 -53.701  16.862  1.00  0.00     0.210 HD
ENDBRANCH  15  25
ENDBRANCH   6  13
BRANCH   2  27
HETATM   27  C   UNL     1     -41.883 -46.618  10.267  1.00  0.00     0.147 C 
BRANCH  27  28
HETATM   28  C   UNL     1     -41.268 -45.524  11.131  1.00  0.00     0.040 C 
HETATM   29  C   UNL     1     -41.146 -45.784  12.648  1.00  0.00     0.183 C 
HETATM   30  O   UNL     1     -41.845 -44.545  12.939  1.00  0.00    -0.389 OA
HETATM   31  C   UNL     1     -42.319 -44.486  11.571  1.00  0.00     0.183 C 
BRANCH  28  32
HETATM   32  C   UNL     1     -39.995 -44.904  10.564  1.00  0.00     0.179 C 
BRANCH  32  33
HETATM   33  O   UNL     1     -40.214 -43.522  10.305  1.00  0.00    -0.400 OA
HETATM   34  H   UNL     1     -40.780 -43.440   9.520  1.00  0.00     0.209 HD
ENDBRANCH  32  33
ENDBRANCH  28  32
ENDBRANCH  27  28
ENDBRANCH   2  27
TORSDOF 8
ENDMDL
