MODEL 1
REMARK VINA RESULT:      -6.1      0.000      0.000
REMARK  3 active torsions:
REMARK  status: ('A' for Active; 'I' for Inactive)
REMARK    1  A    between atoms: C_9  and  C_10 
REMARK    2  A    between atoms: C_10  and  C_11 
REMARK       I    between atoms: C_11  and  N_13 
REMARK    3  A    between atoms: N_13  and  C_14 
ROOT
HETATM    1  C   UNL     1     -43.193 -49.417  13.042  1.00  0.00     0.222 C 
HETATM    2  O   UNL     1     -42.702 -49.051  14.108  1.00  0.00    -0.273 OA
HETATM    3  N   UNL     1     -43.773 -50.658  12.872  1.00  0.00    -0.353 N 
HETATM    4  H   UNL     1     -44.026 -50.934  11.935  1.00  0.00     0.163 HD
ENDROOT
BRANCH   1   5
HETATM    5  C   UNL     1     -43.185 -48.539  11.795  1.00  0.00     0.145 C 
BRANCH   5   6
HETATM    6  C   UNL     1     -41.875 -47.887  11.457  1.00  0.00    -0.002 A 
HETATM    7  C   UNL     1     -40.577 -48.462  11.298  1.00  0.00     0.030 A 
HETATM    8  C   UNL     1     -40.135 -49.871  11.459  1.00  0.00     0.070 C 
HETATM    9  N   UNL     1     -39.672 -47.549  10.931  1.00  0.00    -0.303 N 
HETATM   10  N   UNL     1     -40.362 -46.408  10.823  1.00  0.00    -0.300 N 
ATOM     11  HN  UNL     1     -38.675 -47.691  10.771  1.00  0.00     0.186 HD
HETATM   12  C   UNL     1     -39.670 -45.218  10.382  1.00  0.00     0.177 C 
HETATM   13  C   UNL     1     -41.688 -46.543  11.143  1.00  0.00     0.033 A 
HETATM   14  C   UNL     1     -42.660 -45.418  11.098  1.00  0.00     0.070 C 
ENDBRANCH   5   6
ENDBRANCH   1   5
BRANCH   3  15
HETATM   15  C   UNL     1     -43.805 -51.669  13.932  1.00  0.00     0.121 C 
HETATM   16  C   UNL     1     -43.574 -53.083  13.410  1.00  0.00     0.065 C 
HETATM   17  C   UNL     1     -44.388 -53.988  14.345  1.00  0.00     0.057 C 
HETATM   18  C   UNL     1     -45.314 -54.926  13.566  1.00  0.00     0.045 C 
HETATM   19  C   UNL     1     -43.509 -54.822  15.278  1.00  0.00     0.045 C 
HETATM   20  O   UNL     1     -45.208 -53.136  15.165  1.00  0.00    -0.369 OA
HETATM   21  C   UNL     1     -45.149 -51.783  14.673  1.00  0.00     0.075 C 
HETATM   22  C   UNL     1     -45.214 -50.844  15.877  1.00  0.00     0.048 C 
HETATM   23  C   UNL     1     -46.382 -51.563  13.787  1.00  0.00     0.048 C 
ENDBRANCH   3  15
TORSDOF 3
ENDMDL
MODEL 2
REMARK VINA RESULT:      -6.0      1.412      2.523
REMARK  3 active torsions:
REMARK  status: ('A' for Active; 'I' for Inactive)
REMARK    1  A    between atoms: C_9  and  C_10 
REMARK    2  A    between atoms: C_10  and  C_11 
REMARK       I    between atoms: C_11  and  N_13 
REMARK    3  A    between atoms: N_13  and  C_14 
ROOT
HETATM    1  C   UNL     1     -43.011 -49.453  12.697  1.00  0.00     0.222 C 
HETATM    2  O   UNL     1     -43.347 -48.512  13.412  1.00  0.00    -0.273 OA
HETATM    3  N   UNL     1     -43.737 -50.624  12.610  1.00  0.00    -0.353 N 
HETATM    4  H   UNL     1     -43.323 -51.398  12.111  1.00  0.00     0.163 HD
ENDROOT
BRANCH   1   5
HETATM    5  C   UNL     1     -41.741 -49.425  11.852  1.00  0.00     0.145 C 
BRANCH   5   6
HETATM    6  C   UNL     1     -41.388 -48.101  11.239  1.00  0.00    -0.002 A 
HETATM    7  C   UNL     1     -42.037 -47.368  10.199  1.00  0.00     0.030 A 
HETATM    8  C   UNL     1     -43.234 -47.721   9.391  1.00  0.00     0.070 C 
HETATM    9  N   UNL     1     -41.445 -46.191   9.977  1.00  0.00    -0.303 N 
HETATM   10  N   UNL     1     -40.450 -46.136  10.869  1.00  0.00    -0.300 N 
ATOM     11  HN  UNL     1     -41.697 -45.489   9.281  1.00  0.00     0.186 HD
HETATM   12  C   UNL     1     -39.635 -44.943  10.927  1.00  0.00     0.177 C 
HETATM   13  C   UNL     1     -40.352 -47.262  11.644  1.00  0.00     0.033 A 
HETATM   14  C   UNL     1     -39.327 -47.439  12.707  1.00  0.00     0.070 C 
ENDBRANCH   5   6
ENDBRANCH   1   5
BRANCH   3  15
HETATM   15  C   UNL     1     -44.943 -50.868  13.405  1.00  0.00     0.121 C 
HETATM   16  C   UNL     1     -44.639 -51.136  14.875  1.00  0.00     0.065 C 
HETATM   17  C   UNL     1     -45.740 -52.100  15.338  1.00  0.00     0.057 C 
HETATM   18  C   UNL     1     -45.162 -53.338  16.027  1.00  0.00     0.045 C 
HETATM   19  C   UNL     1     -46.752 -51.439  16.276  1.00  0.00     0.045 C 
HETATM   20  O   UNL     1     -46.454 -52.535  14.167  1.00  0.00    -0.369 OA
HETATM   21  C   UNL     1     -45.753 -52.107  12.983  1.00  0.00     0.075 C 
HETATM   22  C   UNL     1     -46.797 -51.766  11.920  1.00  0.00     0.048 C 
HETATM   23  C   UNL     1     -44.900 -53.288  12.501  1.00  0.00     0.048 C 
ENDBRANCH   3  15
TORSDOF 3
ENDMDL
MODEL 3
REMARK VINA RESULT:      -5.9      1.709      2.364
REMARK  3 active torsions:
REMARK  status: ('A' for Active; 'I' for Inactive)
REMARK    1  A    between atoms: C_9  and  C_10 
REMARK    2  A    between atoms: C_10  and  C_11 
REMARK       I    between atoms: C_11  and  N_13 
REMARK    3  A    between atoms: N_13  and  C_14 
ROOT
HETATM    1  C   UNL     1     -40.796 -51.331  11.967  1.00  0.00     0.222 C 
HETATM    2  O   UNL     1     -40.018 -52.078  12.555  1.00  0.00    -0.273 OA
HETATM    3  N   UNL     1     -42.167 -51.414  12.109  1.00  0.00    -0.353 N 
HETATM    4  H   UNL     1     -42.738 -50.859  11.488  1.00  0.00     0.163 HD
ENDROOT
BRANCH   1   5
HETATM    5  C   UNL     1     -40.318 -50.250  11.002  1.00  0.00     0.145 C 
BRANCH   5   6
HETATM    6  C   UNL     1     -40.262 -48.855  11.551  1.00  0.00    -0.002 A 
HETATM    7  C   UNL     1     -39.325 -48.257  12.448  1.00  0.00     0.030 A 
HETATM    8  C   UNL     1     -38.150 -48.855  13.132  1.00  0.00     0.070 C 
HETATM    9  N   UNL     1     -39.586 -46.962  12.649  1.00  0.00    -0.303 N 
HETATM   10  N   UNL     1     -40.650 -46.705  11.879  1.00  0.00    -0.300 N 
ATOM     11  HN  UNL     1     -39.085 -46.312  13.255  1.00  0.00     0.186 HD
HETATM   12  C   UNL     1     -41.160 -45.353  11.829  1.00  0.00     0.177 C 
HETATM   13  C   UNL     1     -41.114 -47.807  11.209  1.00  0.00     0.033 A 
HETATM   14  C   UNL     1     -42.285 -47.775  10.291  1.00  0.00     0.070 C 
ENDBRANCH   5   6
ENDBRANCH   1   5
BRANCH   3  15
HETATM   15  C   UNL     1     -42.816 -52.438  12.930  1.00  0.00     0.121 C 
HETATM   16  C   UNL     1     -44.103 -52.970  12.307  1.00  0.00     0.065 C 
HETATM   17  C   UNL     1     -45.000 -53.330  13.499  1.00  0.00     0.057 C 
HETATM   18  C   UNL     1     -46.388 -52.694  13.381  1.00  0.00     0.045 C 
HETATM   19  C   UNL     1     -45.162 -54.840  13.685  1.00  0.00     0.045 C 
HETATM   20  O   UNL     1     -44.373 -52.811  14.685  1.00  0.00    -0.369 OA
HETATM   21  C   UNL     1     -43.272 -51.957  14.319  1.00  0.00     0.075 C 
HETATM   22  C   UNL     1     -42.175 -52.133  15.368  1.00  0.00     0.048 C 
HETATM   23  C   UNL     1     -43.782 -50.510  14.352  1.00  0.00     0.048 C 
ENDBRANCH   3  15
TORSDOF 3
ENDMDL
MODEL 4
REMARK VINA RESULT:      -5.9      1.544      2.189
REMARK  3 active torsions:
REMARK  status: ('A' for Active; 'I' for Inactive)
REMARK    1  A    between atoms: C_9  and  C_10 
REMARK    2  A    between atoms: C_10  and  C_11 
REMARK       I    between atoms: C_11  and  N_13 
REMARK    3  A    between atoms: N_13  and  C_14 
ROOT
HETATM    1  C   UNL     1     -41.707 -49.615  12.117  1.00  0.00     0.222 C 
HETATM    2  O   UNL     1     -41.171 -49.202  13.143  1.00  0.00    -0.273 OA
HETATM    3  N   UNL     1     -42.472 -50.764  12.082  1.00  0.00    -0.353 N 
HETATM    4  H   UNL     1     -42.760 -51.109  11.178  1.00  0.00     0.163 HD
ENDROOT
BRANCH   1   5
HETATM    5  C   UNL     1     -41.557 -48.906  10.774  1.00  0.00     0.145 C 
BRANCH   5   6
HETATM    6  C   UNL     1     -42.008 -47.475  10.732  1.00  0.00    -0.002 A 
HETATM    7  C   UNL     1     -43.288 -46.924  10.418  1.00  0.00     0.030 A 
HETATM    8  C   UNL     1     -44.541 -47.606  10.003  1.00  0.00     0.070 C 
HETATM    9  N   UNL     1     -43.303 -45.595  10.554  1.00  0.00    -0.303 N 
HETATM   10  N   UNL     1     -42.073 -45.280  10.976  1.00  0.00    -0.300 N 
ATOM     11  HN  UNL     1     -44.080 -44.959  10.375  1.00  0.00     0.186 HD
HETATM   12  C   UNL     1     -41.773 -43.898  11.273  1.00  0.00     0.177 C 
HETATM   13  C   UNL     1     -41.243 -46.365  11.085  1.00  0.00     0.033 A 
HETATM   14  C   UNL     1     -39.828 -46.273  11.535  1.00  0.00     0.070 C 
ENDBRANCH   5   6
ENDBRANCH   1   5
BRANCH   3  15
HETATM   15  C   UNL     1     -42.666 -51.622  13.253  1.00  0.00     0.121 C 
HETATM   16  C   UNL     1     -42.725 -53.104  12.899  1.00  0.00     0.065 C 
HETATM   17  C   UNL     1     -43.670 -53.722  13.939  1.00  0.00     0.057 C 
HETATM   18  C   UNL     1     -44.780 -54.546  13.283  1.00  0.00     0.045 C 
HETATM   19  C   UNL     1     -42.939 -54.598  14.958  1.00  0.00     0.045 C 
HETATM   20  O   UNL     1     -44.286 -52.640  14.660  1.00  0.00    -0.369 OA
HETATM   21  C   UNL     1     -43.984 -51.389  14.012  1.00  0.00     0.075 C 
HETATM   22  C   UNL     1     -43.833 -50.324  15.098  1.00  0.00     0.048 C 
HETATM   23  C   UNL     1     -45.177 -51.036  13.114  1.00  0.00     0.048 C 
ENDBRANCH   3  15
TORSDOF 3
ENDMDL
MODEL 5
REMARK VINA RESULT:      -5.8      2.281      3.597
REMARK  3 active torsions:
REMARK  status: ('A' for Active; 'I' for Inactive)
REMARK    1  A    between atoms: C_9  and  C_10 
REMARK    2  A    between atoms: C_10  and  C_11 
REMARK       I    between atoms: C_11  and  N_13 
REMARK    3  A    between atoms: N_13  and  C_14 
ROOT
HETATM    1  C   UNL     1     -40.536 -52.769  13.588  1.00  0.00     0.222 C 
HETATM    2  O   UNL     1     -40.458 -53.502  12.605  1.00  0.00    -0.273 OA
HETATM    3  N   UNL     1     -41.472 -52.951  14.586  1.00  0.00    -0.353 N 
HETATM    4  H   UNL     1     -41.560 -52.228  15.285  1.00  0.00     0.163 HD
ENDROOT
BRANCH   1   5
HETATM    5  C   UNL     1     -39.614 -51.570  13.787  1.00  0.00     0.145 C 
BRANCH   5   6
HETATM    6  C   UNL     1     -39.733 -50.473  12.769  1.00  0.00    -0.002 A 
HETATM    7  C   UNL     1     -38.765 -49.961  11.852  1.00  0.00     0.030 A 
HETATM    8  C   UNL     1     -37.340 -50.340  11.664  1.00  0.00     0.070 C 
HETATM    9  N   UNL     1     -39.281 -49.016  11.061  1.00  0.00    -0.303 N 
HETATM   10  N   UNL     1     -40.565 -48.929  11.426  1.00  0.00    -0.300 N 
ATOM     11  HN  UNL     1     -38.802 -48.480  10.337  1.00  0.00     0.186 HD
HETATM   12  C   UNL     1     -41.429 -48.016  10.712  1.00  0.00     0.177 C 
HETATM   13  C   UNL     1     -40.893 -49.766  12.460  1.00  0.00     0.033 A 
HETATM   14  C   UNL     1     -42.259 -49.852  13.043  1.00  0.00     0.070 C 
ENDBRANCH   5   6
ENDBRANCH   1   5
BRANCH   3  15
HETATM   15  C   UNL     1     -42.492 -54.000  14.533  1.00  0.00     0.121 C 
HETATM   16  C   UNL     1     -43.828 -53.501  13.991  1.00  0.00     0.065 C 
HETATM   17  C   UNL     1     -44.887 -54.348  14.710  1.00  0.00     0.057 C 
HETATM   18  C   UNL     1     -45.965 -53.480  15.363  1.00  0.00     0.045 C 
HETATM   19  C   UNL     1     -45.562 -55.364  13.787  1.00  0.00     0.045 C 
HETATM   20  O   UNL     1     -44.219 -55.084  15.751  1.00  0.00    -0.369 OA
HETATM   21  C   UNL     1     -42.869 -54.603  15.898  1.00  0.00     0.075 C 
HETATM   22  C   UNL     1     -41.984 -55.795  16.255  1.00  0.00     0.048 C 
HETATM   23  C   UNL     1     -42.864 -53.597  17.057  1.00  0.00     0.048 C 
ENDBRANCH   3  15
TORSDOF 3
ENDMDL
MODEL 6
REMARK VINA RESULT:      -5.8      1.907      2.899
REMARK  3 active torsions:
REMARK  status: ('A' for Active; 'I' for Inactive)
REMARK    1  A    between atoms: C_9  and  C_10 
REMARK    2  A    between atoms: C_10  and  C_11 
REMARK       I    between atoms: C_11  and  N_13 
REMARK    3  A    between atoms: N_13  and  C_14 
ROOT
HETATM    1  C   UNL     1     -40.935 -51.427  11.984  1.00  0.00     0.222 C 
HETATM    2  O   UNL     1     -40.142 -52.239  12.457  1.00  0.00    -0.273 OA
HETATM    3  N   UNL     1     -42.297 -51.498  12.197  1.00  0.00    -0.353 N 
HETATM    4  H   UNL     1     -42.889 -50.879  11.663  1.00  0.00     0.163 HD
ENDROOT
BRANCH   1   5
HETATM    5  C   UNL     1     -40.486 -50.272  11.094  1.00  0.00     0.145 C 
BRANCH   5   6
HETATM    6  C   UNL     1     -40.390 -48.929  11.756  1.00  0.00    -0.002 A 
HETATM    7  C   UNL     1     -41.364 -47.891  11.875  1.00  0.00     0.030 A 
HETATM    8  C   UNL     1     -42.749 -47.822  11.343  1.00  0.00     0.070 C 
HETATM    9  N   UNL     1     -40.909 -46.864  12.599  1.00  0.00    -0.303 N 
HETATM   10  N   UNL     1     -39.677 -47.229  12.973  1.00  0.00    -0.300 N 
ATOM     11  HN  UNL     1     -41.393 -45.993  12.818  1.00  0.00     0.186 HD
HETATM   12  C   UNL     1     -38.920 -46.342  13.828  1.00  0.00     0.177 C 
HETATM   13  C   UNL     1     -39.301 -48.452  12.483  1.00  0.00     0.033 A 
HETATM   14  C   UNL     1     -37.979 -49.075  12.760  1.00  0.00     0.070 C 
ENDBRANCH   5   6
ENDBRANCH   1   5
BRANCH   3  15
HETATM   15  C   UNL     1     -42.923 -52.581  12.960  1.00  0.00     0.121 C 
HETATM   16  C   UNL     1     -44.273 -53.003  12.390  1.00  0.00     0.065 C 
HETATM   17  C   UNL     1     -45.092 -53.456  13.607  1.00  0.00     0.057 C 
HETATM   18  C   UNL     1     -46.457 -52.767  13.665  1.00  0.00     0.045 C 
HETATM   19  C   UNL     1     -45.300 -54.971  13.652  1.00  0.00     0.045 C 
HETATM   20  O   UNL     1     -44.356 -53.084  14.786  1.00  0.00    -0.369 OA
HETATM   21  C   UNL     1     -43.253 -52.232  14.422  1.00  0.00     0.075 C 
HETATM   22  C   UNL     1     -42.087 -52.551  15.357  1.00  0.00     0.048 C 
HETATM   23  C   UNL     1     -43.700 -50.781  14.642  1.00  0.00     0.048 C 
ENDBRANCH   3  15
TORSDOF 3
ENDMDL
MODEL 7
REMARK VINA RESULT:      -5.7      3.483      7.620
REMARK  3 active torsions:
REMARK  status: ('A' for Active; 'I' for Inactive)
REMARK    1  A    between atoms: C_9  and  C_10 
REMARK    2  A    between atoms: C_10  and  C_11 
REMARK       I    between atoms: C_11  and  N_13 
REMARK    3  A    between atoms: N_13  and  C_14 
ROOT
HETATM    1  C   UNL     1     -39.992 -53.228  13.382  1.00  0.00     0.222 C 
HETATM    2  O   UNL     1     -38.874 -53.618  13.711  1.00  0.00    -0.273 OA
HETATM    3  N   UNL     1     -40.348 -51.894  13.372  1.00  0.00    -0.353 N 
HETATM    4  H   UNL     1     -41.320 -51.668  13.225  1.00  0.00     0.163 HD
ENDROOT
BRANCH   1   5
HETATM    5  C   UNL     1     -41.105 -54.189  12.976  1.00  0.00     0.145 C 
BRANCH   5   6
HETATM    6  C   UNL     1     -42.235 -54.340  13.952  1.00  0.00    -0.002 A 
HETATM    7  C   UNL     1     -42.221 -54.765  15.315  1.00  0.00     0.030 A 
HETATM    8  C   UNL     1     -41.084 -55.221  16.157  1.00  0.00     0.070 C 
HETATM    9  N   UNL     1     -43.436 -54.704  15.867  1.00  0.00    -0.303 N 
HETATM   10  N   UNL     1     -44.226 -54.223  14.901  1.00  0.00    -0.300 N 
ATOM     11  HN  UNL     1     -43.703 -54.968  16.816  1.00  0.00     0.186 HD
HETATM   12  C   UNL     1     -45.621 -53.983  15.200  1.00  0.00     0.177 C 
HETATM   13  C   UNL     1     -43.566 -54.000  13.721  1.00  0.00     0.033 A 
HETATM   14  C   UNL     1     -44.228 -53.466  12.500  1.00  0.00     0.070 C 
ENDBRANCH   5   6
ENDBRANCH   1   5
BRANCH   3  15
HETATM   15  C   UNL     1     -39.440 -50.830  13.806  1.00  0.00     0.121 C 
HETATM   16  C   UNL     1     -40.138 -49.755  14.632  1.00  0.00     0.065 C 
HETATM   17  C   UNL     1     -39.380 -48.458  14.316  1.00  0.00     0.057 C 
HETATM   18  C   UNL     1     -40.327 -47.333  13.891  1.00  0.00     0.045 C 
HETATM   19  C   UNL     1     -38.525 -47.970  15.487  1.00  0.00     0.045 C 
HETATM   20  O   UNL     1     -38.494 -48.732  13.216  1.00  0.00    -0.369 OA
HETATM   21  C   UNL     1     -38.792 -50.029  12.663  1.00  0.00     0.075 C 
HETATM   22  C   UNL     1     -37.476 -50.656  12.205  1.00  0.00     0.048 C 
HETATM   23  C   UNL     1     -39.703 -49.811  11.447  1.00  0.00     0.048 C 
ENDBRANCH   3  15
TORSDOF 3
ENDMDL
MODEL 8
REMARK VINA RESULT:      -5.6      2.987      4.468
REMARK  3 active torsions:
REMARK  status: ('A' for Active; 'I' for Inactive)
REMARK    1  A    between atoms: C_9  and  C_10 
REMARK    2  A    between atoms: C_10  and  C_11 
REMARK       I    between atoms: C_11  and  N_13 
REMARK    3  A    between atoms: N_13  and  C_14 
ROOT
HETATM    1  C   UNL     1     -42.887 -50.078  12.885  1.00  0.00     0.222 C 
HETATM    2  O   UNL     1     -43.219 -48.990  13.351  1.00  0.00    -0.273 OA
HETATM    3  N   UNL     1     -43.708 -51.187  12.914  1.00  0.00    -0.353 N 
HETATM    4  H   UNL     1     -43.311 -52.073  12.638  1.00  0.00     0.163 HD
ENDROOT
BRANCH   1   5
HETATM    5  C   UNL     1     -41.520 -50.311  12.249  1.00  0.00     0.145 C 
BRANCH   5   6
HETATM    6  C   UNL     1     -40.516 -51.038  13.095  1.00  0.00    -0.002 A 
HETATM    7  C   UNL     1     -39.572 -50.532  14.040  1.00  0.00     0.030 A 
HETATM    8  C   UNL     1     -39.279 -49.129  14.433  1.00  0.00     0.070 C 
HETATM    9  N   UNL     1     -38.892 -51.514  14.638  1.00  0.00    -0.303 N 
HETATM   10  N   UNL     1     -39.397 -52.641  14.124  1.00  0.00    -0.300 N 
ATOM     11  HN  UNL     1     -38.151 -51.425  15.334  1.00  0.00     0.186 HD
HETATM   12  C   UNL     1     -38.904 -53.910  14.612  1.00  0.00     0.177 C 
HETATM   13  C   UNL     1     -40.364 -52.421  13.178  1.00  0.00     0.033 A 
HETATM   14  C   UNL     1     -41.076 -53.514  12.463  1.00  0.00     0.070 C 
ENDBRANCH   5   6
ENDBRANCH   1   5
BRANCH   3  15
HETATM   15  C   UNL     1     -45.026 -51.179  13.553  1.00  0.00     0.121 C 
HETATM   16  C   UNL     1     -44.954 -51.378  15.063  1.00  0.00     0.065 C 
HETATM   17  C   UNL     1     -46.248 -52.120  15.427  1.00  0.00     0.057 C 
HETATM   18  C   UNL     1     -45.970 -53.378  16.255  1.00  0.00     0.045 C 
HETATM   19  C   UNL     1     -47.245 -51.240  16.183  1.00  0.00     0.045 C 
HETATM   20  O   UNL     1     -46.873 -52.527  14.197  1.00  0.00    -0.369 OA
HETATM   21  C   UNL     1     -45.971 -52.305  13.095  1.00  0.00     0.075 C 
HETATM   22  C   UNL     1     -46.805 -51.887  11.885  1.00  0.00     0.048 C 
HETATM   23  C   UNL     1     -45.271 -53.637  12.798  1.00  0.00     0.048 C 
ENDBRANCH   3  15
TORSDOF 3
ENDMDL
MODEL 9
REMARK VINA RESULT:      -5.6      4.355      6.671
REMARK  3 active torsions:
REMARK  status: ('A' for Active; 'I' for Inactive)
REMARK    1  A    between atoms: C_9  and  C_10 
REMARK    2  A    between atoms: C_10  and  C_11 
REMARK       I    between atoms: C_11  and  N_13 
REMARK    3  A    between atoms: N_13  and  C_14 
ROOT
HETATM    1  C   UNL     1     -46.082 -53.877  16.173  1.00  0.00     0.222 C 
HETATM    2  O   UNL     1     -45.665 -54.611  17.067  1.00  0.00    -0.273 OA
HETATM    3  N   UNL     1     -46.632 -52.636  16.420  1.00  0.00    -0.353 N 
HETATM    4  H   UNL     1     -47.076 -52.157  15.649  1.00  0.00     0.163 HD
ENDROOT
BRANCH   1   5
HETATM    5  C   UNL     1     -46.051 -54.283  14.703  1.00  0.00     0.145 C 
BRANCH   5   6
HETATM    6  C   UNL     1     -45.071 -53.547  13.837  1.00  0.00    -0.002 A 
HETATM    7  C   UNL     1     -45.272 -52.441  12.957  1.00  0.00     0.030 A 
HETATM    8  C   UNL     1     -46.523 -51.717  12.610  1.00  0.00     0.070 C 
HETATM    9  N   UNL     1     -44.126 -52.029  12.407  1.00  0.00    -0.303 N 
HETATM   10  N   UNL     1     -43.189 -52.824  12.935  1.00  0.00    -0.300 N 
ATOM     11  HN  UNL     1     -43.995 -51.274  11.733  1.00  0.00     0.186 HD
HETATM   12  C   UNL     1     -41.806 -52.599  12.578  1.00  0.00     0.177 C 
HETATM   13  C   UNL     1     -43.696 -53.769  13.788  1.00  0.00     0.033 A 
HETATM   14  C   UNL     1     -42.854 -54.768  14.499  1.00  0.00     0.070 C 
ENDBRANCH   5   6
ENDBRANCH   1   5
BRANCH   3  15
HETATM   15  C   UNL     1     -46.819 -52.107  17.773  1.00  0.00     0.121 C 
HETATM   16  C   UNL     1     -48.146 -51.376  17.946  1.00  0.00     0.065 C 
HETATM   17  C   UNL     1     -47.862 -50.282  18.985  1.00  0.00     0.057 C 
HETATM   18  C   UNL     1     -48.311 -48.902  18.497  1.00  0.00     0.045 C 
HETATM   19  C   UNL     1     -48.516 -50.565  20.338  1.00  0.00     0.045 C 
HETATM   20  O   UNL     1     -46.439 -50.239  19.190  1.00  0.00    -0.369 OA
HETATM   21  C   UNL     1     -45.780 -51.056  18.203  1.00  0.00     0.075 C 
HETATM   22  C   UNL     1     -44.563 -51.700  18.865  1.00  0.00     0.048 C 
HETATM   23  C   UNL     1     -45.314 -50.127  17.074  1.00  0.00     0.048 C 
ENDBRANCH   3  15
TORSDOF 3
ENDMDL
