MODEL 1
REMARK VINA RESULT:      -6.4      0.000      0.000
REMARK  7 active torsions:
REMARK  status: ('A' for Active; 'I' for Inactive)
REMARK    1  A    between atoms: C_7  and  O_8 
REMARK    2  A    between atoms: O_8  and  C_9 
REMARK    3  A    between atoms: C_9  and  C_10 
REMARK    4  A    between atoms: C_10  and  N_11 
REMARK    5  A    between atoms: C_12  and  C_13 
REMARK    6  A    between atoms: C_13  and  N_14 
REMARK    7  A    between atoms: N_14  and  C_15 
ROOT
HETATM    1  N   UNL     1     -41.211 -48.815  12.780  1.00  0.00    -0.331 N 
HETATM    2  C   UNL     1     -41.297 -48.520  11.422  1.00  0.00     0.102 A 
HETATM    3  N   UNL     1     -40.203 -48.895  10.788  1.00  0.00    -0.343 N 
ATOM      4  HN  UNL     1     -39.988 -48.761   9.799  1.00  0.00     0.167 HD
HETATM    5  C   UNL     1     -39.415 -49.500  11.729  1.00  0.00     0.060 A 
HETATM    6  C   UNL     1     -38.150 -50.090  11.564  1.00  0.00     0.032 A 
HETATM    7  C   UNL     1     -37.514 -50.667  12.668  1.00  0.00     0.002 A 
HETATM    8  C   UNL     1     -38.137 -50.674  13.909  1.00  0.00     0.002 A 
HETATM    9  C   UNL     1     -39.404 -50.106  14.082  1.00  0.00     0.032 A 
HETATM   10  C   UNL     1     -40.029 -49.499  12.981  1.00  0.00     0.062 A 
ENDROOT
BRANCH   1  11
HETATM   11  C   UNL     1     -42.222 -48.389  13.734  1.00  0.00     0.157 C 
BRANCH  11  12
HETATM   12  C   UNL     1     -43.203 -49.406  14.306  1.00  0.00     0.196 C 
BRANCH  12  13
HETATM   13  O   UNL     1     -43.878 -50.085  13.243  1.00  0.00    -0.349 OA
BRANCH  13  14
HETATM   14  C   UNL     1     -43.757 -51.451  13.202  1.00  0.00     0.075 A 
HETATM   15  C   UNL     1     -44.956 -52.184  13.175  1.00  0.00    -0.029 A 
HETATM   16  C   UNL     1     -44.902 -53.585  13.114  1.00  0.00     0.010 A 
HETATM   17  C   UNL     1     -46.292 -51.493  13.209  1.00  0.00     0.051 C 
HETATM   18  C   UNL     1     -43.674 -54.249  13.071  1.00  0.00     0.007 A 
HETATM   19  C   UNL     1     -42.482 -53.525  13.097  1.00  0.00    -0.059 A 
HETATM   20  C   UNL     1     -41.148 -54.203  13.021  1.00  0.00     0.048 C 
HETATM   21  C   UNL     1     -42.534 -52.127  13.181  1.00  0.00     0.044 A 
ENDBRANCH  13  14
ENDBRANCH  12  13
ENDBRANCH  11  12
ENDBRANCH   1  11
BRANCH   2  22
HETATM   22  C   UNL     1     -42.481 -47.893  10.757  1.00  0.00     0.198 C 
BRANCH  22  23
HETATM   23  N   UNL     1     -42.454 -48.173   9.342  1.00  0.00    -0.361 N 
HETATM   24  H   UNL     1     -41.665 -48.696   8.984  1.00  0.00     0.162 HD
BRANCH  23  25
HETATM   25  C   UNL     1     -43.404 -47.708   8.478  1.00  0.00     0.348 C 
HETATM   26  O   UNL     1     -43.534 -48.058   7.310  1.00  0.00    -0.284 OA
ENDBRANCH  23  25
ENDBRANCH  22  23
ENDBRANCH   2  22
TORSDOF 7
ENDMDL
MODEL 2
REMARK VINA RESULT:      -6.2      1.256      2.373
REMARK  7 active torsions:
REMARK  status: ('A' for Active; 'I' for Inactive)
REMARK    1  A    between atoms: C_7  and  O_8 
REMARK    2  A    between atoms: O_8  and  C_9 
REMARK    3  A    between atoms: C_9  and  C_10 
REMARK    4  A    between atoms: C_10  and  N_11 
REMARK    5  A    between atoms: C_12  and  C_13 
REMARK    6  A    between atoms: C_13  and  N_14 
REMARK    7  A    between atoms: N_14  and  C_15 
ROOT
HETATM    1  N   UNL     1     -41.125 -49.096  12.569  1.00  0.00    -0.331 N 
HETATM    2  C   UNL     1     -40.817 -48.348  11.435  1.00  0.00     0.102 A 
HETATM    3  N   UNL     1     -39.565 -48.540  11.069  1.00  0.00    -0.343 N 
ATOM      4  HN  UNL     1     -39.072 -48.086  10.300  1.00  0.00     0.167 HD
HETATM    5  C   UNL     1     -39.062 -49.473  11.935  1.00  0.00     0.060 A 
HETATM    6  C   UNL     1     -37.775 -50.036  11.965  1.00  0.00     0.032 A 
HETATM    7  C   UNL     1     -37.467 -50.991  12.940  1.00  0.00     0.002 A 
HETATM    8  C   UNL     1     -38.431 -51.390  13.855  1.00  0.00     0.002 A 
HETATM    9  C   UNL     1     -39.720 -50.850  13.826  1.00  0.00     0.032 A 
HETATM   10  C   UNL     1     -40.021 -49.869  12.867  1.00  0.00     0.062 A 
ENDROOT
BRANCH   1  11
HETATM   11  C   UNL     1     -42.397 -48.971  13.262  1.00  0.00     0.157 C 
BRANCH  11  12
HETATM   12  C   UNL     1     -43.547 -49.907  12.912  1.00  0.00     0.196 C 
BRANCH  12  13
HETATM   13  O   UNL     1     -43.397 -51.148  13.609  1.00  0.00    -0.349 OA
BRANCH  13  14
HETATM   14  C   UNL     1     -44.548 -51.772  14.021  1.00  0.00     0.075 A 
HETATM   15  C   UNL     1     -44.782 -53.057  13.502  1.00  0.00    -0.029 A 
HETATM   16  C   UNL     1     -45.931 -53.757  13.898  1.00  0.00     0.010 A 
HETATM   17  C   UNL     1     -43.823 -53.691  12.532  1.00  0.00     0.051 C 
HETATM   18  C   UNL     1     -46.832 -53.194  14.806  1.00  0.00     0.007 A 
HETATM   19  C   UNL     1     -46.601 -51.920  15.324  1.00  0.00    -0.059 A 
HETATM   20  C   UNL     1     -47.530 -51.298  16.323  1.00  0.00     0.048 C 
HETATM   21  C   UNL     1     -45.466 -51.209  14.912  1.00  0.00     0.044 A 
ENDBRANCH  13  14
ENDBRANCH  12  13
ENDBRANCH  11  12
ENDBRANCH   1  11
BRANCH   2  22
HETATM   22  C   UNL     1     -41.782 -47.469  10.704  1.00  0.00     0.198 C 
BRANCH  22  23
HETATM   23  N   UNL     1     -42.321 -48.172   9.566  1.00  0.00    -0.361 N 
HETATM   24  H   UNL     1     -41.877 -49.042   9.301  1.00  0.00     0.162 HD
BRANCH  23  25
HETATM   25  C   UNL     1     -43.347 -47.681   8.811  1.00  0.00     0.348 C 
HETATM   26  O   UNL     1     -43.408 -47.714   7.588  1.00  0.00    -0.284 OA
ENDBRANCH  23  25
ENDBRANCH  22  23
ENDBRANCH   2  22
TORSDOF 7
ENDMDL
MODEL 3
REMARK VINA RESULT:      -6.1      1.927      2.551
REMARK  7 active torsions:
REMARK  status: ('A' for Active; 'I' for Inactive)
REMARK    1  A    between atoms: C_7  and  O_8 
REMARK    2  A    between atoms: O_8  and  C_9 
REMARK    3  A    between atoms: C_9  and  C_10 
REMARK    4  A    between atoms: C_10  and  N_11 
REMARK    5  A    between atoms: C_12  and  C_13 
REMARK    6  A    between atoms: C_13  and  N_14 
REMARK    7  A    between atoms: N_14  and  C_15 
ROOT
HETATM    1  N   UNL     1     -40.443 -48.377  12.820  1.00  0.00    -0.331 N 
HETATM    2  C   UNL     1     -40.156 -47.568  11.723  1.00  0.00     0.102 A 
HETATM    3  N   UNL     1     -39.040 -47.951  11.133  1.00  0.00    -0.343 N 
ATOM      4  HN  UNL     1     -38.583 -47.510  10.335  1.00  0.00     0.167 HD
HETATM    5  C   UNL     1     -38.622 -49.064  11.812  1.00  0.00     0.060 A 
HETATM    6  C   UNL     1     -37.493 -49.864  11.571  1.00  0.00     0.032 A 
HETATM    7  C   UNL     1     -37.252 -50.973  12.389  1.00  0.00     0.002 A 
HETATM    8  C   UNL     1     -38.131 -51.289  13.415  1.00  0.00     0.002 A 
HETATM    9  C   UNL     1     -39.268 -50.511  13.655  1.00  0.00     0.032 A 
HETATM   10  C   UNL     1     -39.494 -49.379  12.854  1.00  0.00     0.062 A 
ENDROOT
BRANCH   1  11
HETATM   11  C   UNL     1     -41.542 -48.095  13.728  1.00  0.00     0.157 C 
BRANCH  11  12
HETATM   12  C   UNL     1     -42.899 -48.751  13.503  1.00  0.00     0.196 C 
BRANCH  12  13
HETATM   13  O   UNL     1     -43.090 -49.814  14.442  1.00  0.00    -0.349 OA
BRANCH  13  14
HETATM   14  C   UNL     1     -44.301 -50.459  14.413  1.00  0.00     0.075 A 
HETATM   15  C   UNL     1     -44.941 -50.643  15.650  1.00  0.00    -0.029 A 
HETATM   16  C   UNL     1     -46.192 -51.278  15.688  1.00  0.00     0.010 A 
HETATM   17  C   UNL     1     -44.310 -50.170  16.931  1.00  0.00     0.051 C 
HETATM   18  C   UNL     1     -46.804 -51.716  14.511  1.00  0.00     0.007 A 
HETATM   19  C   UNL     1     -46.172 -51.534  13.281  1.00  0.00    -0.059 A 
HETATM   20  C   UNL     1     -46.814 -51.964  11.996  1.00  0.00     0.048 C 
HETATM   21  C   UNL     1     -44.913 -50.920  13.244  1.00  0.00     0.044 A 
ENDBRANCH  13  14
ENDBRANCH  12  13
ENDBRANCH  11  12
ENDBRANCH   1  11
BRANCH   2  22
HETATM   22  C   UNL     1     -41.011 -46.435  11.249  1.00  0.00     0.198 C 
BRANCH  22  23
HETATM   23  N   UNL     1     -41.729 -46.827  10.061  1.00  0.00    -0.361 N 
HETATM   24  H   UNL     1     -41.299 -47.520   9.462  1.00  0.00     0.162 HD
BRANCH  23  25
HETATM   25  C   UNL     1     -42.914 -46.257   9.691  1.00  0.00     0.348 C 
HETATM   26  O   UNL     1     -43.144 -45.739   8.605  1.00  0.00    -0.284 OA
ENDBRANCH  23  25
ENDBRANCH  22  23
ENDBRANCH   2  22
TORSDOF 7
ENDMDL
MODEL 4
REMARK VINA RESULT:      -6.0      2.416      3.498
REMARK  7 active torsions:
REMARK  status: ('A' for Active; 'I' for Inactive)
REMARK    1  A    between atoms: C_7  and  O_8 
REMARK    2  A    between atoms: O_8  and  C_9 
REMARK    3  A    between atoms: C_9  and  C_10 
REMARK    4  A    between atoms: C_10  and  N_11 
REMARK    5  A    between atoms: C_12  and  C_13 
REMARK    6  A    between atoms: C_13  and  N_14 
REMARK    7  A    between atoms: N_14  and  C_15 
ROOT
HETATM    1  N   UNL     1     -39.575 -48.908  12.300  1.00  0.00    -0.331 N 
HETATM    2  C   UNL     1     -39.919 -47.558  12.286  1.00  0.00     0.102 A 
HETATM    3  N   UNL     1     -39.312 -46.907  13.259  1.00  0.00    -0.343 N 
ATOM      4  HN  UNL     1     -39.417 -45.921  13.499  1.00  0.00     0.167 HD
HETATM    5  C   UNL     1     -38.510 -47.826  13.880  1.00  0.00     0.060 A 
HETATM    6  C   UNL     1     -37.641 -47.637  14.968  1.00  0.00     0.032 A 
HETATM    7  C   UNL     1     -36.899 -48.721  15.449  1.00  0.00     0.002 A 
HETATM    8  C   UNL     1     -37.007 -49.966  14.843  1.00  0.00     0.002 A 
HETATM    9  C   UNL     1     -37.856 -50.163  13.749  1.00  0.00     0.032 A 
HETATM   10  C   UNL     1     -38.624 -49.082  13.286  1.00  0.00     0.062 A 
ENDROOT
BRANCH   1  11
HETATM   11  C   UNL     1     -40.204 -49.880  11.421  1.00  0.00     0.157 C 
BRANCH  11  12
HETATM   12  C   UNL     1     -41.266 -50.825  11.971  1.00  0.00     0.196 C 
BRANCH  12  13
HETATM   13  O   UNL     1     -40.685 -52.102  12.254  1.00  0.00    -0.349 OA
BRANCH  13  14
HETATM   14  C   UNL     1     -41.443 -52.980  12.988  1.00  0.00     0.075 A 
HETATM   15  C   UNL     1     -40.766 -53.712  13.979  1.00  0.00    -0.029 A 
HETATM   16  C   UNL     1     -41.486 -54.613  14.777  1.00  0.00     0.010 A 
HETATM   17  C   UNL     1     -39.287 -53.545  14.196  1.00  0.00     0.051 C 
HETATM   18  C   UNL     1     -42.862 -54.778  14.602  1.00  0.00     0.007 A 
HETATM   19  C   UNL     1     -43.537 -54.053  13.620  1.00  0.00    -0.059 A 
HETATM   20  C   UNL     1     -45.018 -54.182  13.425  1.00  0.00     0.048 C 
HETATM   21  C   UNL     1     -42.816 -53.169  12.807  1.00  0.00     0.044 A 
ENDBRANCH  13  14
ENDBRANCH  12  13
ENDBRANCH  11  12
ENDBRANCH   1  11
BRANCH   2  22
HETATM   22  C   UNL     1     -40.828 -46.919  11.285  1.00  0.00     0.198 C 
BRANCH  22  23
HETATM   23  N   UNL     1     -40.049 -46.294  10.245  1.00  0.00    -0.361 N 
HETATM   24  H   UNL     1     -39.709 -46.884   9.496  1.00  0.00     0.162 HD
BRANCH  23  25
HETATM   25  C   UNL     1     -39.706 -44.972  10.270  1.00  0.00     0.348 C 
HETATM   26  O   UNL     1     -39.433 -44.290   9.290  1.00  0.00    -0.284 OA
ENDBRANCH  23  25
ENDBRANCH  22  23
ENDBRANCH   2  22
TORSDOF 7
ENDMDL
MODEL 5
REMARK VINA RESULT:      -5.8      2.389      4.475
REMARK  7 active torsions:
REMARK  status: ('A' for Active; 'I' for Inactive)
REMARK    1  A    between atoms: C_7  and  O_8 
REMARK    2  A    between atoms: O_8  and  C_9 
REMARK    3  A    between atoms: C_9  and  C_10 
REMARK    4  A    between atoms: C_10  and  N_11 
REMARK    5  A    between atoms: C_12  and  C_13 
REMARK    6  A    between atoms: C_13  and  N_14 
REMARK    7  A    between atoms: N_14  and  C_15 
ROOT
HETATM    1  N   UNL     1     -41.630 -48.252  12.472  1.00  0.00    -0.331 N 
HETATM    2  C   UNL     1     -40.852 -48.651  11.388  1.00  0.00     0.102 A 
HETATM    3  N   UNL     1     -40.622 -47.639  10.575  1.00  0.00    -0.343 N 
ATOM      4  HN  UNL     1     -40.116 -47.663   9.689  1.00  0.00     0.167 HD
HETATM    5  C   UNL     1     -41.202 -46.548  11.163  1.00  0.00     0.060 A 
HETATM    6  C   UNL     1     -41.228 -45.218  10.710  1.00  0.00     0.032 A 
HETATM    7  C   UNL     1     -41.877 -44.245  11.477  1.00  0.00     0.002 A 
HETATM    8  C   UNL     1     -42.471 -44.588  12.684  1.00  0.00     0.002 A 
HETATM    9  C   UNL     1     -42.438 -45.905  13.155  1.00  0.00     0.032 A 
HETATM   10  C   UNL     1     -41.814 -46.888  12.370  1.00  0.00     0.062 A 
ENDROOT
BRANCH   1  11
HETATM   11  C   UNL     1     -42.143 -49.197  13.451  1.00  0.00     0.157 C 
BRANCH  11  12
HETATM   12  C   UNL     1     -43.581 -49.691  13.347  1.00  0.00     0.196 C 
BRANCH  12  13
HETATM   13  O   UNL     1     -43.599 -51.115  13.199  1.00  0.00    -0.349 OA
BRANCH  13  14
HETATM   14  C   UNL     1     -44.659 -51.784  13.756  1.00  0.00     0.075 A 
HETATM   15  C   UNL     1     -44.807 -53.134  13.393  1.00  0.00    -0.029 A 
HETATM   16  C   UNL     1     -45.860 -53.880  13.942  1.00  0.00     0.010 A 
HETATM   17  C   UNL     1     -43.856 -53.789  12.428  1.00  0.00     0.051 C 
HETATM   18  C   UNL     1     -46.749 -53.298  14.848  1.00  0.00     0.007 A 
HETATM   19  C   UNL     1     -46.605 -51.959  15.212  1.00  0.00    -0.059 A 
HETATM   20  C   UNL     1     -47.522 -51.311  16.205  1.00  0.00     0.048 C 
HETATM   21  C   UNL     1     -45.567 -51.205  14.647  1.00  0.00     0.044 A 
ENDBRANCH  13  14
ENDBRANCH  12  13
ENDBRANCH  11  12
ENDBRANCH   1  11
BRANCH   2  22
HETATM   22  C   UNL     1     -40.316 -50.033  11.183  1.00  0.00     0.198 C 
BRANCH  22  23
HETATM   23  N   UNL     1     -38.892 -49.978  10.959  1.00  0.00    -0.361 N 
HETATM   24  H   UNL     1     -38.574 -49.733  10.030  1.00  0.00     0.162 HD
BRANCH  23  25
HETATM   25  C   UNL     1     -37.980 -50.302  11.923  1.00  0.00     0.348 C 
HETATM   26  O   UNL     1     -37.158 -51.208  11.846  1.00  0.00    -0.284 OA
ENDBRANCH  23  25
ENDBRANCH  22  23
ENDBRANCH   2  22
TORSDOF 7
ENDMDL
MODEL 6
REMARK VINA RESULT:      -5.8      2.211      4.610
REMARK  7 active torsions:
REMARK  status: ('A' for Active; 'I' for Inactive)
REMARK    1  A    between atoms: C_7  and  O_8 
REMARK    2  A    between atoms: O_8  and  C_9 
REMARK    3  A    between atoms: C_9  and  C_10 
REMARK    4  A    between atoms: C_10  and  N_11 
REMARK    5  A    between atoms: C_12  and  C_13 
REMARK    6  A    between atoms: C_13  and  N_14 
REMARK    7  A    between atoms: N_14  and  C_15 
ROOT
HETATM    1  N   UNL     1     -41.039 -48.885  11.974  1.00  0.00    -0.331 N 
HETATM    2  C   UNL     1     -39.802 -48.249  11.902  1.00  0.00     0.102 A 
HETATM    3  N   UNL     1     -39.875 -47.156  11.168  1.00  0.00    -0.343 N 
ATOM      4  HN  UNL     1     -39.110 -46.528  10.921  1.00  0.00     0.167 HD
HETATM    5  C   UNL     1     -41.190 -47.037  10.806  1.00  0.00     0.060 A 
HETATM    6  C   UNL     1     -41.799 -46.033  10.034  1.00  0.00     0.032 A 
HETATM    7  C   UNL     1     -43.174 -46.099   9.785  1.00  0.00     0.002 A 
HETATM    8  C   UNL     1     -43.931 -47.136  10.312  1.00  0.00     0.002 A 
HETATM    9  C   UNL     1     -43.340 -48.133  11.096  1.00  0.00     0.032 A 
HETATM   10  C   UNL     1     -41.954 -48.084  11.320  1.00  0.00     0.062 A 
ENDROOT
BRANCH   1  11
HETATM   11  C   UNL     1     -41.212 -50.182  12.608  1.00  0.00     0.157 C 
BRANCH  11  12
HETATM   12  C   UNL     1     -41.611 -50.261  14.077  1.00  0.00     0.196 C 
BRANCH  12  13
HETATM   13  O   UNL     1     -41.886 -51.618  14.436  1.00  0.00    -0.349 OA
BRANCH  13  14
HETATM   14  C   UNL     1     -43.083 -52.142  14.015  1.00  0.00     0.075 A 
HETATM   15  C   UNL     1     -43.026 -53.388  13.367  1.00  0.00    -0.029 A 
HETATM   16  C   UNL     1     -44.216 -53.987  12.929  1.00  0.00     0.010 A 
HETATM   17  C   UNL     1     -41.714 -54.087  13.138  1.00  0.00     0.051 C 
HETATM   18  C   UNL     1     -45.448 -53.363  13.140  1.00  0.00     0.007 A 
HETATM   19  C   UNL     1     -45.508 -52.127  13.783  1.00  0.00    -0.059 A 
HETATM   20  C   UNL     1     -46.815 -51.444  14.054  1.00  0.00     0.048 C 
HETATM   21  C   UNL     1     -44.319 -51.516  14.202  1.00  0.00     0.044 A 
ENDBRANCH  13  14
ENDBRANCH  12  13
ENDBRANCH  11  12
ENDBRANCH   1  11
BRANCH   2  22
HETATM   22  C   UNL     1     -38.559 -48.718  12.590  1.00  0.00     0.198 C 
BRANCH  22  23
HETATM   23  N   UNL     1     -37.981 -49.819  11.860  1.00  0.00    -0.361 N 
HETATM   24  H   UNL     1     -37.819 -49.690  10.869  1.00  0.00     0.162 HD
BRANCH  23  25
HETATM   25  C   UNL     1     -37.711 -51.028  12.436  1.00  0.00     0.348 C 
HETATM   26  O   UNL     1     -36.711 -51.705  12.229  1.00  0.00    -0.284 OA
ENDBRANCH  23  25
ENDBRANCH  22  23
ENDBRANCH   2  22
TORSDOF 7
ENDMDL
MODEL 7
REMARK VINA RESULT:      -5.8      1.907      3.048
REMARK  7 active torsions:
REMARK  status: ('A' for Active; 'I' for Inactive)
REMARK    1  A    between atoms: C_7  and  O_8 
REMARK    2  A    between atoms: O_8  and  C_9 
REMARK    3  A    between atoms: C_9  and  C_10 
REMARK    4  A    between atoms: C_10  and  N_11 
REMARK    5  A    between atoms: C_12  and  C_13 
REMARK    6  A    between atoms: C_13  and  N_14 
REMARK    7  A    between atoms: N_14  and  C_15 
ROOT
HETATM    1  N   UNL     1     -40.932 -48.717  11.972  1.00  0.00    -0.331 N 
HETATM    2  C   UNL     1     -41.827 -47.731  11.563  1.00  0.00     0.102 A 
HETATM    3  N   UNL     1     -41.541 -46.572  12.123  1.00  0.00    -0.343 N 
ATOM      4  HN  UNL     1     -42.058 -45.698  12.027  1.00  0.00     0.167 HD
HETATM    5  C   UNL     1     -40.406 -46.783  12.858  1.00  0.00     0.060 A 
HETATM    6  C   UNL     1     -39.680 -45.862  13.633  1.00  0.00     0.032 A 
HETATM    7  C   UNL     1     -38.531 -46.289  14.306  1.00  0.00     0.002 A 
HETATM    8  C   UNL     1     -38.102 -47.604  14.193  1.00  0.00     0.002 A 
HETATM    9  C   UNL     1     -38.806 -48.527  13.412  1.00  0.00     0.032 A 
HETATM   10  C   UNL     1     -39.977 -48.106  12.761  1.00  0.00     0.062 A 
ENDROOT
BRANCH   1  11
HETATM   11  C   UNL     1     -41.097 -50.116  11.612  1.00  0.00     0.157 C 
BRANCH  11  12
HETATM   12  C   UNL     1     -42.057 -50.995  12.405  1.00  0.00     0.196 C 
BRANCH  12  13
HETATM   13  O   UNL     1     -41.788 -52.375  12.140  1.00  0.00    -0.349 OA
BRANCH  13  14
HETATM   14  C   UNL     1     -42.312 -53.290  13.018  1.00  0.00     0.075 A 
HETATM   15  C   UNL     1     -41.435 -53.796  13.992  1.00  0.00    -0.029 A 
HETATM   16  C   UNL     1     -41.914 -54.721  14.932  1.00  0.00     0.010 A 
HETATM   17  C   UNL     1     -39.995 -53.363  14.043  1.00  0.00     0.051 C 
HETATM   18  C   UNL     1     -43.249 -55.131  14.912  1.00  0.00     0.007 A 
HETATM   19  C   UNL     1     -44.123 -54.630  13.948  1.00  0.00    -0.059 A 
HETATM   20  C   UNL     1     -45.569 -55.024  13.916  1.00  0.00     0.048 C 
HETATM   21  C   UNL     1     -43.641 -53.723  12.994  1.00  0.00     0.044 A 
ENDBRANCH  13  14
ENDBRANCH  12  13
ENDBRANCH  11  12
ENDBRANCH   1  11
BRANCH   2  22
HETATM   22  C   UNL     1     -42.947 -47.943  10.593  1.00  0.00     0.198 C 
BRANCH  22  23
HETATM   23  N   UNL     1     -42.592 -47.392   9.308  1.00  0.00    -0.361 N 
HETATM   24  H   UNL     1     -41.669 -46.989   9.211  1.00  0.00     0.162 HD
BRANCH  23  25
HETATM   25  C   UNL     1     -43.466 -47.340   8.260  1.00  0.00     0.348 C 
HETATM   26  O   UNL     1     -43.506 -48.135   7.328  1.00  0.00    -0.284 OA
ENDBRANCH  23  25
ENDBRANCH  22  23
ENDBRANCH   2  22
TORSDOF 7
ENDMDL
MODEL 8
REMARK VINA RESULT:      -5.8      2.852      6.614
REMARK  7 active torsions:
REMARK  status: ('A' for Active; 'I' for Inactive)
REMARK    1  A    between atoms: C_7  and  O_8 
REMARK    2  A    between atoms: O_8  and  C_9 
REMARK    3  A    between atoms: C_9  and  C_10 
REMARK    4  A    between atoms: C_10  and  N_11 
REMARK    5  A    between atoms: C_12  and  C_13 
REMARK    6  A    between atoms: C_13  and  N_14 
REMARK    7  A    between atoms: N_14  and  C_15 
ROOT
HETATM    1  N   UNL     1     -42.682 -51.893  13.760  1.00  0.00    -0.331 N 
HETATM    2  C   UNL     1     -42.442 -52.619  12.596  1.00  0.00     0.102 A 
HETATM    3  N   UNL     1     -43.573 -52.998  12.035  1.00  0.00    -0.343 N 
ATOM      4  HN  UNL     1     -43.684 -53.573  11.199  1.00  0.00     0.167 HD
HETATM    5  C   UNL     1     -44.570 -52.461  12.804  1.00  0.00     0.060 A 
HETATM    6  C   UNL     1     -45.961 -52.554  12.626  1.00  0.00     0.032 A 
HETATM    7  C   UNL     1     -46.812 -51.917  13.535  1.00  0.00     0.002 A 
HETATM    8  C   UNL     1     -46.286 -51.184  14.590  1.00  0.00     0.002 A 
HETATM    9  C   UNL     1     -44.903 -51.069  14.768  1.00  0.00     0.032 A 
HETATM   10  C   UNL     1     -44.049 -51.735  13.874  1.00  0.00     0.062 A 
ENDROOT
BRANCH   1  11
HETATM   11  C   UNL     1     -41.611 -51.469  14.647  1.00  0.00     0.157 C 
BRANCH  11  12
HETATM   12  C   UNL     1     -40.630 -50.393  14.193  1.00  0.00     0.196 C 
BRANCH  12  13
HETATM   13  O   UNL     1     -41.258 -49.108  14.239  1.00  0.00    -0.349 OA
BRANCH  13  14
HETATM   14  C   UNL     1     -41.152 -48.324  13.118  1.00  0.00     0.075 A 
HETATM   15  C   UNL     1     -40.112 -47.378  13.113  1.00  0.00    -0.029 A 
HETATM   16  C   UNL     1     -39.937 -46.558  11.989  1.00  0.00     0.010 A 
HETATM   17  C   UNL     1     -39.187 -47.232  14.291  1.00  0.00     0.051 C 
HETATM   18  C   UNL     1     -40.776 -46.682  10.879  1.00  0.00     0.007 A 
HETATM   19  C   UNL     1     -41.808 -47.620  10.880  1.00  0.00    -0.059 A 
HETATM   20  C   UNL     1     -42.707 -47.801   9.694  1.00  0.00     0.048 C 
HETATM   21  C   UNL     1     -41.999 -48.425  12.011  1.00  0.00     0.044 A 
ENDBRANCH  13  14
ENDBRANCH  12  13
ENDBRANCH  11  12
ENDBRANCH   1  11
BRANCH   2  22
HETATM   22  C   UNL     1     -41.086 -52.906  12.032  1.00  0.00     0.198 C 
BRANCH  22  23
HETATM   23  N   UNL     1     -40.646 -54.213  12.455  1.00  0.00    -0.361 N 
HETATM   24  H   UNL     1     -41.007 -55.014  11.952  1.00  0.00     0.162 HD
BRANCH  23  25
HETATM   25  C   UNL     1     -39.827 -54.404  13.532  1.00  0.00     0.348 C 
HETATM   26  O   UNL     1     -38.806 -53.770  13.769  1.00  0.00    -0.284 OA
ENDBRANCH  23  25
ENDBRANCH  22  23
ENDBRANCH   2  22
TORSDOF 7
ENDMDL
MODEL 9
REMARK VINA RESULT:      -5.6      2.887      5.244
REMARK  7 active torsions:
REMARK  status: ('A' for Active; 'I' for Inactive)
REMARK    1  A    between atoms: C_7  and  O_8 
REMARK    2  A    between atoms: O_8  and  C_9 
REMARK    3  A    between atoms: C_9  and  C_10 
REMARK    4  A    between atoms: C_10  and  N_11 
REMARK    5  A    between atoms: C_12  and  C_13 
REMARK    6  A    between atoms: C_13  and  N_14 
REMARK    7  A    between atoms: N_14  and  C_15 
ROOT
HETATM    1  N   UNL     1     -41.101 -52.146  13.975  1.00  0.00    -0.331 N 
HETATM    2  C   UNL     1     -39.902 -51.977  14.665  1.00  0.00     0.102 A 
HETATM    3  N   UNL     1     -39.769 -52.886  15.611  1.00  0.00    -0.343 N 
ATOM      4  HN  UNL     1     -39.008 -52.965  16.286  1.00  0.00     0.167 HD
HETATM    5  C   UNL     1     -40.863 -53.701  15.501  1.00  0.00     0.060 A 
HETATM    6  C   UNL     1     -41.191 -54.835  16.264  1.00  0.00     0.032 A 
HETATM    7  C   UNL     1     -42.367 -55.537  15.978  1.00  0.00     0.002 A 
HETATM    8  C   UNL     1     -43.189 -55.128  14.937  1.00  0.00     0.002 A 
HETATM    9  C   UNL     1     -42.866 -54.012  14.159  1.00  0.00     0.032 A 
HETATM   10  C   UNL     1     -41.702 -53.288  14.466  1.00  0.00     0.062 A 
ENDROOT
BRANCH   1  11
HETATM   11  C   UNL     1     -41.561 -51.201  12.972  1.00  0.00     0.157 C 
BRANCH  11  12
HETATM   12  C   UNL     1     -42.660 -50.203  13.317  1.00  0.00     0.196 C 
BRANCH  12  13
HETATM   13  O   UNL     1     -43.944 -50.791  13.091  1.00  0.00    -0.349 OA
BRANCH  13  14
HETATM   14  C   UNL     1     -44.774 -50.909  14.177  1.00  0.00     0.075 A 
HETATM   15  C   UNL     1     -46.075 -51.375  13.923  1.00  0.00    -0.029 A 
HETATM   16  C   UNL     1     -46.968 -51.535  14.993  1.00  0.00     0.010 A 
HETATM   17  C   UNL     1     -46.525 -51.704  12.525  1.00  0.00     0.051 C 
HETATM   18  C   UNL     1     -46.571 -51.246  16.301  1.00  0.00     0.007 A 
HETATM   19  C   UNL     1     -45.280 -50.784  16.557  1.00  0.00    -0.059 A 
HETATM   20  C   UNL     1     -44.811 -50.494  17.951  1.00  0.00     0.048 C 
HETATM   21  C   UNL     1     -44.394 -50.602  15.487  1.00  0.00     0.044 A 
ENDBRANCH  13  14
ENDBRANCH  12  13
ENDBRANCH  11  12
ENDBRANCH   1  11
BRANCH   2  22
HETATM   22  C   UNL     1     -38.881 -50.928  14.358  1.00  0.00     0.198 C 
BRANCH  22  23
HETATM   23  N   UNL     1     -37.964 -51.415  13.357  1.00  0.00    -0.361 N 
HETATM   24  H   UNL     1     -37.591 -52.348  13.479  1.00  0.00     0.162 HD
BRANCH  23  25
HETATM   25  C   UNL     1     -37.540 -50.650  12.307  1.00  0.00     0.348 C 
HETATM   26  O   UNL     1     -37.776 -49.457  12.158  1.00  0.00    -0.284 OA
ENDBRANCH  23  25
ENDBRANCH  22  23
ENDBRANCH   2  22
TORSDOF 7
ENDMDL
