MODEL 1
REMARK VINA RESULT:      -6.8      0.000      0.000
REMARK  4 active torsions:
REMARK  status: ('A' for Active; 'I' for Inactive)
REMARK       I    between atoms: N_2  and  C_4 
REMARK    1  A    between atoms: C_4  and  C_6 
REMARK    2  A    between atoms: C_6  and  C_7 
REMARK    3  A    between atoms: C_7  and  N_8 
REMARK       I    between atoms: N_8  and  C_9 
REMARK       I    between atoms: C_9  and  N_11 
REMARK    4  A    between atoms: N_11  and  C_12 
ROOT
HETATM    1  N   UNL     1     -40.773 -49.367  10.652  1.00  0.00    -0.342 N 
HETATM    2  C   UNL     1     -41.943 -48.639  10.688  1.00  0.00     0.323 C 
HETATM    3  O   UNL     1     -42.637 -48.570  11.692  1.00  0.00    -0.247 OA
HETATM    4  N   UNL     1     -42.210 -48.048   9.482  1.00  0.00    -0.273 N 
HETATM    5  H   UNL     1     -40.482 -49.675   9.739  1.00  0.00     0.164 HD
HETATM    6  H   UNL     1     -41.664 -48.260   8.664  1.00  0.00     0.174 HD
ENDROOT
BRANCH   1   7
HETATM    7  C   UNL     1     -40.451 -50.235  11.772  1.00  0.00     0.143 C 
BRANCH   7   8
HETATM    8  C   UNL     1     -39.222 -49.811  12.607  1.00  0.00     0.057 C 
HETATM    9  C   UNL     1     -38.424 -51.084  13.041  1.00  0.00     0.021 C 
HETATM   10  C   UNL     1     -37.156 -51.159  12.192  1.00  0.00     0.001 C 
HETATM   11  C   UNL     1     -37.224 -50.012  11.205  1.00  0.00     0.001 C 
HETATM   12  C   UNL     1     -38.155 -49.000  11.850  1.00  0.00     0.021 C 
BRANCH   8  13
HETATM   13  C   UNL     1     -39.765 -49.068  13.855  1.00  0.00     0.229 C 
HETATM   14  N   UNL     1     -40.064 -47.708  13.812  1.00  0.00    -0.360 N 
HETATM   15  C   UNL     1     -40.590 -47.127  15.041  1.00  0.00     0.152 C 
HETATM   16  C   UNL     1     -39.690 -46.760  12.774  1.00  0.00     0.152 C 
HETATM   17  O   UNL     1     -40.009 -49.710  14.885  1.00  0.00    -0.272 OA
ENDBRANCH   8  13
ENDBRANCH   7   8
ENDBRANCH   1   7
BRANCH   4  18
HETATM   18  C   UNL     1     -43.356 -47.342   9.260  1.00  0.00     0.252 A 
HETATM   19  N   UNL     1     -44.561 -47.854   9.212  1.00  0.00    -0.309 N 
HETATM   20  C   UNL     1     -45.336 -46.733   9.049  1.00  0.00     0.101 A 
ATOM     21  HN  UNL     1     -44.848 -48.831   9.279  1.00  0.00     0.170 HD
HETATM   22  C   UNL     1     -46.808 -46.776   9.065  1.00  0.00     0.091 C 
HETATM   23  N   UNL     1     -44.660 -45.586   8.926  1.00  0.00    -0.246 N 
HETATM   24  O   UNL     1     -43.329 -45.991   9.077  1.00  0.00    -0.199 OA
ATOM     25  HN  UNL     1     -45.024 -44.647   8.762  1.00  0.00     0.196 HD
ENDBRANCH   4  18
TORSDOF 4
ENDMDL
MODEL 2
REMARK VINA RESULT:      -6.7      3.424      4.596
REMARK  4 active torsions:
REMARK  status: ('A' for Active; 'I' for Inactive)
REMARK       I    between atoms: N_2  and  C_4 
REMARK    1  A    between atoms: C_4  and  C_6 
REMARK    2  A    between atoms: C_6  and  C_7 
REMARK    3  A    between atoms: C_7  and  N_8 
REMARK       I    between atoms: N_8  and  C_9 
REMARK       I    between atoms: C_9  and  N_11 
REMARK    4  A    between atoms: N_11  and  C_12 
ROOT
HETATM    1  N   UNL     1     -40.918 -45.704  10.308  1.00  0.00    -0.342 N 
HETATM    2  C   UNL     1     -42.184 -45.877   9.790  1.00  0.00     0.323 C 
HETATM    3  O   UNL     1     -42.991 -44.960   9.722  1.00  0.00    -0.247 OA
HETATM    4  N   UNL     1     -42.400 -47.171   9.399  1.00  0.00    -0.273 N 
HETATM    5  H   UNL     1     -40.479 -46.536  10.667  1.00  0.00     0.164 HD
HETATM    6  H   UNL     1     -41.737 -47.898   9.610  1.00  0.00     0.174 HD
ENDROOT
BRANCH   1   7
HETATM    7  C   UNL     1     -40.594 -44.452  10.970  1.00  0.00     0.143 C 
BRANCH   7   8
HETATM    8  C   UNL     1     -40.806 -44.437  12.500  1.00  0.00     0.057 C 
HETATM    9  C   UNL     1     -40.992 -45.902  13.015  1.00  0.00     0.021 C 
HETATM   10  C   UNL     1     -39.707 -46.317  13.732  1.00  0.00     0.001 C 
HETATM   11  C   UNL     1     -38.732 -45.168  13.578  1.00  0.00     0.001 C 
HETATM   12  C   UNL     1     -39.605 -43.949  13.330  1.00  0.00     0.021 C 
BRANCH   8  13
HETATM   13  C   UNL     1     -42.091 -43.610  12.764  1.00  0.00     0.229 C 
HETATM   14  N   UNL     1     -42.210 -42.297  12.315  1.00  0.00    -0.360 N 
HETATM   15  C   UNL     1     -43.474 -41.630  12.604  1.00  0.00     0.152 C 
HETATM   16  C   UNL     1     -41.145 -41.442  11.811  1.00  0.00     0.152 C 
HETATM   17  O   UNL     1     -43.058 -44.150  13.318  1.00  0.00    -0.272 OA
ENDBRANCH   8  13
ENDBRANCH   7   8
ENDBRANCH   1   7
BRANCH   4  18
HETATM   18  C   UNL     1     -43.609 -47.593   8.929  1.00  0.00     0.252 A 
HETATM   19  N   UNL     1     -44.711 -47.662   9.635  1.00  0.00    -0.309 N 
HETATM   20  C   UNL     1     -45.625 -48.058   8.690  1.00  0.00     0.101 A 
ATOM     21  HN  UNL     1     -44.852 -47.470  10.627  1.00  0.00     0.170 HD
HETATM   22  C   UNL     1     -47.066 -48.158   8.972  1.00  0.00     0.091 C 
HETATM   23  N   UNL     1     -45.120 -48.299   7.475  1.00  0.00    -0.246 N 
HETATM   24  O   UNL     1     -43.766 -47.977   7.630  1.00  0.00    -0.199 OA
ATOM     25  HN  UNL     1     -45.602 -48.634   6.641  1.00  0.00     0.196 HD
ENDBRANCH   4  18
TORSDOF 4
ENDMDL
MODEL 3
REMARK VINA RESULT:      -6.4      2.799      4.244
REMARK  4 active torsions:
REMARK  status: ('A' for Active; 'I' for Inactive)
REMARK       I    between atoms: N_2  and  C_4 
REMARK    1  A    between atoms: C_4  and  C_6 
REMARK    2  A    between atoms: C_6  and  C_7 
REMARK    3  A    between atoms: C_7  and  N_8 
REMARK       I    between atoms: N_8  and  C_9 
REMARK       I    between atoms: C_9  and  N_11 
REMARK    4  A    between atoms: N_11  and  C_12 
ROOT
HETATM    1  N   UNL     1     -40.614 -46.321  10.257  1.00  0.00    -0.342 N 
HETATM    2  C   UNL     1     -41.893 -46.280   9.743  1.00  0.00     0.323 C 
HETATM    3  O   UNL     1     -42.499 -45.229   9.585  1.00  0.00    -0.247 OA
HETATM    4  N   UNL     1     -42.369 -47.533   9.465  1.00  0.00    -0.273 N 
HETATM    5  H   UNL     1     -40.351 -47.189  10.693  1.00  0.00     0.164 HD
HETATM    6  H   UNL     1     -41.866 -48.357   9.746  1.00  0.00     0.174 HD
ENDROOT
BRANCH   1   7
HETATM    7  C   UNL     1     -40.040 -45.107  10.810  1.00  0.00     0.143 C 
BRANCH   7   8
HETATM    8  C   UNL     1     -40.273 -44.891  12.321  1.00  0.00     0.057 C 
HETATM    9  C   UNL     1     -39.106 -44.034  12.911  1.00  0.00     0.021 C 
HETATM   10  C   UNL     1     -39.638 -42.625  13.169  1.00  0.00     0.001 C 
HETATM   11  C   UNL     1     -41.066 -42.600  12.664  1.00  0.00     0.001 C 
HETATM   12  C   UNL     1     -41.511 -44.052  12.686  1.00  0.00     0.021 C 
BRANCH   8  13
HETATM   13  C   UNL     1     -40.289 -46.297  12.976  1.00  0.00     0.229 C 
HETATM   14  N   UNL     1     -41.488 -46.927  13.303  1.00  0.00    -0.360 N 
HETATM   15  C   UNL     1     -41.375 -48.256  13.892  1.00  0.00     0.152 C 
HETATM   16  C   UNL     1     -42.812 -46.325  13.351  1.00  0.00     0.152 C 
HETATM   17  O   UNL     1     -39.222 -46.902  13.141  1.00  0.00    -0.272 OA
ENDBRANCH   8  13
ENDBRANCH   7   8
ENDBRANCH   1   7
BRANCH   4  18
HETATM   18  C   UNL     1     -43.642 -47.742   9.021  1.00  0.00     0.252 A 
HETATM   19  N   UNL     1     -44.725 -47.611   9.746  1.00  0.00    -0.309 N 
HETATM   20  C   UNL     1     -45.712 -47.850   8.822  1.00  0.00     0.101 A 
ATOM     21  HN  UNL     1     -44.812 -47.390  10.738  1.00  0.00     0.170 HD
HETATM   22  C   UNL     1     -47.143 -47.696   9.130  1.00  0.00     0.091 C 
HETATM   23  N   UNL     1     -45.281 -48.186   7.601  1.00  0.00    -0.246 N 
HETATM   24  O   UNL     1     -43.889 -48.103   7.730  1.00  0.00    -0.199 OA
ATOM     25  HN  UNL     1     -45.830 -48.439   6.780  1.00  0.00     0.196 HD
ENDBRANCH   4  18
TORSDOF 4
ENDMDL
MODEL 4
REMARK VINA RESULT:      -6.3      4.452      5.718
REMARK  4 active torsions:
REMARK  status: ('A' for Active; 'I' for Inactive)
REMARK       I    between atoms: N_2  and  C_4 
REMARK    1  A    between atoms: C_4  and  C_6 
REMARK    2  A    between atoms: C_6  and  C_7 
REMARK    3  A    between atoms: C_7  and  N_8 
REMARK       I    between atoms: N_8  and  C_9 
REMARK       I    between atoms: C_9  and  N_11 
REMARK    4  A    between atoms: N_11  and  C_12 
ROOT
HETATM    1  N   UNL     1     -42.402 -51.398  13.354  1.00  0.00    -0.342 N 
HETATM    2  C   UNL     1     -42.514 -50.104  12.891  1.00  0.00     0.323 C 
HETATM    3  O   UNL     1     -43.125 -49.242  13.507  1.00  0.00    -0.247 OA
HETATM    4  N   UNL     1     -41.886 -49.940  11.686  1.00  0.00    -0.273 N 
HETATM    5  H   UNL     1     -42.231 -52.097  12.649  1.00  0.00     0.164 HD
HETATM    6  H   UNL     1     -41.520 -50.726  11.176  1.00  0.00     0.174 HD
ENDROOT
BRANCH   1   7
HETATM    7  C   UNL     1     -43.190 -51.804  14.504  1.00  0.00     0.143 C 
BRANCH   7   8
HETATM    8  C   UNL     1     -43.959 -53.134  14.346  1.00  0.00     0.057 C 
HETATM    9  C   UNL     1     -42.945 -54.293  14.074  1.00  0.00     0.021 C 
HETATM   10  C   UNL     1     -42.828 -55.127  15.349  1.00  0.00     0.001 C 
HETATM   11  C   UNL     1     -43.679 -54.441  16.398  1.00  0.00     0.001 C 
HETATM   12  C   UNL     1     -44.691 -53.630  15.606  1.00  0.00     0.021 C 
BRANCH   8  13
HETATM   13  C   UNL     1     -44.910 -52.959  13.133  1.00  0.00     0.229 C 
HETATM   14  N   UNL     1     -45.969 -52.055  13.171  1.00  0.00    -0.360 N 
HETATM   15  C   UNL     1     -46.778 -51.962  11.962  1.00  0.00     0.152 C 
HETATM   16  C   UNL     1     -46.504 -51.379  14.343  1.00  0.00     0.152 C 
HETATM   17  O   UNL     1     -44.679 -53.577  12.086  1.00  0.00    -0.272 OA
ENDBRANCH   8  13
ENDBRANCH   7   8
ENDBRANCH   1   7
BRANCH   4  18
HETATM   18  C   UNL     1     -41.932 -48.762  10.999  1.00  0.00     0.252 A 
HETATM   19  N   UNL     1     -42.992 -48.281  10.396  1.00  0.00    -0.309 N 
HETATM   20  C   UNL     1     -42.532 -47.069   9.945  1.00  0.00     0.101 A 
ATOM     21  HN  UNL     1     -43.917 -48.699  10.290  1.00  0.00     0.170 HD
HETATM   22  C   UNL     1     -43.407 -46.079   9.297  1.00  0.00     0.091 C 
HETATM   23  N   UNL     1     -41.238 -46.826  10.182  1.00  0.00    -0.246 N 
HETATM   24  O   UNL     1     -40.835 -47.959  10.900  1.00  0.00    -0.199 OA
ATOM     25  HN  UNL     1     -40.682 -46.017   9.908  1.00  0.00     0.196 HD
ENDBRANCH   4  18
TORSDOF 4
ENDMDL
MODEL 5
REMARK VINA RESULT:      -6.2      4.259      5.222
REMARK  4 active torsions:
REMARK  status: ('A' for Active; 'I' for Inactive)
REMARK       I    between atoms: N_2  and  C_4 
REMARK    1  A    between atoms: C_4  and  C_6 
REMARK    2  A    between atoms: C_6  and  C_7 
REMARK    3  A    between atoms: C_7  and  N_8 
REMARK       I    between atoms: N_8  and  C_9 
REMARK       I    between atoms: C_9  and  N_11 
REMARK    4  A    between atoms: N_11  and  C_12 
ROOT
HETATM    1  N   UNL     1     -42.139 -51.210  12.856  1.00  0.00    -0.342 N 
HETATM    2  C   UNL     1     -42.505 -49.956  12.414  1.00  0.00     0.323 C 
HETATM    3  O   UNL     1     -43.388 -49.306  12.956  1.00  0.00    -0.247 OA
HETATM    4  N   UNL     1     -41.780 -49.573  11.318  1.00  0.00    -0.273 N 
HETATM    5  H   UNL     1     -41.707 -51.803  12.167  1.00  0.00     0.164 HD
HETATM    6  H   UNL     1     -41.166 -50.215  10.847  1.00  0.00     0.174 HD
ENDROOT
BRANCH   1   7
HETATM    7  C   UNL     1     -42.950 -51.863  13.868  1.00  0.00     0.143 C 
BRANCH   7   8
HETATM    8  C   UNL     1     -42.799 -53.398  13.952  1.00  0.00     0.057 C 
HETATM    9  C   UNL     1     -41.898 -53.897  12.776  1.00  0.00     0.021 C 
HETATM   10  C   UNL     1     -40.530 -54.264  13.351  1.00  0.00     0.001 C 
HETATM   11  C   UNL     1     -40.569 -53.911  14.824  1.00  0.00     0.001 C 
HETATM   12  C   UNL     1     -42.044 -53.922  15.187  1.00  0.00     0.021 C 
BRANCH   8  13
HETATM   13  C   UNL     1     -44.225 -53.994  13.825  1.00  0.00     0.229 C 
HETATM   14  N   UNL     1     -45.123 -53.951  14.889  1.00  0.00    -0.360 N 
HETATM   15  C   UNL     1     -46.440 -54.524  14.641  1.00  0.00     0.152 C 
HETATM   16  C   UNL     1     -44.825 -53.627  16.276  1.00  0.00     0.152 C 
HETATM   17  O   UNL     1     -44.598 -54.449  12.736  1.00  0.00    -0.272 OA
ENDBRANCH   8  13
ENDBRANCH   7   8
ENDBRANCH   1   7
BRANCH   4  18
HETATM   18  C   UNL     1     -42.024 -48.401  10.662  1.00  0.00     0.252 A 
HETATM   19  N   UNL     1     -43.131 -48.111  10.024  1.00  0.00    -0.309 N 
HETATM   20  C   UNL     1     -42.894 -46.818   9.627  1.00  0.00     0.101 A 
ATOM     21  HN  UNL     1     -43.953 -48.693   9.864  1.00  0.00     0.170 HD
HETATM   22  C   UNL     1     -43.917 -45.990   8.966  1.00  0.00     0.091 C 
HETATM   23  N   UNL     1     -41.682 -46.341   9.931  1.00  0.00    -0.246 N 
HETATM   24  O   UNL     1     -41.099 -47.401  10.636  1.00  0.00    -0.199 OA
ATOM     25  HN  UNL     1     -41.281 -45.431   9.704  1.00  0.00     0.196 HD
ENDBRANCH   4  18
TORSDOF 4
ENDMDL
MODEL 6
REMARK VINA RESULT:      -6.2      3.801      5.389
REMARK  4 active torsions:
REMARK  status: ('A' for Active; 'I' for Inactive)
REMARK       I    between atoms: N_2  and  C_4 
REMARK    1  A    between atoms: C_4  and  C_6 
REMARK    2  A    between atoms: C_6  and  C_7 
REMARK    3  A    between atoms: C_7  and  N_8 
REMARK       I    between atoms: N_8  and  C_9 
REMARK       I    between atoms: C_9  and  N_11 
REMARK    4  A    between atoms: N_11  and  C_12 
ROOT
HETATM    1  N   UNL     1     -41.999 -50.904  11.915  1.00  0.00    -0.342 N 
HETATM    2  C   UNL     1     -41.144 -49.873  11.587  1.00  0.00     0.323 C 
HETATM    3  O   UNL     1     -40.040 -50.071  11.100  1.00  0.00    -0.247 OA
HETATM    4  N   UNL     1     -41.683 -48.652  11.892  1.00  0.00    -0.273 N 
HETATM    5  H   UNL     1     -42.680 -50.693  12.625  1.00  0.00     0.164 HD
HETATM    6  H   UNL     1     -42.539 -48.574  12.414  1.00  0.00     0.174 HD
ENDROOT
BRANCH   1   7
HETATM    7  C   UNL     1     -41.504 -52.269  11.865  1.00  0.00     0.143 C 
BRANCH   7   8
HETATM    8  C   UNL     1     -41.760 -53.115  13.132  1.00  0.00     0.057 C 
HETATM    9  C   UNL     1     -40.772 -54.326  13.157  1.00  0.00     0.021 C 
HETATM   10  C   UNL     1     -39.701 -54.041  14.210  1.00  0.00     0.001 C 
HETATM   11  C   UNL     1     -39.979 -52.651  14.747  1.00  0.00     0.001 C 
HETATM   12  C   UNL     1     -41.454 -52.415  14.468  1.00  0.00     0.021 C 
BRANCH   8  13
HETATM   13  C   UNL     1     -43.223 -53.620  13.043  1.00  0.00     0.229 C 
HETATM   14  N   UNL     1     -43.767 -54.437  14.031  1.00  0.00    -0.360 N 
HETATM   15  C   UNL     1     -45.159 -54.828  13.848  1.00  0.00     0.152 C 
HETATM   16  C   UNL     1     -43.048 -55.137  15.085  1.00  0.00     0.152 C 
HETATM   17  O   UNL     1     -43.945 -53.229  12.116  1.00  0.00    -0.272 OA
ENDBRANCH   8  13
ENDBRANCH   7   8
ENDBRANCH   1   7
BRANCH   4  18
HETATM   18  C   UNL     1     -40.985 -47.491  11.726  1.00  0.00     0.252 A 
HETATM   19  N   UNL     1     -40.567 -47.020  10.577  1.00  0.00    -0.309 N 
HETATM   20  C   UNL     1     -40.010 -45.822  10.951  1.00  0.00     0.101 A 
ATOM     21  HN  UNL     1     -40.636 -47.436   9.648  1.00  0.00     0.170 HD
HETATM   22  C   UNL     1     -39.501 -44.844   9.976  1.00  0.00     0.091 C 
HETATM   23  N   UNL     1     -40.010 -45.580  12.266  1.00  0.00    -0.246 N 
HETATM   24  O   UNL     1     -40.674 -46.696  12.789  1.00  0.00    -0.199 OA
ATOM     25  HN  UNL     1     -39.621 -44.780  12.766  1.00  0.00     0.196 HD
ENDBRANCH   4  18
TORSDOF 4
ENDMDL
MODEL 7
REMARK VINA RESULT:      -6.1      2.167      2.960
REMARK  4 active torsions:
REMARK  status: ('A' for Active; 'I' for Inactive)
REMARK       I    between atoms: N_2  and  C_4 
REMARK    1  A    between atoms: C_4  and  C_6 
REMARK    2  A    between atoms: C_6  and  C_7 
REMARK    3  A    between atoms: C_7  and  N_8 
REMARK       I    between atoms: N_8  and  C_9 
REMARK       I    between atoms: C_9  and  N_11 
REMARK    4  A    between atoms: N_11  and  C_12 
ROOT
HETATM    1  N   UNL     1     -40.879 -48.756  12.332  1.00  0.00    -0.342 N 
HETATM    2  C   UNL     1     -42.137 -48.675  11.774  1.00  0.00     0.323 C 
HETATM    3  O   UNL     1     -43.111 -49.211  12.282  1.00  0.00    -0.247 OA
HETATM    4  N   UNL     1     -42.130 -47.954  10.610  1.00  0.00    -0.273 N 
HETATM    5  H   UNL     1     -40.112 -48.628  11.693  1.00  0.00     0.164 HD
HETATM    6  H   UNL     1     -41.268 -47.658  10.184  1.00  0.00     0.174 HD
ENDROOT
BRANCH   1   7
HETATM    7  C   UNL     1     -40.662 -49.661  13.447  1.00  0.00     0.143 C 
BRANCH   7   8
HETATM    8  C   UNL     1     -39.776 -50.890  13.141  1.00  0.00     0.057 C 
HETATM    9  C   UNL     1     -38.883 -50.590  11.894  1.00  0.00     0.021 C 
HETATM   10  C   UNL     1     -37.455 -50.348  12.383  1.00  0.00     0.001 C 
HETATM   11  C   UNL     1     -37.496 -50.409  13.896  1.00  0.00     0.001 C 
HETATM   12  C   UNL     1     -38.731 -51.235  14.217  1.00  0.00     0.021 C 
BRANCH   8  13
HETATM   13  C   UNL     1     -40.737 -52.069  12.841  1.00  0.00     0.229 C 
HETATM   14  N   UNL     1     -41.761 -52.408  13.722  1.00  0.00    -0.360 N 
HETATM   15  C   UNL     1     -42.614 -53.520  13.319  1.00  0.00     0.152 C 
HETATM   16  C   UNL     1     -41.929 -51.948  15.092  1.00  0.00     0.152 C 
HETATM   17  O   UNL     1     -40.640 -52.672  11.764  1.00  0.00    -0.272 OA
ENDBRANCH   8  13
ENDBRANCH   7   8
ENDBRANCH   1   7
BRANCH   4  18
HETATM   18  C   UNL     1     -43.248 -47.808   9.842  1.00  0.00     0.252 A 
HETATM   19  N   UNL     1     -44.460 -47.620  10.303  1.00  0.00    -0.309 N 
HETATM   20  C   UNL     1     -45.178 -47.458   9.144  1.00  0.00     0.101 A 
ATOM     21  HN  UNL     1     -44.785 -47.599  11.270  1.00  0.00     0.170 HD
HETATM   22  C   UNL     1     -46.604 -47.090   9.138  1.00  0.00     0.091 C 
HETATM   23  N   UNL     1     -44.479 -47.608   8.014  1.00  0.00    -0.246 N 
HETATM   24  O   UNL     1     -43.178 -47.833   8.481  1.00  0.00    -0.199 OA
ATOM     25  HN  UNL     1     -44.810 -47.568   7.050  1.00  0.00     0.196 HD
ENDBRANCH   4  18
TORSDOF 4
ENDMDL
MODEL 8
REMARK VINA RESULT:      -6.1      5.048      7.240
REMARK  4 active torsions:
REMARK  status: ('A' for Active; 'I' for Inactive)
REMARK       I    between atoms: N_2  and  C_4 
REMARK    1  A    between atoms: C_4  and  C_6 
REMARK    2  A    between atoms: C_6  and  C_7 
REMARK    3  A    between atoms: C_7  and  N_8 
REMARK       I    between atoms: N_8  and  C_9 
REMARK       I    between atoms: C_9  and  N_11 
REMARK    4  A    between atoms: N_11  and  C_12 
ROOT
HETATM    1  N   UNL     1     -43.764 -52.534  12.355  1.00  0.00    -0.342 N 
HETATM    2  C   UNL     1     -42.396 -52.413  12.225  1.00  0.00     0.323 C 
HETATM    3  O   UNL     1     -41.641 -53.365  12.371  1.00  0.00    -0.247 OA
HETATM    4  N   UNL     1     -42.025 -51.127  11.941  1.00  0.00    -0.273 N 
HETATM    5  H   UNL     1     -44.252 -51.686  12.592  1.00  0.00     0.164 HD
HETATM    6  H   UNL     1     -42.690 -50.373  11.969  1.00  0.00     0.174 HD
ENDROOT
BRANCH   1   7
HETATM    7  C   UNL     1     -44.314 -53.776  12.870  1.00  0.00     0.143 C 
BRANCH   7   8
HETATM    8  C   UNL     1     -44.690 -53.764  14.368  1.00  0.00     0.057 C 
HETATM    9  C   UNL     1     -44.788 -52.287  14.869  1.00  0.00     0.021 C 
HETATM   10  C   UNL     1     -46.268 -51.944  15.041  1.00  0.00     0.001 C 
HETATM   11  C   UNL     1     -47.052 -53.151  14.570  1.00  0.00     0.001 C 
HETATM   12  C   UNL     1     -46.087 -54.317  14.703  1.00  0.00     0.021 C 
BRANCH   8  13
HETATM   13  C   UNL     1     -43.556 -54.510  15.118  1.00  0.00     0.229 C 
HETATM   14  N   UNL     1     -42.573 -53.813  15.817  1.00  0.00    -0.360 N 
HETATM   15  C   UNL     1     -41.573 -54.625  16.500  1.00  0.00     0.152 C 
HETATM   16  C   UNL     1     -42.288 -52.388  15.745  1.00  0.00     0.152 C 
HETATM   17  O   UNL     1     -43.567 -55.747  15.160  1.00  0.00    -0.272 OA
ENDBRANCH   8  13
ENDBRANCH   7   8
ENDBRANCH   1   7
BRANCH   4  18
HETATM   18  C   UNL     1     -40.716 -50.755  11.845  1.00  0.00     0.252 A 
HETATM   19  N   UNL     1     -39.756 -51.162  12.640  1.00  0.00    -0.309 N 
HETATM   20  C   UNL     1     -38.654 -50.572  12.073  1.00  0.00     0.101 A 
ATOM     21  HN  UNL     1     -39.814 -51.760  13.465  1.00  0.00     0.170 HD
HETATM   22  C   UNL     1     -37.283 -50.834  12.542  1.00  0.00     0.091 C 
HETATM   23  N   UNL     1     -38.907 -49.780  11.026  1.00  0.00    -0.246 N 
HETATM   24  O   UNL     1     -40.292 -49.909  10.864  1.00  0.00    -0.199 OA
ATOM     25  HN  UNL     1     -38.253 -49.219  10.479  1.00  0.00     0.196 HD
ENDBRANCH   4  18
TORSDOF 4
ENDMDL
MODEL 9
REMARK VINA RESULT:      -6.1      3.953      5.244
REMARK  4 active torsions:
REMARK  status: ('A' for Active; 'I' for Inactive)
REMARK       I    between atoms: N_2  and  C_4 
REMARK    1  A    between atoms: C_4  and  C_6 
REMARK    2  A    between atoms: C_6  and  C_7 
REMARK    3  A    between atoms: C_7  and  N_8 
REMARK       I    between atoms: N_8  and  C_9 
REMARK       I    between atoms: C_9  and  N_11 
REMARK    4  A    between atoms: N_11  and  C_12 
ROOT
HETATM    1  N   UNL     1     -42.004 -51.233  12.864  1.00  0.00    -0.342 N 
HETATM    2  C   UNL     1     -42.387 -49.985  12.420  1.00  0.00     0.323 C 
HETATM    3  O   UNL     1     -43.278 -49.346  12.962  1.00  0.00    -0.247 OA
HETATM    4  N   UNL     1     -41.669 -49.594  11.323  1.00  0.00    -0.273 N 
HETATM    5  H   UNL     1     -41.564 -51.821  12.176  1.00  0.00     0.164 HD
HETATM    6  H   UNL     1     -41.046 -50.229  10.853  1.00  0.00     0.174 HD
ENDROOT
BRANCH   1   7
HETATM    7  C   UNL     1     -42.805 -51.894  13.879  1.00  0.00     0.143 C 
BRANCH   7   8
HETATM    8  C   UNL     1     -42.878 -53.434  13.768  1.00  0.00     0.057 C 
HETATM    9  C   UNL     1     -43.489 -54.022  15.082  1.00  0.00     0.021 C 
HETATM   10  C   UNL     1     -44.920 -54.464  14.781  1.00  0.00     0.001 C 
HETATM   11  C   UNL     1     -45.204 -54.072  13.345  1.00  0.00     0.001 C 
HETATM   12  C   UNL     1     -43.836 -53.975  12.692  1.00  0.00     0.021 C 
BRANCH   8  13
HETATM   13  C   UNL     1     -41.423 -53.936  13.582  1.00  0.00     0.229 C 
HETATM   14  N   UNL     1     -40.549 -54.036  14.663  1.00  0.00    -0.360 N 
HETATM   15  C   UNL     1     -39.215 -54.543  14.366  1.00  0.00     0.152 C 
HETATM   16  C   UNL     1     -40.729 -53.471  15.992  1.00  0.00     0.152 C 
HETATM   17  O   UNL     1     -41.054 -54.328  12.467  1.00  0.00    -0.272 OA
ENDBRANCH   8  13
ENDBRANCH   7   8
ENDBRANCH   1   7
BRANCH   4  18
HETATM   18  C   UNL     1     -41.929 -48.428  10.664  1.00  0.00     0.252 A 
HETATM   19  N   UNL     1     -43.024 -48.169   9.992  1.00  0.00    -0.309 N 
HETATM   20  C   UNL     1     -42.816 -46.867   9.609  1.00  0.00     0.101 A 
ATOM     21  HN  UNL     1     -43.821 -48.777   9.802  1.00  0.00     0.170 HD
HETATM   22  C   UNL     1     -43.843 -46.069   8.918  1.00  0.00     0.091 C 
HETATM   23  N   UNL     1     -41.630 -46.354   9.953  1.00  0.00    -0.246 N 
HETATM   24  O   UNL     1     -41.036 -47.398  10.672  1.00  0.00    -0.199 OA
ATOM     25  HN  UNL     1     -41.252 -45.430   9.744  1.00  0.00     0.196 HD
ENDBRANCH   4  18
TORSDOF 4
ENDMDL
