MODEL 1
REMARK VINA RESULT:      -6.7      0.000      0.000
REMARK  7 active torsions:
REMARK  status: ('A' for Active; 'I' for Inactive)
REMARK    1  A    between atoms: N_2  and  C_4 
REMARK    2  A    between atoms: C_4  and  C_5 
REMARK    3  A    between atoms: N_7  and  C_8 
REMARK    4  A    between atoms: C_8  and  C_9 
REMARK    5  A    between atoms: C_9  and  O_10 
REMARK    6  A    between atoms: C_9  and  C_11 
REMARK    7  A    between atoms: C_11  and  N_12 
ROOT
HETATM    1  C   UNL     1     -41.591 -52.214  11.923  1.00  0.00     0.164 C 
ENDROOT
BRANCH   1   2
HETATM    2  C   UNL     1     -40.836 -50.857  12.013  1.00  0.00     0.305 C 
BRANCH   2   3
HETATM    3  N   UNL     1     -41.727 -49.678  11.923  1.00  0.00     0.095 N 
HETATM    4  C   UNL     1     -41.190 -48.673  10.973  1.00  0.00     0.306 C 
HETATM    5  C   UNL     1     -42.064 -47.393  10.889  1.00  0.00     0.177 C 
HETATM    6  O   UNL     1     -42.205 -46.810  12.198  1.00  0.00    -0.381 OA
HETATM    7  C   UNL     1     -42.745 -47.734  13.149  1.00  0.00     0.198 C 
HETATM    8  C   UNL     1     -41.883 -49.012  13.239  1.00  0.00     0.298 C 
BRANCH   5   9
HETATM    9  C   UNL     1     -43.420 -47.659  10.175  1.00  0.00     0.305 C 
BRANCH   9  10
HETATM   10  N   UNL     1     -43.617 -46.968   8.878  1.00  0.00     0.082 N 
HETATM   11  C   UNL     1     -43.502 -47.875   7.737  1.00  0.00     0.309 C 
HETATM   12  C   UNL     1     -44.920 -46.300   8.856  1.00  0.00     0.309 C 
ENDBRANCH   9  10
ENDBRANCH   5   9
ENDBRANCH   2   3
ENDBRANCH   1   2
BRANCH   1  13
HETATM   13  O   UNL     1     -40.724 -53.231  11.400  1.00  0.00    -0.392 OA
HETATM   14  H   UNL     1     -41.140 -53.605  10.604  1.00  0.00     0.210 HD
ENDBRANCH   1  13
BRANCH   1  15
HETATM   15  C   UNL     1     -42.085 -52.658  13.303  1.00  0.00     0.163 C 
BRANCH  15  16
HETATM   16  N   UNL     1     -43.531 -52.800  13.358  1.00  0.00    -0.339 N 
HETATM   17  C   UNL     1     -44.261 -53.647  12.571  1.00  0.00     0.184 A 
HETATM   18  N   UNL     1     -45.534 -53.639  12.894  1.00  0.00    -0.350 N 
HETATM   19  C   UNL     1     -45.630 -52.744  13.930  1.00  0.00     0.060 A 
ATOM     20  HN  UNL     1     -46.286 -54.179  12.467  1.00  0.00     0.166 HD
HETATM   21  C   UNL     1     -46.757 -52.362  14.675  1.00  0.00     0.039 A 
HETATM   22  C   UNL     1     -44.391 -52.192  14.238  1.00  0.00     0.062 A 
HETATM   23  C   UNL     1     -46.618 -51.446  15.736  1.00  0.00    -0.054 A 
HETATM   24  C   UNL     1     -47.842 -51.099  16.540  1.00  0.00     0.049 C 
HETATM   25  C   UNL     1     -45.349 -50.902  16.033  1.00  0.00    -0.054 A 
HETATM   26  C   UNL     1     -45.110 -49.995  17.213  1.00  0.00     0.049 C 
HETATM   27  C   UNL     1     -44.221 -51.252  15.260  1.00  0.00     0.039 A 
ENDBRANCH  15  16
ENDBRANCH   1  15
TORSDOF 7
ENDMDL
MODEL 2
REMARK VINA RESULT:      -6.3      1.940      2.672
REMARK  7 active torsions:
REMARK  status: ('A' for Active; 'I' for Inactive)
REMARK    1  A    between atoms: N_2  and  C_4 
REMARK    2  A    between atoms: C_4  and  C_5 
REMARK    3  A    between atoms: N_7  and  C_8 
REMARK    4  A    between atoms: C_8  and  C_9 
REMARK    5  A    between atoms: C_9  and  O_10 
REMARK    6  A    between atoms: C_9  and  C_11 
REMARK    7  A    between atoms: C_11  and  N_12 
ROOT
HETATM    1  C   UNL     1     -41.255 -53.404  12.930  1.00  0.00     0.164 C 
ENDROOT
BRANCH   1   2
HETATM    2  C   UNL     1     -40.342 -52.615  13.911  1.00  0.00     0.305 C 
BRANCH   2   3
HETATM    3  N   UNL     1     -39.923 -51.293  13.393  1.00  0.00     0.095 N 
HETATM    4  C   UNL     1     -40.540 -51.016  12.072  1.00  0.00     0.306 C 
HETATM    5  C   UNL     1     -40.083 -49.663  11.463  1.00  0.00     0.177 C 
HETATM    6  O   UNL     1     -38.647 -49.635  11.355  1.00  0.00    -0.381 OA
HETATM    7  C   UNL     1     -38.003 -49.872  12.611  1.00  0.00     0.198 C 
HETATM    8  C   UNL     1     -38.451 -51.215  13.227  1.00  0.00     0.298 C 
BRANCH   5   9
HETATM    9  C   UNL     1     -40.674 -48.448  12.233  1.00  0.00     0.305 C 
BRANCH   9  10
HETATM   10  N   UNL     1     -41.257 -47.372  11.397  1.00  0.00     0.082 N 
HETATM   11  C   UNL     1     -40.249 -46.426  10.920  1.00  0.00     0.309 C 
HETATM   12  C   UNL     1     -41.976 -47.950  10.261  1.00  0.00     0.309 C 
ENDBRANCH   9  10
ENDBRANCH   5   9
ENDBRANCH   2   3
ENDBRANCH   1   2
BRANCH   1  13
HETATM   13  O   UNL     1     -40.506 -54.438  12.275  1.00  0.00    -0.392 OA
HETATM   14  H   UNL     1     -40.637 -55.267  12.767  1.00  0.00     0.210 HD
ENDBRANCH   1  13
BRANCH   1  15
HETATM   15  C   UNL     1     -42.429 -54.051  13.673  1.00  0.00     0.163 C 
BRANCH  15  16
HETATM   16  N   UNL     1     -43.676 -53.329  13.482  1.00  0.00    -0.339 N 
HETATM   17  C   UNL     1     -44.275 -53.116  12.271  1.00  0.00     0.184 A 
HETATM   18  N   UNL     1     -45.436 -52.516  12.399  1.00  0.00    -0.350 N 
HETATM   19  C   UNL     1     -45.589 -52.328  13.749  1.00  0.00     0.060 A 
ATOM     20  HN  UNL     1     -46.082 -52.248  11.657  1.00  0.00     0.166 HD
HETATM   21  C   UNL     1     -46.660 -51.752  14.452  1.00  0.00     0.039 A 
HETATM   22  C   UNL     1     -44.496 -52.818  14.456  1.00  0.00     0.062 A 
HETATM   23  C   UNL     1     -46.626 -51.698  15.859  1.00  0.00    -0.054 A 
HETATM   24  C   UNL     1     -47.815 -51.116  16.577  1.00  0.00     0.049 C 
HETATM   25  C   UNL     1     -45.507 -52.206  16.555  1.00  0.00    -0.054 A 
HETATM   26  C   UNL     1     -45.448 -52.270  18.060  1.00  0.00     0.049 C 
HETATM   27  C   UNL     1     -44.411 -52.748  15.851  1.00  0.00     0.039 A 
ENDBRANCH  15  16
ENDBRANCH   1  15
TORSDOF 7
ENDMDL
MODEL 3
REMARK VINA RESULT:      -6.2      3.053      3.866
REMARK  7 active torsions:
REMARK  status: ('A' for Active; 'I' for Inactive)
REMARK    1  A    between atoms: N_2  and  C_4 
REMARK    2  A    between atoms: C_4  and  C_5 
REMARK    3  A    between atoms: N_7  and  C_8 
REMARK    4  A    between atoms: C_8  and  C_9 
REMARK    5  A    between atoms: C_9  and  O_10 
REMARK    6  A    between atoms: C_9  and  C_11 
REMARK    7  A    between atoms: C_11  and  N_12 
ROOT
HETATM    1  C   UNL     1     -38.145 -50.960  12.879  1.00  0.00     0.164 C 
ENDROOT
BRANCH   1   2
HETATM    2  C   UNL     1     -37.784 -49.747  13.783  1.00  0.00     0.305 C 
BRANCH   2   3
HETATM    3  N   UNL     1     -38.736 -48.620  13.666  1.00  0.00     0.095 N 
HETATM    4  C   UNL     1     -38.951 -48.247  12.245  1.00  0.00     0.306 C 
HETATM    5  C   UNL     1     -39.899 -47.030  12.076  1.00  0.00     0.177 C 
HETATM    6  O   UNL     1     -39.386 -45.903  12.811  1.00  0.00    -0.381 OA
HETATM    7  C   UNL     1     -39.186 -46.204  14.196  1.00  0.00     0.198 C 
HETATM    8  C   UNL     1     -38.244 -47.414  14.376  1.00  0.00     0.298 C 
BRANCH   5   9
HETATM    9  C   UNL     1     -41.372 -47.386  12.428  1.00  0.00     0.305 C 
BRANCH   9  10
HETATM   10  N   UNL     1     -42.411 -46.772  11.567  1.00  0.00     0.082 N 
HETATM   11  C   UNL     1     -41.851 -46.157  10.365  1.00  0.00     0.309 C 
HETATM   12  C   UNL     1     -43.413 -47.773  11.194  1.00  0.00     0.309 C 
ENDBRANCH   9  10
ENDBRANCH   5   9
ENDBRANCH   2   3
ENDBRANCH   1   2
BRANCH   1  13
HETATM   13  O   UNL     1     -36.952 -51.628  12.444  1.00  0.00    -0.392 OA
HETATM   14  H   UNL     1     -37.058 -52.581  12.612  1.00  0.00     0.210 HD
ENDBRANCH   1  13
BRANCH   1  15
HETATM   15  C   UNL     1     -39.018 -51.967  13.635  1.00  0.00     0.163 C 
BRANCH  15  16
HETATM   16  N   UNL     1     -40.372 -52.036  13.110  1.00  0.00    -0.339 N 
HETATM   17  C   UNL     1     -40.826 -51.327  12.032  1.00  0.00     0.184 A 
HETATM   18  N   UNL     1     -42.060 -51.649  11.721  1.00  0.00    -0.350 N 
HETATM   19  C   UNL     1     -42.420 -52.602  12.640  1.00  0.00     0.060 A 
ATOM     20  HN  UNL     1     -42.628 -51.273  10.961  1.00  0.00     0.166 HD
HETATM   21  C   UNL     1     -43.626 -53.310  12.764  1.00  0.00     0.039 A 
HETATM   22  C   UNL     1     -41.385 -52.859  13.534  1.00  0.00     0.062 A 
HETATM   23  C   UNL     1     -43.766 -54.285  13.770  1.00  0.00    -0.054 A 
HETATM   24  C   UNL     1     -45.057 -55.057  13.839  1.00  0.00     0.049 C 
HETATM   25  C   UNL     1     -42.699 -54.532  14.662  1.00  0.00    -0.054 A 
HETATM   26  C   UNL     1     -42.744 -55.627  15.698  1.00  0.00     0.049 C 
HETATM   27  C   UNL     1     -41.501 -53.793  14.568  1.00  0.00     0.039 A 
ENDBRANCH  15  16
ENDBRANCH   1  15
TORSDOF 7
ENDMDL
MODEL 4
REMARK VINA RESULT:      -6.1      2.803      4.697
REMARK  7 active torsions:
REMARK  status: ('A' for Active; 'I' for Inactive)
REMARK    1  A    between atoms: N_2  and  C_4 
REMARK    2  A    between atoms: C_4  and  C_5 
REMARK    3  A    between atoms: N_7  and  C_8 
REMARK    4  A    between atoms: C_8  and  C_9 
REMARK    5  A    between atoms: C_9  and  O_10 
REMARK    6  A    between atoms: C_9  and  C_11 
REMARK    7  A    between atoms: C_11  and  N_12 
ROOT
HETATM    1  C   UNL     1     -41.786 -52.444  12.028  1.00  0.00     0.164 C 
ENDROOT
BRANCH   1   2
HETATM    2  C   UNL     1     -41.465 -50.923  12.077  1.00  0.00     0.305 C 
BRANCH   2   3
HETATM    3  N   UNL     1     -40.100 -50.623  12.566  1.00  0.00     0.095 N 
HETATM    4  C   UNL     1     -40.142 -49.747  13.763  1.00  0.00     0.306 C 
HETATM    5  C   UNL     1     -38.730 -49.360  14.278  1.00  0.00     0.177 C 
HETATM    6  O   UNL     1     -37.982 -48.723  13.225  1.00  0.00    -0.381 OA
HETATM    7  C   UNL     1     -37.890 -49.541  12.054  1.00  0.00     0.198 C 
HETATM    8  C   UNL     1     -39.290 -49.933  11.533  1.00  0.00     0.298 C 
BRANCH   5   9
HETATM    9  C   UNL     1     -37.993 -50.568  14.924  1.00  0.00     0.305 C 
BRANCH   9  10
HETATM   10  N   UNL     1     -37.428 -50.337  16.275  1.00  0.00     0.082 N 
HETATM   11  C   UNL     1     -37.632 -51.475  17.170  1.00  0.00     0.309 C 
HETATM   12  C   UNL     1     -36.000 -50.028  16.178  1.00  0.00     0.309 C 
ENDBRANCH   9  10
ENDBRANCH   5   9
ENDBRANCH   2   3
ENDBRANCH   1   2
BRANCH   1  13
HETATM   13  O   UNL     1     -40.632 -53.182  11.600  1.00  0.00    -0.392 OA
HETATM   14  H   UNL     1     -40.937 -54.003  11.176  1.00  0.00     0.210 HD
ENDBRANCH   1  13
BRANCH   1  15
HETATM   15  C   UNL     1     -42.210 -52.960  13.407  1.00  0.00     0.163 C 
BRANCH  15  16
HETATM   16  N   UNL     1     -43.652 -53.104  13.530  1.00  0.00    -0.339 N 
HETATM   17  C   UNL     1     -44.400 -54.038  12.869  1.00  0.00     0.184 A 
HETATM   18  N   UNL     1     -45.660 -54.003  13.234  1.00  0.00    -0.350 N 
HETATM   19  C   UNL     1     -45.729 -52.999  14.167  1.00  0.00     0.060 A 
ATOM     20  HN  UNL     1     -46.421 -54.592  12.898  1.00  0.00     0.166 HD
HETATM   21  C   UNL     1     -46.833 -52.544  14.905  1.00  0.00     0.039 A 
HETATM   22  C   UNL     1     -44.486 -52.407  14.367  1.00  0.00     0.062 A 
HETATM   23  C   UNL     1     -46.668 -51.515  15.852  1.00  0.00    -0.054 A 
HETATM   24  C   UNL     1     -47.866 -51.088  16.657  1.00  0.00     0.049 C 
HETATM   25  C   UNL     1     -45.394 -50.932  16.041  1.00  0.00    -0.054 A 
HETATM   26  C   UNL     1     -45.124 -49.898  17.104  1.00  0.00     0.049 C 
HETATM   27  C   UNL     1     -44.290 -51.359  15.272  1.00  0.00     0.039 A 
ENDBRANCH  15  16
ENDBRANCH   1  15
TORSDOF 7
ENDMDL
MODEL 5
REMARK VINA RESULT:      -6.0      2.108      3.145
REMARK  7 active torsions:
REMARK  status: ('A' for Active; 'I' for Inactive)
REMARK    1  A    between atoms: N_2  and  C_4 
REMARK    2  A    between atoms: C_4  and  C_5 
REMARK    3  A    between atoms: N_7  and  C_8 
REMARK    4  A    between atoms: C_8  and  C_9 
REMARK    5  A    between atoms: C_9  and  O_10 
REMARK    6  A    between atoms: C_9  and  C_11 
REMARK    7  A    between atoms: C_11  and  N_12 
ROOT
HETATM    1  C   UNL     1     -41.001 -52.966  12.619  1.00  0.00     0.164 C 
ENDROOT
BRANCH   1   2
HETATM    2  C   UNL     1     -39.775 -52.414  13.401  1.00  0.00     0.305 C 
BRANCH   2   3
HETATM    3  N   UNL     1     -39.716 -50.936  13.441  1.00  0.00     0.095 N 
HETATM    4  C   UNL     1     -39.227 -50.385  12.152  1.00  0.00     0.306 C 
HETATM    5  C   UNL     1     -39.095 -48.839  12.167  1.00  0.00     0.177 C 
HETATM    6  O   UNL     1     -38.227 -48.431  13.241  1.00  0.00    -0.381 OA
HETATM    7  C   UNL     1     -38.671 -48.916  14.512  1.00  0.00     0.198 C 
HETATM    8  C   UNL     1     -38.806 -50.455  14.509  1.00  0.00     0.298 C 
BRANCH   5   9
HETATM    9  C   UNL     1     -40.482 -48.136  12.185  1.00  0.00     0.305 C 
BRANCH   9  10
HETATM   10  N   UNL     1     -41.566 -48.821  11.441  1.00  0.00     0.082 N 
HETATM   11  C   UNL     1     -42.726 -49.113  12.283  1.00  0.00     0.309 C 
HETATM   12  C   UNL     1     -41.976 -48.013  10.291  1.00  0.00     0.309 C 
ENDBRANCH   9  10
ENDBRANCH   5   9
ENDBRANCH   2   3
ENDBRANCH   1   2
BRANCH   1  13
HETATM   13  O   UNL     1     -40.620 -53.320  11.282  1.00  0.00    -0.392 OA
HETATM   14  H   UNL     1     -41.127 -54.108  11.020  1.00  0.00     0.210 HD
ENDBRANCH   1  13
BRANCH   1  15
HETATM   15  C   UNL     1     -41.575 -54.209  13.307  1.00  0.00     0.163 C 
BRANCH  15  16
HETATM   16  N   UNL     1     -42.396 -53.879  14.461  1.00  0.00    -0.339 N 
HETATM   17  C   UNL     1     -42.014 -54.054  15.763  1.00  0.00     0.184 A 
HETATM   18  N   UNL     1     -42.911 -53.588  16.601  1.00  0.00    -0.350 N 
HETATM   19  C   UNL     1     -43.916 -53.098  15.806  1.00  0.00     0.060 A 
ATOM     20  HN  UNL     1     -42.869 -53.591  17.620  1.00  0.00     0.166 HD
HETATM   21  C   UNL     1     -45.114 -52.465  16.175  1.00  0.00     0.039 A 
HETATM   22  C   UNL     1     -43.628 -53.276  14.457  1.00  0.00     0.062 A 
HETATM   23  C   UNL     1     -45.995 -51.998  15.181  1.00  0.00    -0.054 A 
HETATM   24  C   UNL     1     -47.246 -51.282  15.616  1.00  0.00     0.049 C 
HETATM   25  C   UNL     1     -45.678 -52.186  13.817  1.00  0.00    -0.054 A 
HETATM   26  C   UNL     1     -46.524 -51.626  12.702  1.00  0.00     0.049 C 
HETATM   27  C   UNL     1     -44.495 -52.858  13.442  1.00  0.00     0.039 A 
ENDBRANCH  15  16
ENDBRANCH   1  15
TORSDOF 7
ENDMDL
MODEL 6
REMARK VINA RESULT:      -5.9      2.407      3.259
REMARK  7 active torsions:
REMARK  status: ('A' for Active; 'I' for Inactive)
REMARK    1  A    between atoms: N_2  and  C_4 
REMARK    2  A    between atoms: C_4  and  C_5 
REMARK    3  A    between atoms: N_7  and  C_8 
REMARK    4  A    between atoms: C_8  and  C_9 
REMARK    5  A    between atoms: C_9  and  O_10 
REMARK    6  A    between atoms: C_9  and  C_11 
REMARK    7  A    between atoms: C_11  and  N_12 
ROOT
HETATM    1  C   UNL     1     -39.242 -50.527  12.164  1.00  0.00     0.164 C 
ENDROOT
BRANCH   1   2
HETATM    2  C   UNL     1     -39.382 -48.979  12.089  1.00  0.00     0.305 C 
BRANCH   2   3
HETATM    3  N   UNL     1     -40.784 -48.518  11.973  1.00  0.00     0.095 N 
HETATM    4  C   UNL     1     -40.892 -47.364  11.047  1.00  0.00     0.306 C 
HETATM    5  C   UNL     1     -42.338 -46.809  10.938  1.00  0.00     0.177 C 
HETATM    6  O   UNL     1     -42.822 -46.443  12.243  1.00  0.00    -0.381 OA
HETATM    7  C   UNL     1     -42.763 -47.533  13.169  1.00  0.00     0.198 C 
HETATM    8  C   UNL     1     -41.328 -48.093  13.286  1.00  0.00     0.298 C 
BRANCH   5   9
HETATM    9  C   UNL     1     -43.279 -47.784  10.174  1.00  0.00     0.305 C 
BRANCH   9  10
HETATM   10  N   UNL     1     -44.006 -47.210   9.017  1.00  0.00     0.082 N 
HETATM   11  C   UNL     1     -43.893 -45.754   8.950  1.00  0.00     0.309 C 
HETATM   12  C   UNL     1     -43.521 -47.806   7.770  1.00  0.00     0.309 C 
ENDBRANCH   9  10
ENDBRANCH   5   9
ENDBRANCH   2   3
ENDBRANCH   1   2
BRANCH   1  13
HETATM   13  O   UNL     1     -38.027 -50.948  11.528  1.00  0.00    -0.392 OA
HETATM   14  H   UNL     1     -37.519 -51.479  12.165  1.00  0.00     0.210 HD
ENDBRANCH   1  13
BRANCH   1  15
HETATM   15  C   UNL     1     -39.220 -51.005  13.620  1.00  0.00     0.163 C 
BRANCH  15  16
HETATM   16  N   UNL     1     -39.855 -52.302  13.791  1.00  0.00    -0.339 N 
HETATM   17  C   UNL     1     -39.198 -53.450  14.140  1.00  0.00     0.184 A 
HETATM   18  N   UNL     1     -40.027 -54.453  14.313  1.00  0.00    -0.350 N 
HETATM   19  C   UNL     1     -41.270 -53.932  14.058  1.00  0.00     0.060 A 
ATOM     20  HN  UNL     1     -39.797 -55.411  14.577  1.00  0.00     0.166 HD
HETATM   21  C   UNL     1     -42.527 -54.557  14.116  1.00  0.00     0.039 A 
HETATM   22  C   UNL     1     -41.195 -52.586  13.717  1.00  0.00     0.062 A 
HETATM   23  C   UNL     1     -43.692 -53.812  13.853  1.00  0.00    -0.054 A 
HETATM   24  C   UNL     1     -45.023 -54.507  13.972  1.00  0.00     0.049 C 
HETATM   25  C   UNL     1     -43.591 -52.445  13.513  1.00  0.00    -0.054 A 
HETATM   26  C   UNL     1     -44.799 -51.565  13.315  1.00  0.00     0.049 C 
HETATM   27  C   UNL     1     -42.327 -51.823  13.413  1.00  0.00     0.039 A 
ENDBRANCH  15  16
ENDBRANCH   1  15
TORSDOF 7
ENDMDL
MODEL 7
REMARK VINA RESULT:      -5.9      3.404      4.881
REMARK  7 active torsions:
REMARK  status: ('A' for Active; 'I' for Inactive)
REMARK    1  A    between atoms: N_2  and  C_4 
REMARK    2  A    between atoms: C_4  and  C_5 
REMARK    3  A    between atoms: N_7  and  C_8 
REMARK    4  A    between atoms: C_8  and  C_9 
REMARK    5  A    between atoms: C_9  and  O_10 
REMARK    6  A    between atoms: C_9  and  C_11 
REMARK    7  A    between atoms: C_11  and  N_12 
ROOT
HETATM    1  C   UNL     1     -39.590 -53.936  13.651  1.00  0.00     0.164 C 
ENDROOT
BRANCH   1   2
HETATM    2  C   UNL     1     -39.806 -53.706  15.174  1.00  0.00     0.305 C 
BRANCH   2   3
HETATM    3  N   UNL     1     -39.369 -52.370  15.637  1.00  0.00     0.095 N 
HETATM    4  C   UNL     1     -38.629 -51.651  14.571  1.00  0.00     0.306 C 
HETATM    5  C   UNL     1     -38.100 -50.265  15.031  1.00  0.00     0.177 C 
HETATM    6  O   UNL     1     -37.265 -50.421  16.194  1.00  0.00    -0.381 OA
HETATM    7  C   UNL     1     -37.944 -51.089  17.264  1.00  0.00     0.198 C 
HETATM    8  C   UNL     1     -38.474 -52.468  16.817  1.00  0.00     0.298 C 
BRANCH   5   9
HETATM    9  C   UNL     1     -39.251 -49.237  15.223  1.00  0.00     0.305 C 
BRANCH   9  10
HETATM   10  N   UNL     1     -39.154 -47.997  14.416  1.00  0.00     0.082 N 
HETATM   11  C   UNL     1     -37.812 -47.417  14.439  1.00  0.00     0.309 C 
HETATM   12  C   UNL     1     -39.559 -48.261  13.034  1.00  0.00     0.309 C 
ENDBRANCH   9  10
ENDBRANCH   5   9
ENDBRANCH   2   3
ENDBRANCH   1   2
BRANCH   1  13
HETATM   13  O   UNL     1     -38.717 -55.054  13.436  1.00  0.00    -0.392 OA
HETATM   14  H   UNL     1     -39.262 -55.856  13.359  1.00  0.00     0.210 HD
ENDBRANCH   1  13
BRANCH   1  15
HETATM   15  C   UNL     1     -40.921 -54.216  12.945  1.00  0.00     0.163 C 
BRANCH  15  16
HETATM   16  N   UNL     1     -41.771 -53.039  12.870  1.00  0.00    -0.339 N 
HETATM   17  C   UNL     1     -41.516 -51.942  12.094  1.00  0.00     0.184 A 
HETATM   18  N   UNL     1     -42.493 -51.067  12.148  1.00  0.00    -0.350 N 
HETATM   19  C   UNL     1     -43.415 -51.620  13.001  1.00  0.00     0.060 A 
ATOM     20  HN  UNL     1     -42.553 -50.171  11.664  1.00  0.00     0.166 HD
HETATM   21  C   UNL     1     -44.665 -51.123  13.404  1.00  0.00     0.039 A 
HETATM   22  C   UNL     1     -42.986 -52.853  13.480  1.00  0.00     0.062 A 
HETATM   23  C   UNL     1     -45.478 -51.886  14.264  1.00  0.00    -0.054 A 
HETATM   24  C   UNL     1     -46.831 -51.340  14.635  1.00  0.00     0.049 C 
HETATM   25  C   UNL     1     -45.023 -53.138  14.734  1.00  0.00    -0.054 A 
HETATM   26  C   UNL     1     -45.879 -54.049  15.576  1.00  0.00     0.049 C 
HETATM   27  C   UNL     1     -43.749 -53.622  14.364  1.00  0.00     0.039 A 
ENDBRANCH  15  16
ENDBRANCH   1  15
TORSDOF 7
ENDMDL
MODEL 8
REMARK VINA RESULT:      -5.9      2.008      3.034
REMARK  7 active torsions:
REMARK  status: ('A' for Active; 'I' for Inactive)
REMARK    1  A    between atoms: N_2  and  C_4 
REMARK    2  A    between atoms: C_4  and  C_5 
REMARK    3  A    between atoms: N_7  and  C_8 
REMARK    4  A    between atoms: C_8  and  C_9 
REMARK    5  A    between atoms: C_9  and  O_10 
REMARK    6  A    between atoms: C_9  and  C_11 
REMARK    7  A    between atoms: C_11  and  N_12 
ROOT
HETATM    1  C   UNL     1     -39.858 -49.330  13.310  1.00  0.00     0.164 C 
ENDROOT
BRANCH   1   2
HETATM    2  C   UNL     1     -39.692 -47.864  12.816  1.00  0.00     0.305 C 
BRANCH   2   3
HETATM    3  N   UNL     1     -40.950 -47.264  12.316  1.00  0.00     0.095 N 
HETATM    4  C   UNL     1     -40.904 -47.077  10.844  1.00  0.00     0.306 C 
HETATM    5  C   UNL     1     -42.181 -46.397  10.281  1.00  0.00     0.177 C 
HETATM    6  O   UNL     1     -42.390 -45.131  10.934  1.00  0.00    -0.381 OA
HETATM    7  C   UNL     1     -42.468 -45.261  12.358  1.00  0.00     0.198 C 
HETATM    8  C   UNL     1     -41.202 -45.937  12.929  1.00  0.00     0.298 C 
BRANCH   5   9
HETATM    9  C   UNL     1     -43.416 -47.341  10.338  1.00  0.00     0.305 C 
BRANCH   9  10
HETATM   10  N   UNL     1     -44.286 -47.343   9.138  1.00  0.00     0.082 N 
HETATM   11  C   UNL     1     -44.908 -46.042   8.893  1.00  0.00     0.309 C 
HETATM   12  C   UNL     1     -43.520 -47.759   7.961  1.00  0.00     0.309 C 
ENDBRANCH   9  10
ENDBRANCH   5   9
ENDBRANCH   2   3
ENDBRANCH   1   2
BRANCH   1  13
HETATM   13  O   UNL     1     -39.081 -49.546  14.496  1.00  0.00    -0.392 OA
HETATM   14  H   UNL     1     -39.549 -49.136  15.245  1.00  0.00     0.210 HD
ENDBRANCH   1  13
BRANCH   1  15
HETATM   15  C   UNL     1     -41.325 -49.639  13.626  1.00  0.00     0.163 C 
BRANCH  15  16
HETATM   16  N   UNL     1     -41.793 -50.851  12.974  1.00  0.00    -0.339 N 
HETATM   17  C   UNL     1     -41.220 -51.409  11.864  1.00  0.00     0.184 A 
HETATM   18  N   UNL     1     -41.788 -52.547  11.541  1.00  0.00    -0.350 N 
HETATM   19  C   UNL     1     -42.773 -52.729  12.479  1.00  0.00     0.060 A 
ATOM     20  HN  UNL     1     -41.550 -53.162  10.763  1.00  0.00     0.166 HD
HETATM   21  C   UNL     1     -43.677 -53.794  12.626  1.00  0.00     0.039 A 
HETATM   22  C   UNL     1     -42.810 -51.675  13.386  1.00  0.00     0.062 A 
HETATM   23  C   UNL     1     -44.589 -53.796  13.699  1.00  0.00    -0.054 A 
HETATM   24  C   UNL     1     -45.508 -54.979  13.850  1.00  0.00     0.049 C 
HETATM   25  C   UNL     1     -44.603 -52.717  14.611  1.00  0.00    -0.054 A 
HETATM   26  C   UNL     1     -45.483 -52.700  15.835  1.00  0.00     0.049 C 
HETATM   27  C   UNL     1     -43.725 -51.625  14.442  1.00  0.00     0.039 A 
ENDBRANCH  15  16
ENDBRANCH   1  15
TORSDOF 7
ENDMDL
MODEL 9
REMARK VINA RESULT:      -5.9      2.138      2.783
REMARK  7 active torsions:
REMARK  status: ('A' for Active; 'I' for Inactive)
REMARK    1  A    between atoms: N_2  and  C_4 
REMARK    2  A    between atoms: C_4  and  C_5 
REMARK    3  A    between atoms: N_7  and  C_8 
REMARK    4  A    between atoms: C_8  and  C_9 
REMARK    5  A    between atoms: C_9  and  O_10 
REMARK    6  A    between atoms: C_9  and  C_11 
REMARK    7  A    between atoms: C_11  and  N_12 
ROOT
HETATM    1  C   UNL     1     -39.848 -50.605  12.280  1.00  0.00     0.164 C 
ENDROOT
BRANCH   1   2
HETATM    2  C   UNL     1     -39.624 -49.134  12.731  1.00  0.00     0.305 C 
BRANCH   2   3
HETATM    3  N   UNL     1     -40.410 -48.151  11.950  1.00  0.00     0.095 N 
HETATM    4  C   UNL     1     -41.257 -47.318  12.839  1.00  0.00     0.306 C 
HETATM    5  C   UNL     1     -42.144 -46.310  12.059  1.00  0.00     0.177 C 
HETATM    6  O   UNL     1     -42.966 -47.014  11.109  1.00  0.00    -0.381 OA
HETATM    7  C   UNL     1     -42.192 -47.815  10.209  1.00  0.00     0.198 C 
HETATM    8  C   UNL     1     -41.306 -48.821  10.975  1.00  0.00     0.298 C 
BRANCH   5   9
HETATM    9  C   UNL     1     -41.304 -45.163  11.427  1.00  0.00     0.305 C 
BRANCH   9  10
HETATM   10  N   UNL     1     -41.329 -43.868  12.149  1.00  0.00     0.082 N 
HETATM   11  C   UNL     1     -41.150 -42.725  11.255  1.00  0.00     0.309 C 
HETATM   12  C   UNL     1     -42.583 -43.730  12.893  1.00  0.00     0.309 C 
ENDBRANCH   9  10
ENDBRANCH   5   9
ENDBRANCH   2   3
ENDBRANCH   1   2
BRANCH   1  13
HETATM   13  O   UNL     1     -38.595 -51.220  11.947  1.00  0.00    -0.392 OA
HETATM   14  H   UNL     1     -38.682 -51.632  11.070  1.00  0.00     0.210 HD
ENDBRANCH   1  13
BRANCH   1  15
HETATM   15  C   UNL     1     -40.510 -51.424  13.394  1.00  0.00     0.163 C 
BRANCH  15  16
HETATM   16  N   UNL     1     -41.874 -51.811  13.067  1.00  0.00    -0.339 N 
HETATM   17  C   UNL     1     -42.223 -52.622  12.023  1.00  0.00     0.184 A 
HETATM   18  N   UNL     1     -43.511 -52.879  12.014  1.00  0.00    -0.350 N 
HETATM   19  C   UNL     1     -44.014 -52.201  13.096  1.00  0.00     0.060 A 
ATOM     20  HN  UNL     1     -44.024 -53.457  11.349  1.00  0.00     0.166 HD
HETATM   21  C   UNL     1     -45.332 -52.141  13.575  1.00  0.00     0.039 A 
HETATM   22  C   UNL     1     -43.012 -51.510  13.771  1.00  0.00     0.062 A 
HETATM   23  C   UNL     1     -45.621 -51.408  14.742  1.00  0.00    -0.054 A 
HETATM   24  C   UNL     1     -47.038 -51.408  15.250  1.00  0.00     0.049 C 
HETATM   25  C   UNL     1     -44.586 -50.719  15.413  1.00  0.00    -0.054 A 
HETATM   26  C   UNL     1     -44.805 -49.997  16.718  1.00  0.00     0.049 C 
HETATM   27  C   UNL     1     -43.268 -50.742  14.911  1.00  0.00     0.039 A 
ENDBRANCH  15  16
ENDBRANCH   1  15
TORSDOF 7
ENDMDL
