MODEL 1
REMARK VINA RESULT:      -5.9      0.000      0.000
REMARK  6 active torsions:
REMARK  status: ('A' for Active; 'I' for Inactive)
REMARK    1  A    between atoms: N_5  and  C_6 
REMARK    2  A    between atoms: C_6  and  C_7 
REMARK    3  A    between atoms: C_7  and  C_8 
REMARK    4  A    between atoms: C_8  and  N_9 
REMARK       I    between atoms: N_9  and  C_10 
REMARK    5  A    between atoms: C_10  and  C_12 
REMARK    6  A    between atoms: C_12  and  C_15 
ROOT
HETATM    1  N   UNL     1     -44.208 -53.588  14.649  1.00  0.00    -0.360 N 
HETATM    2  C   UNL     1     -44.981 -53.177  13.581  1.00  0.00     0.230 C 
HETATM    3  O   UNL     1     -45.239 -53.923  12.637  1.00  0.00    -0.272 OA
HETATM    4  H   UNL     1     -44.073 -52.963  15.435  1.00  0.00     0.162 HD
ENDROOT
BRANCH   1   5
HETATM    5  C   UNL     1     -43.669 -54.928  14.729  1.00  0.00     0.124 C 
BRANCH   5   6
HETATM    6  C   UNL     1     -42.177 -54.895  15.036  1.00  0.00     0.050 C 
BRANCH   6   7
HETATM    7  C   UNL     1     -41.585 -53.536  14.652  1.00  0.00     0.274 C 
BRANCH   7   8
HETATM    8  N   UNL     1     -40.518 -53.614  13.639  1.00  0.00     0.091 N 
HETATM    9  C   UNL     1     -39.172 -53.317  14.179  1.00  0.00     0.302 C 
HETATM   10  C   UNL     1     -38.961 -51.842  14.595  1.00  0.00     0.302 C 
HETATM   11  N   UNL     1     -39.249 -50.861  13.527  1.00  0.00     0.087 N 
HETATM   12  C   UNL     1     -38.182 -50.847  12.526  1.00  0.00     0.310 C 
HETATM   13  C   UNL     1     -40.557 -51.161  12.911  1.00  0.00     0.302 C 
HETATM   14  C   UNL     1     -40.789 -52.651  12.541  1.00  0.00     0.302 C 
ENDBRANCH   7   8
ENDBRANCH   6   7
ENDBRANCH   5   6
ENDBRANCH   1   5
BRANCH   2  15
HETATM   15  C   UNL     1     -45.478 -51.712  13.660  1.00  0.00     0.062 C 
HETATM   16  C   UNL     1     -44.306 -50.766  13.330  1.00  0.00     0.030 C 
HETATM   17  C   UNL     1     -46.548 -51.553  12.557  1.00  0.00     0.030 C 
BRANCH  15  18
HETATM   18  C   UNL     1     -45.988 -51.354  15.062  1.00  0.00    -0.026 A 
HETATM   19  C   UNL     1     -47.281 -51.668  15.501  1.00  0.00     0.011 A 
HETATM   20  C   UNL     1     -47.707 -51.286  16.772  1.00  0.00     0.018 A 
HETATM   21  C   UNL     1     -46.825 -50.592  17.579  1.00  0.00     0.087 A 
HETATM   22  N   UNL     1     -45.577 -50.258  17.201  1.00  0.00    -0.375 N 
HETATM   23  C   UNL     1     -45.195 -50.628  15.956  1.00  0.00     0.096 A 
ATOM     24  HN  UNL     1     -44.949 -49.749  17.824  1.00  0.00     0.164 HD
ENDBRANCH  15  18
ENDBRANCH   2  15
TORSDOF 6
ENDMDL
MODEL 2
REMARK VINA RESULT:      -5.8      2.714      6.584
REMARK  6 active torsions:
REMARK  status: ('A' for Active; 'I' for Inactive)
REMARK    1  A    between atoms: N_5  and  C_6 
REMARK    2  A    between atoms: C_6  and  C_7 
REMARK    3  A    between atoms: C_7  and  C_8 
REMARK    4  A    between atoms: C_8  and  N_9 
REMARK       I    between atoms: N_9  and  C_10 
REMARK    5  A    between atoms: C_10  and  C_12 
REMARK    6  A    between atoms: C_12  and  C_15 
ROOT
HETATM    1  N   UNL     1     -38.877 -51.967  13.755  1.00  0.00    -0.360 N 
HETATM    2  C   UNL     1     -39.296 -50.654  13.829  1.00  0.00     0.230 C 
HETATM    3  O   UNL     1     -40.177 -50.294  14.608  1.00  0.00    -0.272 OA
HETATM    4  H   UNL     1     -38.104 -52.210  13.145  1.00  0.00     0.162 HD
ENDROOT
BRANCH   1   5
HETATM    5  C   UNL     1     -39.439 -52.997  14.602  1.00  0.00     0.124 C 
BRANCH   5   6
HETATM    6  C   UNL     1     -39.778 -54.241  13.791  1.00  0.00     0.050 C 
BRANCH   6   7
HETATM    7  C   UNL     1     -41.198 -54.138  13.227  1.00  0.00     0.274 C 
BRANCH   7   8
HETATM    8  N   UNL     1     -42.082 -53.242  13.995  1.00  0.00     0.091 N 
HETATM    9  C   UNL     1     -42.961 -53.958  14.946  1.00  0.00     0.302 C 
HETATM   10  C   UNL     1     -44.060 -54.818  14.278  1.00  0.00     0.302 C 
HETATM   11  N   UNL     1     -44.921 -54.077  13.332  1.00  0.00     0.087 N 
HETATM   12  C   UNL     1     -45.869 -53.221  14.045  1.00  0.00     0.310 C 
HETATM   13  C   UNL     1     -44.085 -53.292  12.402  1.00  0.00     0.302 C 
HETATM   14  C   UNL     1     -42.948 -52.470  13.069  1.00  0.00     0.302 C 
ENDBRANCH   7   8
ENDBRANCH   6   7
ENDBRANCH   5   6
ENDBRANCH   1   5
BRANCH   2  15
HETATM   15  C   UNL     1     -38.585 -49.685  12.852  1.00  0.00     0.062 C 
HETATM   16  C   UNL     1     -37.757 -48.670  13.666  1.00  0.00     0.030 C 
HETATM   17  C   UNL     1     -37.607 -50.543  12.018  1.00  0.00     0.030 C 
BRANCH  15  18
HETATM   18  C   UNL     1     -39.586 -48.895  11.999  1.00  0.00    -0.026 A 
HETATM   19  C   UNL     1     -39.722 -47.503  12.087  1.00  0.00     0.011 A 
HETATM   20  C   UNL     1     -40.674 -46.838  11.317  1.00  0.00     0.018 A 
HETATM   21  C   UNL     1     -41.475 -47.584  10.473  1.00  0.00     0.087 A 
HETATM   22  N   UNL     1     -41.391 -48.923  10.360  1.00  0.00    -0.375 N 
HETATM   23  C   UNL     1     -40.468 -49.545  11.131  1.00  0.00     0.096 A 
ATOM     24  HN  UNL     1     -41.995 -49.444   9.724  1.00  0.00     0.164 HD
ENDBRANCH  15  18
ENDBRANCH   2  15
TORSDOF 6
ENDMDL
MODEL 3
REMARK VINA RESULT:      -5.6      1.829      3.243
REMARK  6 active torsions:
REMARK  status: ('A' for Active; 'I' for Inactive)
REMARK    1  A    between atoms: N_5  and  C_6 
REMARK    2  A    between atoms: C_6  and  C_7 
REMARK    3  A    between atoms: C_7  and  C_8 
REMARK    4  A    between atoms: C_8  and  N_9 
REMARK       I    between atoms: N_9  and  C_10 
REMARK    5  A    between atoms: C_10  and  C_12 
REMARK    6  A    between atoms: C_12  and  C_15 
ROOT
HETATM    1  N   UNL     1     -43.136 -51.665  12.472  1.00  0.00    -0.360 N 
HETATM    2  C   UNL     1     -44.115 -51.217  13.337  1.00  0.00     0.230 C 
HETATM    3  O   UNL     1     -43.992 -50.175  13.979  1.00  0.00    -0.272 OA
HETATM    4  H   UNL     1     -43.305 -52.495  11.916  1.00  0.00     0.162 HD
ENDROOT
BRANCH   1   5
HETATM    5  C   UNL     1     -41.912 -50.924  12.257  1.00  0.00     0.124 C 
BRANCH   5   6
HETATM    6  C   UNL     1     -40.709 -51.858  12.237  1.00  0.00     0.050 C 
BRANCH   6   7
HETATM    7  C   UNL     1     -40.481 -52.461  13.626  1.00  0.00     0.274 C 
BRANCH   7   8
HETATM    8  N   UNL     1     -40.622 -53.928  13.672  1.00  0.00     0.091 N 
HETATM    9  C   UNL     1     -41.664 -54.389  14.616  1.00  0.00     0.302 C 
HETATM   10  C   UNL     1     -41.320 -54.163  16.107  1.00  0.00     0.302 C 
HETATM   11  N   UNL     1     -40.031 -54.750  16.530  1.00  0.00     0.087 N 
HETATM   12  C   UNL     1     -40.134 -56.204  16.659  1.00  0.00     0.310 C 
HETATM   13  C   UNL     1     -38.970 -54.371  15.576  1.00  0.00     0.302 C 
HETATM   14  C   UNL     1     -39.335 -54.548  14.077  1.00  0.00     0.302 C 
ENDBRANCH   7   8
ENDBRANCH   6   7
ENDBRANCH   5   6
ENDBRANCH   1   5
BRANCH   2  15
HETATM   15  C   UNL     1     -45.361 -52.132  13.444  1.00  0.00     0.062 C 
HETATM   16  C   UNL     1     -46.449 -51.611  12.483  1.00  0.00     0.030 C 
HETATM   17  C   UNL     1     -44.920 -53.530  12.956  1.00  0.00     0.030 C 
BRANCH  15  18
HETATM   18  C   UNL     1     -45.949 -52.136  14.861  1.00  0.00    -0.026 A 
HETATM   19  C   UNL     1     -47.054 -51.354  15.223  1.00  0.00     0.011 A 
HETATM   20  C   UNL     1     -47.526 -51.365  16.534  1.00  0.00     0.018 A 
HETATM   21  C   UNL     1     -46.877 -52.161  17.460  1.00  0.00     0.087 A 
HETATM   22  N   UNL     1     -45.806 -52.923  17.164  1.00  0.00    -0.375 N 
HETATM   23  C   UNL     1     -45.360 -52.881  15.887  1.00  0.00     0.096 A 
ATOM     24  HN  UNL     1     -45.353 -53.503  17.870  1.00  0.00     0.164 HD
ENDBRANCH  15  18
ENDBRANCH   2  15
TORSDOF 6
ENDMDL
MODEL 4
REMARK VINA RESULT:      -5.5      2.618      7.084
REMARK  6 active torsions:
REMARK  status: ('A' for Active; 'I' for Inactive)
REMARK    1  A    between atoms: N_5  and  C_6 
REMARK    2  A    between atoms: C_6  and  C_7 
REMARK    3  A    between atoms: C_7  and  C_8 
REMARK    4  A    between atoms: C_8  and  N_9 
REMARK       I    between atoms: N_9  and  C_10 
REMARK    5  A    between atoms: C_10  and  C_12 
REMARK    6  A    between atoms: C_12  and  C_15 
ROOT
HETATM    1  N   UNL     1     -40.032 -51.384  11.835  1.00  0.00    -0.360 N 
HETATM    2  C   UNL     1     -40.036 -50.245  12.614  1.00  0.00     0.230 C 
HETATM    3  O   UNL     1     -40.966 -49.977  13.372  1.00  0.00    -0.272 OA
HETATM    4  H   UNL     1     -39.218 -51.599  11.271  1.00  0.00     0.162 HD
ENDROOT
BRANCH   1   5
HETATM    5  C   UNL     1     -41.116 -52.342  11.878  1.00  0.00     0.124 C 
BRANCH   5   6
HETATM    6  C   UNL     1     -40.804 -53.471  12.852  1.00  0.00     0.050 C 
BRANCH   6   7
HETATM    7  C   UNL     1     -42.086 -53.953  13.536  1.00  0.00     0.274 C 
BRANCH   7   8
HETATM    8  N   UNL     1     -43.251 -53.079  13.306  1.00  0.00     0.091 N 
HETATM    9  C   UNL     1     -43.768 -52.452  14.543  1.00  0.00     0.302 C 
HETATM   10  C   UNL     1     -44.437 -53.440  15.528  1.00  0.00     0.302 C 
HETATM   11  N   UNL     1     -45.525 -54.247  14.937  1.00  0.00     0.087 N 
HETATM   12  C   UNL     1     -46.733 -53.442  14.751  1.00  0.00     0.310 C 
HETATM   13  C   UNL     1     -45.075 -54.838  13.661  1.00  0.00     0.302 C 
HETATM   14  C   UNL     1     -44.357 -53.857  12.694  1.00  0.00     0.302 C 
ENDBRANCH   7   8
ENDBRANCH   6   7
ENDBRANCH   5   6
ENDBRANCH   1   5
BRANCH   2  15
HETATM   15  C   UNL     1     -38.795 -49.333  12.444  1.00  0.00     0.062 C 
HETATM   16  C   UNL     1     -37.862 -49.949  11.382  1.00  0.00     0.030 C 
HETATM   17  C   UNL     1     -39.315 -47.983  11.900  1.00  0.00     0.030 C 
BRANCH  15  18
HETATM   18  C   UNL     1     -37.998 -49.201  13.748  1.00  0.00    -0.026 A 
HETATM   19  C   UNL     1     -37.517 -47.972  14.220  1.00  0.00     0.011 A 
HETATM   20  C   UNL     1     -36.764 -47.914  15.392  1.00  0.00     0.018 A 
HETATM   21  C   UNL     1     -36.506 -49.092  16.067  1.00  0.00     0.087 A 
HETATM   22  N   UNL     1     -36.937 -50.297  15.651  1.00  0.00    -0.375 N 
HETATM   23  C   UNL     1     -37.653 -50.327  14.502  1.00  0.00     0.096 A 
ATOM     24  HN  UNL     1     -36.734 -51.148  16.176  1.00  0.00     0.164 HD
ENDBRANCH  15  18
ENDBRANCH   2  15
TORSDOF 6
ENDMDL
MODEL 5
REMARK VINA RESULT:      -5.5      1.851      2.612
REMARK  6 active torsions:
REMARK  status: ('A' for Active; 'I' for Inactive)
REMARK    1  A    between atoms: N_5  and  C_6 
REMARK    2  A    between atoms: C_6  and  C_7 
REMARK    3  A    between atoms: C_7  and  C_8 
REMARK    4  A    between atoms: C_8  and  N_9 
REMARK       I    between atoms: N_9  and  C_10 
REMARK    5  A    between atoms: C_10  and  C_12 
REMARK    6  A    between atoms: C_12  and  C_15 
ROOT
HETATM    1  N   UNL     1     -43.220 -52.847  12.223  1.00  0.00    -0.360 N 
HETATM    2  C   UNL     1     -44.000 -52.227  13.179  1.00  0.00     0.230 C 
HETATM    3  O   UNL     1     -43.589 -51.273  13.838  1.00  0.00    -0.272 OA
HETATM    4  H   UNL     1     -43.619 -53.589  11.659  1.00  0.00     0.162 HD
ENDROOT
BRANCH   1   5
HETATM    5  C   UNL     1     -41.876 -52.400  11.928  1.00  0.00     0.124 C 
BRANCH   5   6
HETATM    6  C   UNL     1     -40.846 -53.288  12.615  1.00  0.00     0.050 C 
BRANCH   6   7
HETATM    7  C   UNL     1     -39.925 -52.447  13.502  1.00  0.00     0.274 C 
BRANCH   7   8
HETATM    8  N   UNL     1     -39.948 -51.006  13.191  1.00  0.00     0.091 N 
HETATM    9  C   UNL     1     -38.744 -50.542  12.466  1.00  0.00     0.302 C 
HETATM   10  C   UNL     1     -37.447 -50.555  13.309  1.00  0.00     0.302 C 
HETATM   11  N   UNL     1     -37.536 -49.798  14.576  1.00  0.00     0.087 N 
HETATM   12  C   UNL     1     -37.493 -48.356  14.330  1.00  0.00     0.310 C 
HETATM   13  C   UNL     1     -38.763 -50.180  15.303  1.00  0.00     0.302 C 
HETATM   14  C   UNL     1     -40.056 -50.218  14.444  1.00  0.00     0.302 C 
ENDBRANCH   7   8
ENDBRANCH   6   7
ENDBRANCH   5   6
ENDBRANCH   1   5
BRANCH   2  15
HETATM   15  C   UNL     1     -45.413 -52.833  13.362  1.00  0.00     0.062 C 
HETATM   16  C   UNL     1     -46.360 -52.227  12.307  1.00  0.00     0.030 C 
HETATM   17  C   UNL     1     -45.282 -54.346  13.076  1.00  0.00     0.030 C 
BRANCH  15  18
HETATM   18  C   UNL     1     -45.996 -52.521  14.747  1.00  0.00    -0.026 A 
HETATM   19  C   UNL     1     -46.885 -51.462  14.973  1.00  0.00     0.011 A 
HETATM   20  C   UNL     1     -47.355 -51.198  16.258  1.00  0.00     0.018 A 
HETATM   21  C   UNL     1     -46.919 -52.002  17.295  1.00  0.00     0.087 A 
HETATM   22  N   UNL     1     -46.058 -53.024  17.133  1.00  0.00    -0.375 N 
HETATM   23  C   UNL     1     -45.607 -53.249  15.876  1.00  0.00     0.096 A 
ATOM     24  HN  UNL     1     -45.761 -53.602  17.919  1.00  0.00     0.164 HD
ENDBRANCH  15  18
ENDBRANCH   2  15
TORSDOF 6
ENDMDL
MODEL 6
REMARK VINA RESULT:      -5.5      4.244      6.810
REMARK  6 active torsions:
REMARK  status: ('A' for Active; 'I' for Inactive)
REMARK    1  A    between atoms: N_5  and  C_6 
REMARK    2  A    between atoms: C_6  and  C_7 
REMARK    3  A    between atoms: C_7  and  C_8 
REMARK    4  A    between atoms: C_8  and  N_9 
REMARK       I    between atoms: N_9  and  C_10 
REMARK    5  A    between atoms: C_10  and  C_12 
REMARK    6  A    between atoms: C_12  and  C_15 
ROOT
HETATM    1  N   UNL     1     -41.940 -49.429  11.389  1.00  0.00    -0.360 N 
HETATM    2  C   UNL     1     -41.362 -48.216  11.074  1.00  0.00     0.230 C 
HETATM    3  O   UNL     1     -40.142 -48.072  11.007  1.00  0.00    -0.272 OA
HETATM    4  H   UNL     1     -42.949 -49.519  11.372  1.00  0.00     0.162 HD
ENDROOT
BRANCH   1   5
HETATM    5  C   UNL     1     -41.144 -50.610  11.642  1.00  0.00     0.124 C 
BRANCH   5   6
HETATM    6  C   UNL     1     -41.725 -51.419  12.795  1.00  0.00     0.050 C 
BRANCH   6   7
HETATM    7  C   UNL     1     -43.192 -51.043  13.022  1.00  0.00     0.274 C 
BRANCH   7   8
HETATM    8  N   UNL     1     -43.785 -51.649  14.228  1.00  0.00     0.091 N 
HETATM    9  C   UNL     1     -43.419 -53.072  14.411  1.00  0.00     0.302 C 
HETATM   10  C   UNL     1     -44.038 -54.030  13.367  1.00  0.00     0.302 C 
HETATM   11  N   UNL     1     -45.510 -53.949  13.263  1.00  0.00     0.087 N 
HETATM   12  C   UNL     1     -46.154 -54.599  14.405  1.00  0.00     0.310 C 
HETATM   13  C   UNL     1     -45.927 -52.537  13.147  1.00  0.00     0.302 C 
HETATM   14  C   UNL     1     -45.265 -51.566  14.162  1.00  0.00     0.302 C 
ENDBRANCH   7   8
ENDBRANCH   6   7
ENDBRANCH   5   6
ENDBRANCH   1   5
BRANCH   2  15
HETATM   15  C   UNL     1     -42.363 -47.059  10.831  1.00  0.00     0.062 C 
HETATM   16  C   UNL     1     -43.081 -46.730  12.156  1.00  0.00     0.030 C 
HETATM   17  C   UNL     1     -41.521 -45.829  10.424  1.00  0.00     0.030 C 
BRANCH  15  18
HETATM   18  C   UNL     1     -43.434 -47.435   9.799  1.00  0.00    -0.026 A 
HETATM   19  C   UNL     1     -44.801 -47.469  10.105  1.00  0.00     0.011 A 
HETATM   20  C   UNL     1     -45.730 -47.855   9.141  1.00  0.00     0.018 A 
HETATM   21  C   UNL     1     -45.268 -48.204   7.885  1.00  0.00     0.087 A 
HETATM   22  N   UNL     1     -43.966 -48.198   7.544  1.00  0.00    -0.375 N 
HETATM   23  C   UNL     1     -43.084 -47.833   8.505  1.00  0.00     0.096 A 
ATOM     24  HN  UNL     1     -43.658 -48.456   6.607  1.00  0.00     0.164 HD
ENDBRANCH  15  18
ENDBRANCH   2  15
TORSDOF 6
ENDMDL
MODEL 7
REMARK VINA RESULT:      -5.4      2.266      3.341
REMARK  6 active torsions:
REMARK  status: ('A' for Active; 'I' for Inactive)
REMARK    1  A    between atoms: N_5  and  C_6 
REMARK    2  A    between atoms: C_6  and  C_7 
REMARK    3  A    between atoms: C_7  and  C_8 
REMARK    4  A    between atoms: C_8  and  N_9 
REMARK       I    between atoms: N_9  and  C_10 
REMARK    5  A    between atoms: C_10  and  C_12 
REMARK    6  A    between atoms: C_12  and  C_15 
ROOT
HETATM    1  N   UNL     1     -43.300 -52.902  13.465  1.00  0.00    -0.360 N 
HETATM    2  C   UNL     1     -44.663 -52.937  13.251  1.00  0.00     0.230 C 
HETATM    3  O   UNL     1     -45.249 -53.974  12.944  1.00  0.00    -0.272 OA
HETATM    4  H   UNL     1     -42.867 -52.041  13.778  1.00  0.00     0.162 HD
ENDROOT
BRANCH   1   5
HETATM    5  C   UNL     1     -42.480 -54.090  13.358  1.00  0.00     0.124 C 
BRANCH   5   6
HETATM    6  C   UNL     1     -42.144 -54.643  14.736  1.00  0.00     0.050 C 
BRANCH   6   7
HETATM    7  C   UNL     1     -40.636 -54.563  14.988  1.00  0.00     0.274 C 
BRANCH   7   8
HETATM    8  N   UNL     1     -40.276 -54.368  16.405  1.00  0.00     0.091 N 
HETATM    9  C   UNL     1     -38.816 -54.351  16.643  1.00  0.00     0.302 C 
HETATM   10  C   UNL     1     -38.118 -55.716  16.434  1.00  0.00     0.302 C 
HETATM   11  N   UNL     1     -38.695 -56.823  17.225  1.00  0.00     0.087 N 
HETATM   12  C   UNL     1     -38.311 -56.717  18.633  1.00  0.00     0.310 C 
HETATM   13  C   UNL     1     -40.164 -56.837  17.071  1.00  0.00     0.302 C 
HETATM   14  C   UNL     1     -40.858 -55.457  17.230  1.00  0.00     0.302 C 
ENDBRANCH   7   8
ENDBRANCH   6   7
ENDBRANCH   5   6
ENDBRANCH   1   5
BRANCH   2  15
HETATM   15  C   UNL     1     -45.385 -51.576  13.411  1.00  0.00     0.062 C 
HETATM   16  C   UNL     1     -44.403 -50.443  13.048  1.00  0.00     0.030 C 
HETATM   17  C   UNL     1     -46.533 -51.565  12.379  1.00  0.00     0.030 C 
BRANCH  15  18
HETATM   18  C   UNL     1     -45.856 -51.343  14.853  1.00  0.00    -0.026 A 
HETATM   19  C   UNL     1     -47.172 -51.585  15.268  1.00  0.00     0.011 A 
HETATM   20  C   UNL     1     -47.557 -51.320  16.581  1.00  0.00     0.018 A 
HETATM   21  C   UNL     1     -46.613 -50.813  17.453  1.00  0.00     0.087 A 
HETATM   22  N   UNL     1     -45.339 -50.553  17.102  1.00  0.00    -0.375 N 
HETATM   23  C   UNL     1     -44.996 -50.806  15.817  1.00  0.00     0.096 A 
ATOM     24  HN  UNL     1     -44.665 -50.184  17.772  1.00  0.00     0.164 HD
ENDBRANCH  15  18
ENDBRANCH   2  15
TORSDOF 6
ENDMDL
MODEL 8
REMARK VINA RESULT:      -5.3      3.388      5.687
REMARK  6 active torsions:
REMARK  status: ('A' for Active; 'I' for Inactive)
REMARK    1  A    between atoms: N_5  and  C_6 
REMARK    2  A    between atoms: C_6  and  C_7 
REMARK    3  A    between atoms: C_7  and  C_8 
REMARK    4  A    between atoms: C_8  and  N_9 
REMARK       I    between atoms: N_9  and  C_10 
REMARK    5  A    between atoms: C_10  and  C_12 
REMARK    6  A    between atoms: C_12  and  C_15 
ROOT
HETATM    1  N   UNL     1     -39.638 -51.824  14.222  1.00  0.00    -0.360 N 
HETATM    2  C   UNL     1     -39.890 -53.181  14.190  1.00  0.00     0.230 C 
HETATM    3  O   UNL     1     -39.257 -53.945  13.464  1.00  0.00    -0.272 OA
HETATM    4  H   UNL     1     -40.140 -51.240  14.881  1.00  0.00     0.162 HD
ENDROOT
BRANCH   1   5
HETATM    5  C   UNL     1     -38.601 -51.221  13.414  1.00  0.00     0.124 C 
BRANCH   5   6
HETATM    6  C   UNL     1     -39.186 -50.611  12.147  1.00  0.00     0.050 C 
BRANCH   6   7
HETATM    7  C   UNL     1     -38.978 -49.094  12.142  1.00  0.00     0.274 C 
BRANCH   7   8
HETATM    8  N   UNL     1     -40.091 -48.336  12.740  1.00  0.00     0.091 N 
HETATM    9  C   UNL     1     -41.412 -48.683  12.170  1.00  0.00     0.302 C 
HETATM   10  C   UNL     1     -41.613 -48.232  10.704  1.00  0.00     0.302 C 
HETATM   11  N   UNL     1     -41.383 -46.791  10.473  1.00  0.00     0.087 N 
HETATM   12  C   UNL     1     -42.495 -45.992  10.988  1.00  0.00     0.310 C 
HETATM   13  C   UNL     1     -40.103 -46.383  11.087  1.00  0.00     0.302 C 
HETATM   14  C   UNL     1     -39.878 -46.881  12.540  1.00  0.00     0.302 C 
ENDBRANCH   7   8
ENDBRANCH   6   7
ENDBRANCH   5   6
ENDBRANCH   1   5
BRANCH   2  15
HETATM   15  C   UNL     1     -41.034 -53.655  15.122  1.00  0.00     0.062 C 
HETATM   16  C   UNL     1     -40.624 -54.989  15.778  1.00  0.00     0.030 C 
HETATM   17  C   UNL     1     -41.161 -52.592  16.235  1.00  0.00     0.030 C 
BRANCH  15  18
HETATM   18  C   UNL     1     -42.339 -53.895  14.351  1.00  0.00    -0.026 A 
HETATM   19  C   UNL     1     -43.395 -54.657  14.869  1.00  0.00     0.011 A 
HETATM   20  C   UNL     1     -44.544 -54.876  14.111  1.00  0.00     0.018 A 
HETATM   21  C   UNL     1     -44.610 -54.326  12.844  1.00  0.00     0.087 A 
HETATM   22  N   UNL     1     -43.620 -53.596  12.298  1.00  0.00    -0.375 N 
HETATM   23  C   UNL     1     -42.510 -53.411  13.050  1.00  0.00     0.096 A 
ATOM     24  HN  UNL     1     -43.703 -53.200  11.362  1.00  0.00     0.164 HD
ENDBRANCH  15  18
ENDBRANCH   2  15
TORSDOF 6
ENDMDL
MODEL 9
REMARK VINA RESULT:      -5.2      4.352      6.546
REMARK  6 active torsions:
REMARK  status: ('A' for Active; 'I' for Inactive)
REMARK    1  A    between atoms: N_5  and  C_6 
REMARK    2  A    between atoms: C_6  and  C_7 
REMARK    3  A    between atoms: C_7  and  C_8 
REMARK    4  A    between atoms: C_8  and  N_9 
REMARK       I    between atoms: N_9  and  C_10 
REMARK    5  A    between atoms: C_10  and  C_12 
REMARK    6  A    between atoms: C_12  and  C_15 
ROOT
HETATM    1  N   UNL     1     -40.726 -48.416  12.847  1.00  0.00    -0.360 N 
HETATM    2  C   UNL     1     -40.741 -47.250  12.108  1.00  0.00     0.230 C 
HETATM    3  O   UNL     1     -39.782 -46.899  11.423  1.00  0.00    -0.272 OA
HETATM    4  H   UNL     1     -41.561 -48.699  13.348  1.00  0.00     0.162 HD
ENDROOT
BRANCH   1   5
HETATM    5  C   UNL     1     -39.585 -49.305  12.845  1.00  0.00     0.124 C 
BRANCH   5   6
HETATM    6  C   UNL     1     -39.849 -50.524  11.971  1.00  0.00     0.050 C 
BRANCH   6   7
HETATM    7  C   UNL     1     -39.966 -51.783  12.834  1.00  0.00     0.274 C 
BRANCH   7   8
HETATM    8  N   UNL     1     -40.887 -52.798  12.289  1.00  0.00     0.091 N 
HETATM    9  C   UNL     1     -42.295 -52.347  12.241  1.00  0.00     0.302 C 
HETATM   10  C   UNL     1     -42.961 -52.181  13.627  1.00  0.00     0.302 C 
HETATM   11  N   UNL     1     -42.898 -53.386  14.481  1.00  0.00     0.087 N 
HETATM   12  C   UNL     1     -43.845 -54.403  14.025  1.00  0.00     0.310 C 
HETATM   13  C   UNL     1     -41.518 -53.912  14.505  1.00  0.00     0.302 C 
HETATM   14  C   UNL     1     -40.831 -54.029  13.117  1.00  0.00     0.302 C 
ENDBRANCH   7   8
ENDBRANCH   6   7
ENDBRANCH   5   6
ENDBRANCH   1   5
BRANCH   2  15
HETATM   15  C   UNL     1     -42.044 -46.420  12.224  1.00  0.00     0.062 C 
HETATM   16  C   UNL     1     -42.827 -46.886  13.469  1.00  0.00     0.030 C 
HETATM   17  C   UNL     1     -41.611 -44.954  12.451  1.00  0.00     0.030 C 
BRANCH  15  18
HETATM   18  C   UNL     1     -42.954 -46.607  11.003  1.00  0.00    -0.026 A 
HETATM   19  C   UNL     1     -42.999 -45.689   9.945  1.00  0.00     0.011 A 
HETATM   20  C   UNL     1     -43.872 -45.888   8.877  1.00  0.00     0.018 A 
HETATM   21  C   UNL     1     -44.687 -47.004   8.892  1.00  0.00     0.087 A 
HETATM   22  N   UNL     1     -44.689 -47.910   9.889  1.00  0.00    -0.375 N 
HETATM   23  C   UNL     1     -43.842 -47.684  10.921  1.00  0.00     0.096 A 
ATOM     24  HN  UNL     1     -45.299 -48.726   9.867  1.00  0.00     0.164 HD
ENDBRANCH  15  18
ENDBRANCH   2  15
TORSDOF 6
ENDMDL
