MODEL 1
REMARK VINA RESULT:      -6.0      0.000      0.000
REMARK  4 active torsions:
REMARK  status: ('A' for Active; 'I' for Inactive)
REMARK       I    between atoms: N_2  and  C_3 
REMARK    1  A    between atoms: C_3  and  C_5 
REMARK    2  A    between atoms: N_10  and  C_11 
REMARK    3  A    between atoms: C_11  and  C_12 
REMARK       I    between atoms: C_12  and  N_14 
REMARK    4  A    between atoms: N_14  and  C_15 
ROOT
HETATM    1  C   UNL     1     -42.564 -47.869  10.776  1.00  0.00     0.216 C 
HETATM    2  C   UNL     1     -43.153 -47.616   9.458  1.00  0.00    -0.098 C 
HETATM    3  C   UNL     1     -43.666 -47.351   8.402  1.00  0.00     0.014 C 
ENDROOT
BRANCH   1   4
HETATM    4  N   UNL     1     -41.793 -49.086  10.792  1.00  0.00    -0.349 N 
HETATM    5  C   UNL     1     -41.211 -49.514  11.962  1.00  0.00     0.236 C 
HETATM    6  O   UNL     1     -41.312 -48.873  13.010  1.00  0.00    -0.272 OA
HETATM    7  H   UNL     1     -41.680 -49.627   9.943  1.00  0.00     0.163 HD
BRANCH   5   8
HETATM    8  C   UNL     1     -40.387 -50.808  11.916  1.00  0.00     0.234 C 
BRANCH   8   9
HETATM    9  N   UNL     1     -41.023 -51.997  12.488  1.00  0.00    -0.315 N 
HETATM   10  C   UNL     1     -40.237 -52.882  13.220  1.00  0.00     0.247 A 
HETATM   11  C   UNL     1     -40.948 -54.066  13.776  1.00  0.00     0.075 A 
HETATM   12  O   UNL     1     -39.039 -52.740  13.441  1.00  0.00    -0.268 OA
HETATM   13  C   UNL     1     -42.265 -54.227  13.582  1.00  0.00     0.024 A 
HETATM   14  C   UNL     1     -43.020 -53.260  12.810  1.00  0.00     0.047 A 
HETATM   15  C   UNL     1     -42.382 -52.197  12.292  1.00  0.00     0.111 A 
BRANCH  14  16
HETATM   16  C   UNL     1     -44.506 -53.288  12.637  1.00  0.00     0.252 C 
HETATM   17  N   UNL     1     -45.117 -52.073  12.450  1.00  0.00    -0.361 N 
HETATM   18  C   UNL     1     -46.545 -52.010  12.265  1.00  0.00     0.149 C 
HETATM   19  H   UNL     1     -44.604 -51.211  12.566  1.00  0.00     0.162 HD
HETATM   20  O   UNL     1     -45.131 -54.346  12.670  1.00  0.00    -0.268 OA
ENDBRANCH  14  16
ENDBRANCH   8   9
ENDBRANCH   5   8
ENDBRANCH   1   4
TORSDOF 4
ENDMDL
MODEL 2
REMARK VINA RESULT:      -6.0      1.754      5.525
REMARK  4 active torsions:
REMARK  status: ('A' for Active; 'I' for Inactive)
REMARK       I    between atoms: N_2  and  C_3 
REMARK    1  A    between atoms: C_3  and  C_5 
REMARK    2  A    between atoms: N_10  and  C_11 
REMARK    3  A    between atoms: C_11  and  C_12 
REMARK       I    between atoms: C_12  and  N_14 
REMARK    4  A    between atoms: N_14  and  C_15 
ROOT
HETATM    1  C   UNL     1     -44.862 -52.972  12.626  1.00  0.00     0.216 C 
HETATM    2  C   UNL     1     -45.117 -54.263  13.271  1.00  0.00    -0.098 C 
HETATM    3  C   UNL     1     -45.388 -55.300  13.820  1.00  0.00     0.014 C 
ENDROOT
BRANCH   1   4
HETATM    4  N   UNL     1     -43.543 -52.912  12.053  1.00  0.00    -0.349 N 
HETATM    5  C   UNL     1     -42.496 -52.411  12.790  1.00  0.00     0.236 C 
HETATM    6  O   UNL     1     -42.654 -51.989  13.937  1.00  0.00    -0.272 OA
HETATM    7  H   UNL     1     -43.384 -53.238  11.107  1.00  0.00     0.163 HD
BRANCH   5   8
HETATM    8  C   UNL     1     -41.116 -52.355  12.122  1.00  0.00     0.234 C 
BRANCH   8   9
HETATM    9  N   UNL     1     -40.502 -51.029  12.023  1.00  0.00    -0.315 N 
HETATM   10  C   UNL     1     -39.198 -50.865  12.480  1.00  0.00     0.247 A 
HETATM   11  C   UNL     1     -38.636 -49.493  12.344  1.00  0.00     0.075 A 
HETATM   12  O   UNL     1     -38.504 -51.756  12.957  1.00  0.00    -0.268 OA
HETATM   13  C   UNL     1     -39.359 -48.508  11.792  1.00  0.00     0.024 A 
HETATM   14  C   UNL     1     -40.711 -48.754  11.334  1.00  0.00     0.047 A 
HETATM   15  C   UNL     1     -41.232 -49.987  11.468  1.00  0.00     0.111 A 
BRANCH  14  16
HETATM   16  C   UNL     1     -41.554 -47.758  10.602  1.00  0.00     0.252 C 
HETATM   17  N   UNL     1     -42.325 -48.251   9.579  1.00  0.00    -0.361 N 
HETATM   18  C   UNL     1     -43.174 -47.360   8.829  1.00  0.00     0.149 C 
HETATM   19  H   UNL     1     -42.215 -49.202   9.259  1.00  0.00     0.162 HD
HETATM   20  O   UNL     1     -41.539 -46.567  10.906  1.00  0.00    -0.268 OA
ENDBRANCH  14  16
ENDBRANCH   8   9
ENDBRANCH   5   8
ENDBRANCH   1   4
TORSDOF 4
ENDMDL
MODEL 3
REMARK VINA RESULT:      -5.5      2.522      5.645
REMARK  4 active torsions:
REMARK  status: ('A' for Active; 'I' for Inactive)
REMARK       I    between atoms: N_2  and  C_3 
REMARK    1  A    between atoms: C_3  and  C_5 
REMARK    2  A    between atoms: N_10  and  C_11 
REMARK    3  A    between atoms: C_11  and  C_12 
REMARK       I    between atoms: C_12  and  N_14 
REMARK    4  A    between atoms: N_14  and  C_15 
ROOT
HETATM    1  C   UNL     1     -47.237 -51.662  15.955  1.00  0.00     0.216 C 
HETATM    2  C   UNL     1     -46.371 -50.804  16.768  1.00  0.00    -0.098 C 
HETATM    3  C   UNL     1     -45.717 -50.070  17.463  1.00  0.00     0.014 C 
ENDROOT
BRANCH   1   4
HETATM    4  N   UNL     1     -46.475 -52.539  15.105  1.00  0.00    -0.349 N 
HETATM    5  C   UNL     1     -46.324 -52.243  13.771  1.00  0.00     0.236 C 
HETATM    6  O   UNL     1     -46.843 -51.246  13.265  1.00  0.00    -0.272 OA
HETATM    7  H   UNL     1     -46.048 -53.374  15.489  1.00  0.00     0.163 HD
BRANCH   5   8
HETATM    8  C   UNL     1     -45.516 -53.222  12.909  1.00  0.00     0.234 C 
BRANCH   8   9
HETATM    9  N   UNL     1     -44.129 -53.448  13.320  1.00  0.00    -0.315 N 
HETATM   10  C   UNL     1     -43.855 -54.511  14.176  1.00  0.00     0.247 A 
HETATM   11  C   UNL     1     -42.424 -54.684  14.549  1.00  0.00     0.075 A 
HETATM   12  O   UNL     1     -44.690 -55.294  14.612  1.00  0.00    -0.268 OA
HETATM   13  C   UNL     1     -41.483 -53.865  14.056  1.00  0.00     0.024 A 
HETATM   14  C   UNL     1     -41.844 -52.781  13.166  1.00  0.00     0.047 A 
HETATM   15  C   UNL     1     -43.136 -52.607  12.838  1.00  0.00     0.111 A 
BRANCH  14  16
HETATM   16  C   UNL     1     -40.861 -51.889  12.474  1.00  0.00     0.252 C 
HETATM   17  N   UNL     1     -41.388 -50.831  11.777  1.00  0.00    -0.361 N 
HETATM   18  C   UNL     1     -40.511 -49.917  11.090  1.00  0.00     0.149 C 
HETATM   19  H   UNL     1     -42.384 -50.752  11.630  1.00  0.00     0.162 HD
HETATM   20  O   UNL     1     -39.653 -52.110  12.530  1.00  0.00    -0.268 OA
ENDBRANCH  14  16
ENDBRANCH   8   9
ENDBRANCH   5   8
ENDBRANCH   1   4
TORSDOF 4
ENDMDL
MODEL 4
REMARK VINA RESULT:      -5.5      2.731      5.567
REMARK  4 active torsions:
REMARK  status: ('A' for Active; 'I' for Inactive)
REMARK       I    between atoms: N_2  and  C_3 
REMARK    1  A    between atoms: C_3  and  C_5 
REMARK    2  A    between atoms: N_10  and  C_11 
REMARK    3  A    between atoms: C_11  and  C_12 
REMARK       I    between atoms: C_12  and  N_14 
REMARK    4  A    between atoms: N_14  and  C_15 
ROOT
HETATM    1  C   UNL     1     -46.739 -51.546  14.263  1.00  0.00     0.216 C 
HETATM    2  C   UNL     1     -47.085 -51.378  15.678  1.00  0.00    -0.098 C 
HETATM    3  C   UNL     1     -47.416 -51.193  16.820  1.00  0.00     0.014 C 
ENDROOT
BRANCH   1   4
HETATM    4  N   UNL     1     -45.668 -52.492  14.083  1.00  0.00    -0.349 N 
HETATM    5  C   UNL     1     -45.402 -52.997  12.833  1.00  0.00     0.236 C 
HETATM    6  O   UNL     1     -46.070 -52.679  11.848  1.00  0.00    -0.272 OA
HETATM    7  H   UNL     1     -45.110 -52.784  14.877  1.00  0.00     0.163 HD
BRANCH   5   8
HETATM    8  C   UNL     1     -44.260 -54.014  12.704  1.00  0.00     0.234 C 
BRANCH   8   9
HETATM    9  N   UNL     1     -42.956 -53.588  13.215  1.00  0.00    -0.315 N 
HETATM   10  C   UNL     1     -42.402 -54.286  14.284  1.00  0.00     0.247 A 
HETATM   11  C   UNL     1     -41.074 -53.801  14.750  1.00  0.00     0.075 A 
HETATM   12  O   UNL     1     -42.918 -55.252  14.835  1.00  0.00    -0.268 OA
HETATM   13  C   UNL     1     -40.469 -52.770  14.143  1.00  0.00     0.024 A 
HETATM   14  C   UNL     1     -41.106 -52.093  13.031  1.00  0.00     0.047 A 
HETATM   15  C   UNL     1     -42.313 -52.515  12.615  1.00  0.00     0.111 A 
BRANCH  14  16
HETATM   16  C   UNL     1     -40.466 -51.014  12.216  1.00  0.00     0.252 C 
HETATM   17  N   UNL     1     -39.094 -50.985  12.219  1.00  0.00    -0.361 N 
HETATM   18  C   UNL     1     -38.396 -49.984  11.451  1.00  0.00     0.149 C 
HETATM   19  H   UNL     1     -38.564 -51.571  12.848  1.00  0.00     0.162 HD
HETATM   20  O   UNL     1     -41.145 -50.203  11.590  1.00  0.00    -0.268 OA
ENDBRANCH  14  16
ENDBRANCH   8   9
ENDBRANCH   5   8
ENDBRANCH   1   4
TORSDOF 4
ENDMDL
MODEL 5
REMARK VINA RESULT:      -5.4      3.585      6.034
REMARK  4 active torsions:
REMARK  status: ('A' for Active; 'I' for Inactive)
REMARK       I    between atoms: N_2  and  C_3 
REMARK    1  A    between atoms: C_3  and  C_5 
REMARK    2  A    between atoms: N_10  and  C_11 
REMARK    3  A    between atoms: C_11  and  C_12 
REMARK       I    between atoms: C_12  and  N_14 
REMARK    4  A    between atoms: N_14  and  C_15 
ROOT
HETATM    1  C   UNL     1     -41.028 -53.968  13.395  1.00  0.00     0.216 C 
HETATM    2  C   UNL     1     -40.587 -52.643  12.949  1.00  0.00    -0.098 C 
HETATM    3  C   UNL     1     -40.161 -51.574  12.596  1.00  0.00     0.014 C 
ENDROOT
BRANCH   1   4
HETATM    4  N   UNL     1     -42.459 -54.109  13.320  1.00  0.00    -0.349 N 
HETATM    5  C   UNL     1     -43.145 -54.709  14.350  1.00  0.00     0.236 C 
HETATM    6  O   UNL     1     -42.567 -55.154  15.343  1.00  0.00    -0.272 OA
HETATM    7  H   UNL     1     -42.961 -53.766  12.510  1.00  0.00     0.163 HD
BRANCH   5   8
HETATM    8  C   UNL     1     -44.666 -54.848  14.207  1.00  0.00     0.234 C 
BRANCH   8   9
HETATM    9  N   UNL     1     -45.444 -53.617  14.369  1.00  0.00    -0.315 N 
HETATM   10  C   UNL     1     -45.751 -52.873  13.235  1.00  0.00     0.247 A 
HETATM   11  C   UNL     1     -46.547 -51.637  13.472  1.00  0.00     0.075 A 
HETATM   12  O   UNL     1     -45.430 -53.172  12.090  1.00  0.00    -0.268 OA
HETATM   13  C   UNL     1     -46.944 -51.305  14.709  1.00  0.00     0.024 A 
HETATM   14  C   UNL     1     -46.588 -52.132  15.844  1.00  0.00     0.047 A 
HETATM   15  C   UNL     1     -45.856 -53.241  15.639  1.00  0.00     0.111 A 
BRANCH  14  16
HETATM   16  C   UNL     1     -47.079 -51.912  17.240  1.00  0.00     0.252 C 
HETATM   17  N   UNL     1     -47.798 -50.763  17.457  1.00  0.00    -0.361 N 
HETATM   18  C   UNL     1     -48.316 -50.479  18.771  1.00  0.00     0.149 C 
HETATM   19  H   UNL     1     -47.864 -50.051  16.744  1.00  0.00     0.162 HD
HETATM   20  O   UNL     1     -46.836 -52.720  18.134  1.00  0.00    -0.268 OA
ENDBRANCH  14  16
ENDBRANCH   8   9
ENDBRANCH   5   8
ENDBRANCH   1   4
TORSDOF 4
ENDMDL
MODEL 6
REMARK VINA RESULT:      -5.3      2.764      6.153
REMARK  4 active torsions:
REMARK  status: ('A' for Active; 'I' for Inactive)
REMARK       I    between atoms: N_2  and  C_3 
REMARK    1  A    between atoms: C_3  and  C_5 
REMARK    2  A    between atoms: N_10  and  C_11 
REMARK    3  A    between atoms: C_11  and  C_12 
REMARK       I    between atoms: C_12  and  N_14 
REMARK    4  A    between atoms: N_14  and  C_15 
ROOT
HETATM    1  C   UNL     1     -41.737 -54.202  13.292  1.00  0.00     0.216 C 
HETATM    2  C   UNL     1     -42.718 -54.582  14.312  1.00  0.00    -0.098 C 
HETATM    3  C   UNL     1     -43.543 -54.948  15.110  1.00  0.00     0.014 C 
ENDROOT
BRANCH   1   4
HETATM    4  N   UNL     1     -41.008 -53.018  13.666  1.00  0.00    -0.349 N 
HETATM    5  C   UNL     1     -39.641 -53.068  13.803  1.00  0.00     0.236 C 
HETATM    6  O   UNL     1     -39.010 -54.112  13.632  1.00  0.00    -0.272 OA
HETATM    7  H   UNL     1     -41.501 -52.147  13.827  1.00  0.00     0.163 HD
BRANCH   5   8
HETATM    8  C   UNL     1     -38.919 -51.780  14.220  1.00  0.00     0.234 C 
BRANCH   8   9
HETATM    9  N   UNL     1     -38.678 -50.803  13.156  1.00  0.00    -0.315 N 
HETATM   10  C   UNL     1     -37.562 -50.970  12.342  1.00  0.00     0.247 A 
HETATM   11  C   UNL     1     -37.381 -49.943  11.279  1.00  0.00     0.075 A 
HETATM   12  O   UNL     1     -36.756 -51.889  12.434  1.00  0.00    -0.268 OA
HETATM   13  C   UNL     1     -38.267 -48.948  11.130  1.00  0.00     0.024 A 
HETATM   14  C   UNL     1     -39.410 -48.840  12.015  1.00  0.00     0.047 A 
HETATM   15  C   UNL     1     -39.571 -49.754  12.988  1.00  0.00     0.111 A 
BRANCH  14  16
HETATM   16  C   UNL     1     -40.512 -47.840  11.859  1.00  0.00     0.252 C 
HETATM   17  N   UNL     1     -40.553 -47.164  10.666  1.00  0.00    -0.361 N 
HETATM   18  C   UNL     1     -41.588 -46.190  10.429  1.00  0.00     0.149 C 
HETATM   19  H   UNL     1     -39.798 -47.241  10.000  1.00  0.00     0.162 HD
HETATM   20  O   UNL     1     -41.323 -47.643  12.761  1.00  0.00    -0.268 OA
ENDBRANCH  14  16
ENDBRANCH   8   9
ENDBRANCH   5   8
ENDBRANCH   1   4
TORSDOF 4
ENDMDL
MODEL 7
REMARK VINA RESULT:      -5.3      2.571      3.276
REMARK  4 active torsions:
REMARK  status: ('A' for Active; 'I' for Inactive)
REMARK       I    between atoms: N_2  and  C_3 
REMARK    1  A    between atoms: C_3  and  C_5 
REMARK    2  A    between atoms: N_10  and  C_11 
REMARK    3  A    between atoms: C_11  and  C_12 
REMARK       I    between atoms: C_12  and  N_14 
REMARK    4  A    between atoms: N_14  and  C_15 
ROOT
HETATM    1  C   UNL     1     -38.774 -49.425  12.133  1.00  0.00     0.216 C 
HETATM    2  C   UNL     1     -38.081 -49.332  13.421  1.00  0.00    -0.098 C 
HETATM    3  C   UNL     1     -37.501 -49.190  14.467  1.00  0.00     0.014 C 
ENDROOT
BRANCH   1   4
HETATM    4  N   UNL     1     -39.236 -50.762  11.868  1.00  0.00    -0.349 N 
HETATM    5  C   UNL     1     -40.577 -51.055  11.950  1.00  0.00     0.236 C 
HETATM    6  O   UNL     1     -41.409 -50.203  12.265  1.00  0.00    -0.272 OA
HETATM    7  H   UNL     1     -38.574 -51.488  11.621  1.00  0.00     0.163 HD
BRANCH   5   8
HETATM    8  C   UNL     1     -41.009 -52.501  11.674  1.00  0.00     0.234 C 
BRANCH   8   9
HETATM    9  N   UNL     1     -41.406 -53.289  12.843  1.00  0.00    -0.315 N 
HETATM   10  C   UNL     1     -40.415 -53.729  13.714  1.00  0.00     0.247 A 
HETATM   11  C   UNL     1     -40.889 -54.520  14.882  1.00  0.00     0.075 A 
HETATM   12  O   UNL     1     -39.217 -53.498  13.590  1.00  0.00    -0.268 OA
HETATM   13  C   UNL     1     -42.197 -54.756  15.064  1.00  0.00     0.024 A 
HETATM   14  C   UNL     1     -43.174 -54.263  14.115  1.00  0.00     0.047 A 
HETATM   15  C   UNL     1     -42.751 -53.561  13.049  1.00  0.00     0.111 A 
BRANCH  14  16
HETATM   16  C   UNL     1     -44.655 -54.371  14.289  1.00  0.00     0.252 C 
HETATM   17  N   UNL     1     -45.332 -53.193  14.483  1.00  0.00    -0.361 N 
HETATM   18  C   UNL     1     -46.763 -53.207  14.649  1.00  0.00     0.149 C 
HETATM   19  H   UNL     1     -44.833 -52.329  14.639  1.00  0.00     0.162 HD
HETATM   20  O   UNL     1     -45.220 -55.463  14.265  1.00  0.00    -0.268 OA
ENDBRANCH  14  16
ENDBRANCH   8   9
ENDBRANCH   5   8
ENDBRANCH   1   4
TORSDOF 4
ENDMDL
MODEL 8
REMARK VINA RESULT:      -5.2      1.678      2.120
REMARK  4 active torsions:
REMARK  status: ('A' for Active; 'I' for Inactive)
REMARK       I    between atoms: N_2  and  C_3 
REMARK    1  A    between atoms: C_3  and  C_5 
REMARK    2  A    between atoms: N_10  and  C_11 
REMARK    3  A    between atoms: C_11  and  C_12 
REMARK       I    between atoms: C_12  and  N_14 
REMARK    4  A    between atoms: N_14  and  C_15 
ROOT
HETATM    1  C   UNL     1     -43.357 -47.682  10.993  1.00  0.00     0.216 C 
HETATM    2  C   UNL     1     -43.798 -47.001   9.773  1.00  0.00    -0.098 C 
HETATM    3  C   UNL     1     -44.203 -46.404   8.809  1.00  0.00     0.014 C 
ENDROOT
BRANCH   1   4
HETATM    4  N   UNL     1     -42.363 -48.686  10.716  1.00  0.00    -0.349 N 
HETATM    5  C   UNL     1     -41.205 -48.728  11.456  1.00  0.00     0.236 C 
HETATM    6  O   UNL     1     -40.976 -47.912  12.350  1.00  0.00    -0.272 OA
HETATM    7  H   UNL     1     -42.516 -49.362   9.977  1.00  0.00     0.163 HD
BRANCH   5   8
HETATM    8  C   UNL     1     -40.173 -49.808  11.105  1.00  0.00     0.234 C 
BRANCH   8   9
HETATM    9  N   UNL     1     -40.001 -50.879  12.089  1.00  0.00    -0.315 N 
HETATM   10  C   UNL     1     -38.829 -50.908  12.840  1.00  0.00     0.247 A 
HETATM   11  C   UNL     1     -38.723 -52.020  13.824  1.00  0.00     0.075 A 
HETATM   12  O   UNL     1     -37.919 -50.091  12.753  1.00  0.00    -0.268 OA
HETATM   13  C   UNL     1     -39.719 -52.906  13.967  1.00  0.00     0.024 A 
HETATM   14  C   UNL     1     -40.913 -52.810  13.151  1.00  0.00     0.047 A 
HETATM   15  C   UNL     1     -41.009 -51.818  12.249  1.00  0.00     0.111 A 
BRANCH  14  16
HETATM   16  C   UNL     1     -42.123 -53.674  13.315  1.00  0.00     0.252 C 
HETATM   17  N   UNL     1     -43.213 -53.344  12.548  1.00  0.00    -0.361 N 
HETATM   18  C   UNL     1     -44.417 -54.131  12.637  1.00  0.00     0.149 C 
HETATM   19  H   UNL     1     -43.231 -52.485  12.017  1.00  0.00     0.162 HD
HETATM   20  O   UNL     1     -42.128 -54.619  14.102  1.00  0.00    -0.268 OA
ENDBRANCH  14  16
ENDBRANCH   8   9
ENDBRANCH   5   8
ENDBRANCH   1   4
TORSDOF 4
ENDMDL
MODEL 9
REMARK VINA RESULT:      -5.1      3.063      7.017
REMARK  4 active torsions:
REMARK  status: ('A' for Active; 'I' for Inactive)
REMARK       I    between atoms: N_2  and  C_3 
REMARK    1  A    between atoms: C_3  and  C_5 
REMARK    2  A    between atoms: N_10  and  C_11 
REMARK    3  A    between atoms: C_11  and  C_12 
REMARK       I    between atoms: C_12  and  N_14 
REMARK    4  A    between atoms: N_14  and  C_15 
ROOT
HETATM    1  C   UNL     1     -40.225 -56.101  17.710  1.00  0.00     0.216 C 
HETATM    2  C   UNL     1     -39.011 -55.891  16.917  1.00  0.00    -0.098 C 
HETATM    3  C   UNL     1     -37.985 -55.772  16.297  1.00  0.00     0.014 C 
ENDROOT
BRANCH   1   4
HETATM    4  N   UNL     1     -41.230 -55.111  17.423  1.00  0.00    -0.349 N 
HETATM    5  C   UNL     1     -42.362 -55.464  16.727  1.00  0.00     0.236 C 
HETATM    6  O   UNL     1     -42.541 -56.613  16.319  1.00  0.00    -0.272 OA
HETATM    7  H   UNL     1     -41.104 -54.155  17.733  1.00  0.00     0.163 HD
BRANCH   5   8
HETATM    8  C   UNL     1     -43.391 -54.364  16.435  1.00  0.00     0.234 C 
BRANCH   8   9
HETATM    9  N   UNL     1     -43.620 -54.056  15.022  1.00  0.00    -0.315 N 
HETATM   10  C   UNL     1     -44.864 -54.350  14.471  1.00  0.00     0.247 A 
HETATM   11  C   UNL     1     -45.029 -54.007  13.032  1.00  0.00     0.075 A 
HETATM   12  O   UNL     1     -45.804 -54.844  15.084  1.00  0.00    -0.268 OA
HETATM   13  C   UNL     1     -44.030 -53.431  12.347  1.00  0.00     0.024 A 
HETATM   14  C   UNL     1     -42.762 -53.150  12.989  1.00  0.00     0.047 A 
HETATM   15  C   UNL     1     -42.600 -53.473  14.284  1.00  0.00     0.111 A 
BRANCH  14  16
HETATM   16  C   UNL     1     -41.632 -52.408  12.347  1.00  0.00     0.252 C 
HETATM   17  N   UNL     1     -41.888 -51.110  11.982  1.00  0.00    -0.361 N 
HETATM   18  C   UNL     1     -40.852 -50.320  11.367  1.00  0.00     0.149 C 
HETATM   19  H   UNL     1     -42.826 -50.736  12.021  1.00  0.00     0.162 HD
HETATM   20  O   UNL     1     -40.544 -52.948  12.156  1.00  0.00    -0.268 OA
ENDBRANCH  14  16
ENDBRANCH   8   9
ENDBRANCH   5   8
ENDBRANCH   1   4
TORSDOF 4
ENDMDL
