MODEL 1
REMARK VINA RESULT:      -5.5      0.000      0.000
REMARK  5 active torsions:
REMARK  status: ('A' for Active; 'I' for Inactive)
REMARK    1  A    between atoms: C_2  and  C_3 
REMARK       I    between atoms: C_2  and  N_13 
REMARK    2  A    between atoms: C_3  and  N_4 
REMARK    3  A    between atoms: N_4  and  C_5 
REMARK    4  A    between atoms: C_5  and  C_6 
REMARK    5  A    between atoms: C_6  and  N_7 
ROOT
HETATM    1  N   UNL     1     -42.789 -52.667  12.044  1.00  0.00     0.093 N 
HETATM    2  H   UNL     1     -43.222 -51.823  12.432  1.00  0.00     0.316 HD
ENDROOT
BRANCH   1   3
HETATM    3  C   UNL     1     -42.976 -53.737  13.041  1.00  0.00     0.372 C 
BRANCH   3   4
HETATM    4  C   UNL     1     -44.463 -53.878  13.381  1.00  0.00     0.247 C 
HETATM    5  O   UNL     1     -45.185 -54.568  12.656  1.00  0.00    -0.271 OA
HETATM    6  N   UNL     1     -44.951 -53.207  14.495  1.00  0.00    -0.351 N 
HETATM    7  C   UNL     1     -46.388 -53.190  14.745  1.00  0.00     0.126 C 
HETATM    8  C   UNL     1     -44.144 -52.541  15.518  1.00  0.00     0.126 C 
HETATM    9  C   UNL     1     -46.880 -51.749  14.878  1.00  0.00     0.020 C 
HETATM   10  C   UNL     1     -46.077 -50.980  15.928  1.00  0.00     0.003 C 
HETATM   11  C   UNL     1     -44.574 -51.083  15.661  1.00  0.00     0.020 C 
ENDBRANCH   3   4
ENDBRANCH   1   3
BRANCH   1  12
HETATM   12  C   UNL     1     -41.361 -52.399  11.805  1.00  0.00     0.291 C 
BRANCH  12  13
HETATM   13  C   UNL     1     -41.007 -50.920  11.987  1.00  0.00     0.178 C 
BRANCH  13  14
HETATM   14  N   UNL     1     -39.577 -50.689  12.006  1.00  0.00    -0.302 N 
HETATM   15  C   UNL     1     -38.708 -51.007  13.008  1.00  0.00     0.111 A 
HETATM   16  C   UNL     1     -37.494 -50.482  12.636  1.00  0.00     0.037 A 
HETATM   17  C   UNL     1     -37.734 -49.872  11.393  1.00  0.00     0.108 A 
HETATM   18  N   UNL     1     -39.003 -50.005  10.998  1.00  0.00    -0.310 N 
ATOM     19  HN  UNL     1     -39.435 -49.668  10.137  1.00  0.00     0.186 HD
ENDBRANCH  13  14
ENDBRANCH  12  13
ENDBRANCH   1  12
TORSDOF 5
ENDMDL
MODEL 2
REMARK VINA RESULT:      -5.5      3.541      4.705
REMARK  5 active torsions:
REMARK  status: ('A' for Active; 'I' for Inactive)
REMARK    1  A    between atoms: C_2  and  C_3 
REMARK       I    between atoms: C_2  and  N_13 
REMARK    2  A    between atoms: C_3  and  N_4 
REMARK    3  A    between atoms: N_4  and  C_5 
REMARK    4  A    between atoms: C_5  and  C_6 
REMARK    5  A    between atoms: C_6  and  N_7 
ROOT
HETATM    1  N   UNL     1     -40.518 -50.145  10.866  1.00  0.00     0.093 N 
HETATM    2  H   UNL     1     -41.365 -50.601  10.512  1.00  0.00     0.316 HD
ENDROOT
BRANCH   1   3
HETATM    3  C   UNL     1     -40.228 -50.748  12.180  1.00  0.00     0.372 C 
BRANCH   3   4
HETATM    4  C   UNL     1     -40.994 -52.066  12.329  1.00  0.00     0.247 C 
HETATM    5  O   UNL     1     -40.538 -53.091  11.814  1.00  0.00    -0.271 OA
HETATM    6  N   UNL     1     -42.192 -52.056  13.031  1.00  0.00    -0.351 N 
HETATM    7  C   UNL     1     -43.021 -53.257  13.046  1.00  0.00     0.126 C 
HETATM    8  C   UNL     1     -42.704 -50.949  13.840  1.00  0.00     0.126 C 
HETATM    9  C   UNL     1     -44.433 -52.926  12.564  1.00  0.00     0.020 C 
HETATM   10  C   UNL     1     -45.037 -51.767  13.358  1.00  0.00     0.003 C 
HETATM   11  C   UNL     1     -44.102 -50.556  13.369  1.00  0.00     0.020 C 
ENDBRANCH   3   4
ENDBRANCH   1   3
BRANCH   1  12
HETATM   12  C   UNL     1     -40.773 -48.700  10.982  1.00  0.00     0.291 C 
BRANCH  12  13
HETATM   13  C   UNL     1     -42.266 -48.377  11.095  1.00  0.00     0.178 C 
BRANCH  13  14
HETATM   14  N   UNL     1     -42.759 -47.622   9.962  1.00  0.00    -0.302 N 
HETATM   15  C   UNL     1     -43.270 -46.358   9.979  1.00  0.00     0.111 A 
HETATM   16  C   UNL     1     -43.724 -46.117   8.704  1.00  0.00     0.037 A 
HETATM   17  C   UNL     1     -43.435 -47.294   7.994  1.00  0.00     0.108 A 
HETATM   18  N   UNL     1     -42.836 -48.213   8.755  1.00  0.00    -0.310 N 
ATOM     19  HN  UNL     1     -42.513 -49.143   8.485  1.00  0.00     0.186 HD
ENDBRANCH  13  14
ENDBRANCH  12  13
ENDBRANCH   1  12
TORSDOF 5
ENDMDL
MODEL 3
REMARK VINA RESULT:      -5.4      3.827      5.731
REMARK  5 active torsions:
REMARK  status: ('A' for Active; 'I' for Inactive)
REMARK    1  A    between atoms: C_2  and  C_3 
REMARK       I    between atoms: C_2  and  N_13 
REMARK    2  A    between atoms: C_3  and  N_4 
REMARK    3  A    between atoms: N_4  and  C_5 
REMARK    4  A    between atoms: C_5  and  C_6 
REMARK    5  A    between atoms: C_6  and  N_7 
ROOT
HETATM    1  N   UNL     1     -39.515 -48.666  11.376  1.00  0.00     0.093 N 
HETATM    2  H   UNL     1     -38.813 -48.641  10.629  1.00  0.00     0.316 HD
ENDROOT
BRANCH   1   3
HETATM    3  C   UNL     1     -40.290 -49.907  11.189  1.00  0.00     0.372 C 
BRANCH   3   4
HETATM    4  C   UNL     1     -39.779 -50.988  12.146  1.00  0.00     0.247 C 
HETATM    5  O   UNL     1     -38.563 -51.163  12.267  1.00  0.00    -0.271 OA
HETATM    6  N   UNL     1     -40.712 -51.749  12.839  1.00  0.00    -0.351 N 
HETATM    7  C   UNL     1     -40.259 -52.890  13.626  1.00  0.00     0.126 C 
HETATM    8  C   UNL     1     -42.149 -51.483  12.916  1.00  0.00     0.126 C 
HETATM    9  C   UNL     1     -41.003 -54.154  13.194  1.00  0.00     0.020 C 
HETATM   10  C   UNL     1     -42.518 -53.953  13.240  1.00  0.00     0.003 C 
HETATM   11  C   UNL     1     -42.937 -52.708  12.457  1.00  0.00     0.020 C 
ENDBRANCH   3   4
ENDBRANCH   1   3
BRANCH   1  12
HETATM   12  C   UNL     1     -40.372 -47.474  11.260  1.00  0.00     0.291 C 
BRANCH  12  13
HETATM   13  C   UNL     1     -41.863 -47.826  11.246  1.00  0.00     0.178 C 
BRANCH  13  14
HETATM   14  N   UNL     1     -42.540 -47.329  10.066  1.00  0.00    -0.302 N 
HETATM   15  C   UNL     1     -43.140 -46.114   9.915  1.00  0.00     0.111 A 
HETATM   16  C   UNL     1     -43.755 -46.146   8.687  1.00  0.00     0.037 A 
HETATM   17  C   UNL     1     -43.464 -47.421   8.175  1.00  0.00     0.108 A 
HETATM   18  N   UNL     1     -42.712 -48.144   9.008  1.00  0.00    -0.310 N 
ATOM     19  HN  UNL     1     -42.353 -49.090   8.875  1.00  0.00     0.186 HD
ENDBRANCH  13  14
ENDBRANCH  12  13
ENDBRANCH   1  12
TORSDOF 5
ENDMDL
MODEL 4
REMARK VINA RESULT:      -5.4      1.824      2.321
REMARK  5 active torsions:
REMARK  status: ('A' for Active; 'I' for Inactive)
REMARK    1  A    between atoms: C_2  and  C_3 
REMARK       I    between atoms: C_2  and  N_13 
REMARK    2  A    between atoms: C_3  and  N_4 
REMARK    3  A    between atoms: N_4  and  C_5 
REMARK    4  A    between atoms: C_5  and  C_6 
REMARK    5  A    between atoms: C_6  and  N_7 
ROOT
HETATM    1  N   UNL     1     -42.508 -54.018  14.970  1.00  0.00     0.093 N 
HETATM    2  H   UNL     1     -42.527 -54.047  15.995  1.00  0.00     0.316 HD
ENDROOT
BRANCH   1   3
HETATM    3  C   UNL     1     -43.537 -54.963  14.499  1.00  0.00     0.372 C 
BRANCH   3   4
HETATM    4  C   UNL     1     -44.569 -54.225  13.641  1.00  0.00     0.247 C 
HETATM    5  O   UNL     1     -44.413 -54.174  12.418  1.00  0.00    -0.271 OA
HETATM    6  N   UNL     1     -45.646 -53.621  14.279  1.00  0.00    -0.351 N 
HETATM    7  C   UNL     1     -46.549 -52.775  13.507  1.00  0.00     0.126 C 
HETATM    8  C   UNL     1     -46.021 -53.798  15.682  1.00  0.00     0.126 C 
HETATM    9  C   UNL     1     -46.653 -51.393  14.152  1.00  0.00     0.020 C 
HETATM   10  C   UNL     1     -47.035 -51.493  15.629  1.00  0.00     0.003 C 
HETATM   11  C   UNL     1     -46.100 -52.442  16.381  1.00  0.00     0.020 C 
ENDBRANCH   3   4
ENDBRANCH   1   3
BRANCH   1  12
HETATM   12  C   UNL     1     -41.166 -54.410  14.510  1.00  0.00     0.291 C 
BRANCH  12  13
HETATM   13  C   UNL     1     -40.989 -54.226  13.000  1.00  0.00     0.178 C 
BRANCH  13  14
HETATM   14  N   UNL     1     -40.719 -52.851  12.636  1.00  0.00    -0.302 N 
HETATM   15  C   UNL     1     -40.016 -51.933  13.360  1.00  0.00     0.111 A 
HETATM   16  C   UNL     1     -40.137 -50.744  12.683  1.00  0.00     0.037 A 
HETATM   17  C   UNL     1     -40.926 -51.050  11.562  1.00  0.00     0.108 A 
HETATM   18  N   UNL     1     -41.275 -52.338  11.522  1.00  0.00    -0.310 N 
ATOM     19  HN  UNL     1     -41.831 -52.820  10.815  1.00  0.00     0.186 HD
ENDBRANCH  13  14
ENDBRANCH  12  13
ENDBRANCH   1  12
TORSDOF 5
ENDMDL
MODEL 5
REMARK VINA RESULT:      -5.1      1.708      2.147
REMARK  5 active torsions:
REMARK  status: ('A' for Active; 'I' for Inactive)
REMARK    1  A    between atoms: C_2  and  C_3 
REMARK       I    between atoms: C_2  and  N_13 
REMARK    2  A    between atoms: C_3  and  N_4 
REMARK    3  A    between atoms: N_4  and  C_5 
REMARK    4  A    between atoms: C_5  and  C_6 
REMARK    5  A    between atoms: C_6  and  N_7 
ROOT
HETATM    1  N   UNL     1     -41.278 -54.027  14.021  1.00  0.00     0.093 N 
HETATM    2  H   UNL     1     -40.738 -54.877  13.831  1.00  0.00     0.316 HD
ENDROOT
BRANCH   1   3
HETATM    3  C   UNL     1     -42.590 -54.204  13.372  1.00  0.00     0.372 C 
BRANCH   3   4
HETATM    4  C   UNL     1     -43.684 -54.338  14.436  1.00  0.00     0.247 C 
HETATM    5  O   UNL     1     -43.848 -55.423  15.000  1.00  0.00    -0.271 OA
HETATM    6  N   UNL     1     -44.467 -53.227  14.720  1.00  0.00    -0.351 N 
HETATM    7  C   UNL     1     -45.617 -53.371  15.605  1.00  0.00     0.126 C 
HETATM    8  C   UNL     1     -44.218 -51.860  14.258  1.00  0.00     0.126 C 
HETATM    9  C   UNL     1     -46.881 -52.864  14.910  1.00  0.00     0.020 C 
HETATM   10  C   UNL     1     -46.697 -51.438  14.389  1.00  0.00     0.003 C 
HETATM   11  C   UNL     1     -45.442 -51.322  13.522  1.00  0.00     0.020 C 
ENDBRANCH   3   4
ENDBRANCH   1   3
BRANCH   1  12
HETATM   12  C   UNL     1     -40.554 -52.872  13.464  1.00  0.00     0.291 C 
BRANCH  12  13
HETATM   13  C   UNL     1     -41.097 -52.446  12.097  1.00  0.00     0.178 C 
BRANCH  13  14
HETATM   14  N   UNL     1     -40.954 -51.024  11.861  1.00  0.00    -0.302 N 
HETATM   15  C   UNL     1     -39.796 -50.305  11.865  1.00  0.00     0.111 A 
HETATM   16  C   UNL     1     -40.168 -48.989  11.726  1.00  0.00     0.037 A 
HETATM   17  C   UNL     1     -41.570 -49.021  11.642  1.00  0.00     0.108 A 
HETATM   18  N   UNL     1     -42.055 -50.263  11.713  1.00  0.00    -0.310 N 
ATOM     19  HN  UNL     1     -43.029 -50.564  11.666  1.00  0.00     0.186 HD
ENDBRANCH  13  14
ENDBRANCH  12  13
ENDBRANCH   1  12
TORSDOF 5
ENDMDL
MODEL 6
REMARK VINA RESULT:      -5.0      3.137      4.055
REMARK  5 active torsions:
REMARK  status: ('A' for Active; 'I' for Inactive)
REMARK    1  A    between atoms: C_2  and  C_3 
REMARK       I    between atoms: C_2  and  N_13 
REMARK    2  A    between atoms: C_3  and  N_4 
REMARK    3  A    between atoms: N_4  and  C_5 
REMARK    4  A    between atoms: C_5  and  C_6 
REMARK    5  A    between atoms: C_6  and  N_7 
ROOT
HETATM    1  N   UNL     1     -40.667 -50.798  11.165  1.00  0.00     0.093 N 
HETATM    2  H   UNL     1     -41.617 -50.973  10.823  1.00  0.00     0.316 HD
ENDROOT
BRANCH   1   3
HETATM    3  C   UNL     1     -40.670 -51.108  12.606  1.00  0.00     0.372 C 
BRANCH   3   4
HETATM    4  C   UNL     1     -41.185 -52.533  12.832  1.00  0.00     0.247 C 
HETATM    5  O   UNL     1     -40.469 -53.489  12.523  1.00  0.00    -0.271 OA
HETATM    6  N   UNL     1     -42.456 -52.698  13.367  1.00  0.00    -0.351 N 
HETATM    7  C   UNL     1     -43.033 -54.035  13.438  1.00  0.00     0.126 C 
HETATM    8  C   UNL     1     -43.287 -51.641  13.947  1.00  0.00     0.126 C 
HETATM    9  C   UNL     1     -44.392 -54.058  12.738  1.00  0.00     0.020 C 
HETATM   10  C   UNL     1     -45.319 -52.972  13.285  1.00  0.00     0.003 C 
HETATM   11  C   UNL     1     -44.646 -51.599  13.253  1.00  0.00     0.020 C 
ENDBRANCH   3   4
ENDBRANCH   1   3
BRANCH   1  12
HETATM   12  C   UNL     1     -40.327 -49.387  10.918  1.00  0.00     0.291 C 
BRANCH  12  13
HETATM   13  C   UNL     1     -41.563 -48.481  10.918  1.00  0.00     0.178 C 
BRANCH  13  14
HETATM   14  N   UNL     1     -41.220 -47.074  10.886  1.00  0.00    -0.302 N 
HETATM   15  C   UNL     1     -42.074 -46.018  11.014  1.00  0.00     0.111 A 
HETATM   16  C   UNL     1     -41.320 -44.893  10.787  1.00  0.00     0.037 A 
HETATM   17  C   UNL     1     -40.025 -45.375  10.535  1.00  0.00     0.108 A 
HETATM   18  N   UNL     1     -39.956 -46.707  10.605  1.00  0.00    -0.310 N 
ATOM     19  HN  UNL     1     -39.139 -47.304  10.476  1.00  0.00     0.186 HD
ENDBRANCH  13  14
ENDBRANCH  12  13
ENDBRANCH   1  12
TORSDOF 5
ENDMDL
MODEL 7
REMARK VINA RESULT:      -5.0      3.656      4.724
REMARK  5 active torsions:
REMARK  status: ('A' for Active; 'I' for Inactive)
REMARK    1  A    between atoms: C_2  and  C_3 
REMARK       I    between atoms: C_2  and  N_13 
REMARK    2  A    between atoms: C_3  and  N_4 
REMARK    3  A    between atoms: N_4  and  C_5 
REMARK    4  A    between atoms: C_5  and  C_6 
REMARK    5  A    between atoms: C_6  and  N_7 
ROOT
HETATM    1  N   UNL     1     -40.784 -53.227  11.764  1.00  0.00     0.093 N 
HETATM    2  H   UNL     1     -41.167 -53.631  10.903  1.00  0.00     0.316 HD
ENDROOT
BRANCH   1   3
HETATM    3  C   UNL     1     -41.239 -54.082  12.875  1.00  0.00     0.372 C 
BRANCH   3   4
HETATM    4  C   UNL     1     -40.121 -54.227  13.912  1.00  0.00     0.247 C 
HETATM    5  O   UNL     1     -38.952 -54.029  13.571  1.00  0.00    -0.271 OA
HETATM    6  N   UNL     1     -40.467 -54.593  15.207  1.00  0.00    -0.351 N 
HETATM    7  C   UNL     1     -39.413 -54.898  16.167  1.00  0.00     0.126 C 
HETATM    8  C   UNL     1     -41.825 -54.649  15.749  1.00  0.00     0.126 C 
HETATM    9  C   UNL     1     -39.632 -56.289  16.764  1.00  0.00     0.020 C 
HETATM   10  C   UNL     1     -41.039 -56.430  17.346  1.00  0.00     0.003 C 
HETATM   11  C   UNL     1     -42.106 -56.036  16.324  1.00  0.00     0.020 C 
ENDBRANCH   3   4
ENDBRANCH   1   3
BRANCH   1  12
HETATM   12  C   UNL     1     -41.287 -51.850  11.904  1.00  0.00     0.291 C 
BRANCH  12  13
HETATM   13  C   UNL     1     -40.157 -50.831  12.079  1.00  0.00     0.178 C 
BRANCH  13  14
HETATM   14  N   UNL     1     -40.502 -49.524  11.559  1.00  0.00    -0.302 N 
HETATM   15  C   UNL     1     -39.847 -48.350  11.790  1.00  0.00     0.111 A 
HETATM   16  C   UNL     1     -40.609 -47.370  11.202  1.00  0.00     0.037 A 
HETATM   17  C   UNL     1     -41.699 -48.055  10.639  1.00  0.00     0.108 A 
HETATM   18  N   UNL     1     -41.633 -49.373  10.844  1.00  0.00    -0.310 N 
ATOM     19  HN  UNL     1     -42.284 -50.093  10.534  1.00  0.00     0.186 HD
ENDBRANCH  13  14
ENDBRANCH  12  13
ENDBRANCH   1  12
TORSDOF 5
ENDMDL
MODEL 8
REMARK VINA RESULT:      -4.8      2.600      3.328
REMARK  5 active torsions:
REMARK  status: ('A' for Active; 'I' for Inactive)
REMARK    1  A    between atoms: C_2  and  C_3 
REMARK       I    between atoms: C_2  and  N_13 
REMARK    2  A    between atoms: C_3  and  N_4 
REMARK    3  A    between atoms: N_4  and  C_5 
REMARK    4  A    between atoms: C_5  and  C_6 
REMARK    5  A    between atoms: C_6  and  N_7 
ROOT
HETATM    1  N   UNL     1     -41.209 -51.117  13.189  1.00  0.00     0.093 N 
HETATM    2  H   UNL     1     -40.568 -51.586  13.837  1.00  0.00     0.316 HD
ENDROOT
BRANCH   1   3
HETATM    3  C   UNL     1     -42.337 -52.041  12.966  1.00  0.00     0.372 C 
BRANCH   3   4
HETATM    4  C   UNL     1     -43.662 -51.281  13.075  1.00  0.00     0.247 C 
HETATM    5  O   UNL     1     -43.655 -50.047  13.046  1.00  0.00    -0.271 OA
HETATM    6  N   UNL     1     -44.833 -52.014  13.217  1.00  0.00    -0.351 N 
HETATM    7  C   UNL     1     -46.085 -51.316  13.487  1.00  0.00     0.126 C 
HETATM    8  C   UNL     1     -44.963 -53.464  13.058  1.00  0.00     0.126 C 
HETATM    9  C   UNL     1     -46.738 -51.878  14.750  1.00  0.00     0.020 C 
HETATM   10  C   UNL     1     -46.901 -53.396  14.665  1.00  0.00     0.003 C 
HETATM   11  C   UNL     1     -45.577 -54.078  14.313  1.00  0.00     0.020 C 
ENDBRANCH   3   4
ENDBRANCH   1   3
BRANCH   1  12
HETATM   12  C   UNL     1     -40.491 -50.833  11.936  1.00  0.00     0.291 C 
BRANCH  12  13
HETATM   13  C   UNL     1     -39.932 -49.407  11.894  1.00  0.00     0.178 C 
BRANCH  13  14
HETATM   14  N   UNL     1     -40.811 -48.486  11.203  1.00  0.00    -0.302 N 
HETATM   15  C   UNL     1     -40.672 -47.132  11.111  1.00  0.00     0.111 A 
HETATM   16  C   UNL     1     -41.805 -46.679  10.479  1.00  0.00     0.037 A 
HETATM   17  C   UNL     1     -42.561 -47.835  10.227  1.00  0.00     0.108 A 
HETATM   18  N   UNL     1     -41.954 -48.944  10.658  1.00  0.00    -0.310 N 
ATOM     19  HN  UNL     1     -42.279 -49.909  10.589  1.00  0.00     0.186 HD
ENDBRANCH  13  14
ENDBRANCH  12  13
ENDBRANCH   1  12
TORSDOF 5
ENDMDL
MODEL 9
REMARK VINA RESULT:      -4.8      4.246      5.034
REMARK  5 active torsions:
REMARK  status: ('A' for Active; 'I' for Inactive)
REMARK    1  A    between atoms: C_2  and  C_3 
REMARK       I    between atoms: C_2  and  N_13 
REMARK    2  A    between atoms: C_3  and  N_4 
REMARK    3  A    between atoms: N_4  and  C_5 
REMARK    4  A    between atoms: C_5  and  C_6 
REMARK    5  A    between atoms: C_6  and  N_7 
ROOT
HETATM    1  N   UNL     1     -42.526 -48.862  10.963  1.00  0.00     0.093 N 
HETATM    2  H   UNL     1     -43.091 -49.648  10.624  1.00  0.00     0.316 HD
ENDROOT
BRANCH   1   3
HETATM    3  C   UNL     1     -41.990 -49.260  12.278  1.00  0.00     0.372 C 
BRANCH   3   4
HETATM    4  C   UNL     1     -41.909 -50.787  12.367  1.00  0.00     0.247 C 
HETATM    5  O   UNL     1     -40.940 -51.370  11.874  1.00  0.00    -0.271 OA
HETATM    6  N   UNL     1     -42.947 -51.467  12.992  1.00  0.00    -0.351 N 
HETATM    7  C   UNL     1     -42.976 -52.924  12.945  1.00  0.00     0.126 C 
HETATM    8  C   UNL     1     -44.022 -50.857  13.776  1.00  0.00     0.126 C 
HETATM    9  C   UNL     1     -44.312 -53.404  12.377  1.00  0.00     0.020 C 
HETATM   10  C   UNL     1     -45.492 -52.801  13.140  1.00  0.00     0.003 C 
HETATM   11  C   UNL     1     -45.381 -51.278  13.221  1.00  0.00     0.020 C 
ENDBRANCH   3   4
ENDBRANCH   1   3
BRANCH   1  12
HETATM   12  C   UNL     1     -43.388 -47.673  11.071  1.00  0.00     0.291 C 
BRANCH  12  13
HETATM   13  C   UNL     1     -43.107 -46.646   9.970  1.00  0.00     0.178 C 
BRANCH  13  14
HETATM   14  N   UNL     1     -42.302 -45.537  10.437  1.00  0.00    -0.302 N 
HETATM   15  C   UNL     1     -40.941 -45.472  10.482  1.00  0.00     0.111 A 
HETATM   16  C   UNL     1     -40.639 -44.292  11.116  1.00  0.00     0.037 A 
HETATM   17  C   UNL     1     -41.885 -43.715  11.411  1.00  0.00     0.108 A 
HETATM   18  N   UNL     1     -42.906 -44.466  10.988  1.00  0.00    -0.310 N 
ATOM     19  HN  UNL     1     -43.905 -44.274  11.064  1.00  0.00     0.186 HD
ENDBRANCH  13  14
ENDBRANCH  12  13
ENDBRANCH   1  12
TORSDOF 5
ENDMDL
