MODEL 1
REMARK VINA RESULT:      -6.4      0.000      0.000
REMARK  4 active torsions:
REMARK  status: ('A' for Active; 'I' for Inactive)
REMARK    1  A    between atoms: O_2  and  C_3 
REMARK    2  A    between atoms: C_6  and  N_7 
REMARK       I    between atoms: N_7  and  C_8 
REMARK       I    between atoms: C_8  and  N_10 
REMARK    3  A    between atoms: N_10  and  C_11 
REMARK    4  A    between atoms: C_11  and  C_13 
ROOT
HETATM    1  N   UNL     1     -41.131 -47.666  10.341  1.00  0.00    -0.294 N 
HETATM    2  C   UNL     1     -40.565 -48.690  11.060  1.00  0.00     0.322 C 
HETATM    3  O   UNL     1     -41.089 -49.766  11.326  1.00  0.00    -0.247 OA
HETATM    4  N   UNL     1     -39.277 -48.407  11.459  1.00  0.00    -0.338 N 
HETATM    5  H   UNL     1     -40.554 -46.886  10.077  1.00  0.00     0.172 HD
HETATM    6  H   UNL     1     -38.958 -47.451  11.464  1.00  0.00     0.164 HD
ENDROOT
BRANCH   1   7
HETATM    7  C   UNL     1     -42.428 -47.751   9.804  1.00  0.00     0.123 A 
HETATM    8  C   UNL     1     -43.513 -47.416  10.602  1.00  0.00     0.054 A 
HETATM    9  C   UNL     1     -44.793 -47.446  10.045  1.00  0.00     0.061 A 
HETATM   10  C   UNL     1     -44.926 -47.814   8.720  1.00  0.00     0.156 A 
HETATM   11  N   UNL     1     -43.865 -48.166   7.978  1.00  0.00    -0.278 N 
HETATM   12  N   UNL     1     -42.617 -48.133   8.529  1.00  0.00    -0.283 N 
ATOM     13  HN  UNL     1     -43.991 -48.457   7.008  1.00  0.00     0.189 HD
ATOM     14  HN  UNL     1     -41.812 -48.403   7.962  1.00  0.00     0.188 HD
BRANCH  10  15
HETATM   15  O   UNL     1     -46.185 -47.798   8.161  1.00  0.00    -0.340 OA
HETATM   16  C   UNL     1     -47.186 -47.431   9.112  1.00  0.00     0.211 C 
ENDBRANCH  10  15
ENDBRANCH   1   7
BRANCH   4  17
HETATM   17  C   UNL     1     -38.496 -49.408  12.193  1.00  0.00     0.086 C 
HETATM   18  C   UNL     1     -37.411 -49.949  11.259  1.00  0.00     0.032 C 
BRANCH  17  19
HETATM   19  C   UNL     1     -37.935 -48.812  13.513  1.00  0.00     0.012 C 
HETATM   20  C   UNL     1     -37.362 -49.884  14.460  1.00  0.00     0.033 C 
HETATM   21  C   UNL     1     -38.468 -50.702  15.118  1.00  0.00     0.168 C 
HETATM   22  O   UNL     1     -39.337 -49.843  15.852  1.00  0.00    -0.391 OA
HETATM   23  C   UNL     1     -40.001 -48.900  15.012  1.00  0.00     0.168 C 
HETATM   24  C   UNL     1     -38.993 -48.005  14.297  1.00  0.00     0.033 C 
ENDBRANCH  17  19
ENDBRANCH   4  17
TORSDOF 4
ENDMDL
MODEL 2
REMARK VINA RESULT:      -6.3      3.811      5.012
REMARK  4 active torsions:
REMARK  status: ('A' for Active; 'I' for Inactive)
REMARK    1  A    between atoms: O_2  and  C_3 
REMARK    2  A    between atoms: C_6  and  N_7 
REMARK       I    between atoms: N_7  and  C_8 
REMARK       I    between atoms: C_8  and  N_10 
REMARK    3  A    between atoms: N_10  and  C_11 
REMARK    4  A    between atoms: C_11  and  C_13 
ROOT
HETATM    1  N   UNL     1     -42.268 -49.069  11.004  1.00  0.00    -0.294 N 
HETATM    2  C   UNL     1     -42.031 -49.758  12.169  1.00  0.00     0.322 C 
HETATM    3  O   UNL     1     -41.348 -49.376  13.112  1.00  0.00    -0.247 OA
HETATM    4  N   UNL     1     -42.682 -50.972  12.207  1.00  0.00    -0.338 N 
HETATM    5  H   UNL     1     -42.950 -49.431  10.361  1.00  0.00     0.172 HD
HETATM    6  H   UNL     1     -43.017 -51.382  11.349  1.00  0.00     0.164 HD
ENDROOT
BRANCH   1   7
HETATM    7  C   UNL     1     -41.732 -47.792  10.764  1.00  0.00     0.123 A 
HETATM    8  C   UNL     1     -42.589 -46.704  10.675  1.00  0.00     0.054 A 
HETATM    9  C   UNL     1     -42.046 -45.431  10.494  1.00  0.00     0.061 A 
HETATM   10  C   UNL     1     -40.673 -45.307  10.408  1.00  0.00     0.156 A 
HETATM   11  N   UNL     1     -39.865 -46.378  10.463  1.00  0.00    -0.278 N 
HETATM   12  N   UNL     1     -40.404 -47.619  10.640  1.00  0.00    -0.283 N 
ATOM     13  HN  UNL     1     -38.856 -46.265  10.372  1.00  0.00     0.189 HD
ATOM     14  HN  UNL     1     -39.787 -48.431  10.680  1.00  0.00     0.188 HD
BRANCH  10  15
HETATM   15  O   UNL     1     -40.137 -44.045  10.276  1.00  0.00    -0.340 OA
HETATM   16  C   UNL     1     -40.544 -43.180  11.339  1.00  0.00     0.211 C 
ENDBRANCH  10  15
ENDBRANCH   1   7
BRANCH   4  17
HETATM   17  C   UNL     1     -42.589 -51.821  13.398  1.00  0.00     0.086 C 
HETATM   18  C   UNL     1     -43.859 -51.626  14.228  1.00  0.00     0.032 C 
BRANCH  17  19
HETATM   19  C   UNL     1     -42.329 -53.301  13.003  1.00  0.00     0.012 C 
HETATM   20  C   UNL     1     -42.681 -54.294  14.127  1.00  0.00     0.033 C 
HETATM   21  C   UNL     1     -41.655 -54.254  15.254  1.00  0.00     0.168 C 
HETATM   22  O   UNL     1     -40.360 -54.562  14.744  1.00  0.00    -0.391 OA
HETATM   23  C   UNL     1     -39.916 -53.605  13.783  1.00  0.00     0.168 C 
HETATM   24  C   UNL     1     -40.863 -53.557  12.588  1.00  0.00     0.033 C 
ENDBRANCH  17  19
ENDBRANCH   4  17
TORSDOF 4
ENDMDL
MODEL 3
REMARK VINA RESULT:      -5.8      2.618      7.326
REMARK  4 active torsions:
REMARK  status: ('A' for Active; 'I' for Inactive)
REMARK    1  A    between atoms: O_2  and  C_3 
REMARK    2  A    between atoms: C_6  and  N_7 
REMARK       I    between atoms: N_7  and  C_8 
REMARK       I    between atoms: C_8  and  N_10 
REMARK    3  A    between atoms: N_10  and  C_11 
REMARK    4  A    between atoms: C_11  and  C_13 
ROOT
HETATM    1  N   UNL     1     -40.569 -49.387  10.943  1.00  0.00    -0.294 N 
HETATM    2  C   UNL     1     -41.713 -48.630  11.021  1.00  0.00     0.322 C 
HETATM    3  O   UNL     1     -42.736 -48.921  11.629  1.00  0.00    -0.247 OA
HETATM    4  N   UNL     1     -41.603 -47.435  10.343  1.00  0.00    -0.338 N 
HETATM    5  H   UNL     1     -39.751 -48.982  10.523  1.00  0.00     0.172 HD
HETATM    6  H   UNL     1     -40.880 -47.323   9.649  1.00  0.00     0.164 HD
ENDROOT
BRANCH   1   7
HETATM    7  C   UNL     1     -40.445 -50.629  11.589  1.00  0.00     0.123 A 
HETATM    8  C   UNL     1     -39.623 -50.733  12.703  1.00  0.00     0.054 A 
HETATM    9  C   UNL     1     -39.549 -51.954  13.374  1.00  0.00     0.061 A 
HETATM   10  C   UNL     1     -40.297 -53.014  12.897  1.00  0.00     0.156 A 
HETATM   11  N   UNL     1     -41.059 -52.899  11.798  1.00  0.00    -0.278 N 
HETATM   12  N   UNL     1     -41.127 -51.701  11.148  1.00  0.00    -0.283 N 
ATOM     13  HN  UNL     1     -41.584 -53.702  11.451  1.00  0.00     0.189 HD
ATOM     14  HN  UNL     1     -41.705 -51.617  10.312  1.00  0.00     0.188 HD
BRANCH  10  15
HETATM   15  O   UNL     1     -40.259 -54.205  13.588  1.00  0.00    -0.340 OA
HETATM   16  C   UNL     1     -39.075 -54.323  14.381  1.00  0.00     0.211 C 
ENDBRANCH  10  15
ENDBRANCH   1   7
BRANCH   4  17
HETATM   17  C   UNL     1     -42.709 -46.472  10.361  1.00  0.00     0.086 C 
HETATM   18  C   UNL     1     -42.273 -45.255  11.180  1.00  0.00     0.032 C 
BRANCH  17  19
HETATM   19  C   UNL     1     -43.158 -46.118   8.917  1.00  0.00     0.012 C 
HETATM   20  C   UNL     1     -44.438 -45.263   8.878  1.00  0.00     0.033 C 
HETATM   21  C   UNL     1     -45.675 -46.086   9.225  1.00  0.00     0.168 C 
HETATM   22  O   UNL     1     -45.807 -47.173   8.312  1.00  0.00    -0.391 OA
HETATM   23  C   UNL     1     -44.707 -48.078   8.385  1.00  0.00     0.168 C 
HETATM   24  C   UNL     1     -43.398 -47.371   8.045  1.00  0.00     0.033 C 
ENDBRANCH  17  19
ENDBRANCH   4  17
TORSDOF 4
ENDMDL
MODEL 4
REMARK VINA RESULT:      -5.8      3.746      4.417
REMARK  4 active torsions:
REMARK  status: ('A' for Active; 'I' for Inactive)
REMARK    1  A    between atoms: O_2  and  C_3 
REMARK    2  A    between atoms: C_6  and  N_7 
REMARK       I    between atoms: N_7  and  C_8 
REMARK       I    between atoms: C_8  and  N_10 
REMARK    3  A    between atoms: N_10  and  C_11 
REMARK    4  A    between atoms: C_11  and  C_13 
ROOT
HETATM    1  N   UNL     1     -41.341 -49.751  12.660  1.00  0.00    -0.294 N 
HETATM    2  C   UNL     1     -41.568 -51.092  12.853  1.00  0.00     0.322 C 
HETATM    3  O   UNL     1     -42.260 -51.820  12.151  1.00  0.00    -0.247 OA
HETATM    4  N   UNL     1     -40.893 -51.590  13.946  1.00  0.00    -0.338 N 
HETATM    5  H   UNL     1     -40.650 -49.293  13.227  1.00  0.00     0.172 HD
HETATM    6  H   UNL     1     -40.549 -50.954  14.648  1.00  0.00     0.164 HD
ENDROOT
BRANCH   1   7
HETATM    7  C   UNL     1     -41.901 -49.042  11.583  1.00  0.00     0.123 A 
HETATM    8  C   UNL     1     -43.052 -48.294  11.791  1.00  0.00     0.054 A 
HETATM    9  C   UNL     1     -43.570 -47.546  10.733  1.00  0.00     0.061 A 
HETATM   10  C   UNL     1     -42.914 -47.583   9.517  1.00  0.00     0.156 A 
HETATM   11  N   UNL     1     -41.821 -48.340   9.330  1.00  0.00    -0.278 N 
HETATM   12  N   UNL     1     -41.321 -49.068  10.370  1.00  0.00    -0.283 N 
ATOM     13  HN  UNL     1     -41.368 -48.371   8.417  1.00  0.00     0.189 HD
ATOM     14  HN  UNL     1     -40.491 -49.644  10.225  1.00  0.00     0.188 HD
BRANCH  10  15
HETATM   15  O   UNL     1     -43.400 -46.808   8.488  1.00  0.00    -0.340 OA
HETATM   16  C   UNL     1     -44.075 -45.643   8.971  1.00  0.00     0.211 C 
ENDBRANCH  10  15
ENDBRANCH   1   7
BRANCH   4  17
HETATM   17  C   UNL     1     -40.974 -53.017  14.275  1.00  0.00     0.086 C 
HETATM   18  C   UNL     1     -39.577 -53.624  14.124  1.00  0.00     0.032 C 
BRANCH  17  19
HETATM   19  C   UNL     1     -41.589 -53.225  15.687  1.00  0.00     0.012 C 
HETATM   20  C   UNL     1     -41.652 -54.707  16.102  1.00  0.00     0.033 C 
HETATM   21  C   UNL     1     -42.743 -55.457  15.346  1.00  0.00     0.168 C 
HETATM   22  O   UNL     1     -44.009 -54.848  15.588  1.00  0.00    -0.391 OA
HETATM   23  C   UNL     1     -44.062 -53.504  15.111  1.00  0.00     0.168 C 
HETATM   24  C   UNL     1     -43.014 -52.640  15.805  1.00  0.00     0.033 C 
ENDBRANCH  17  19
ENDBRANCH   4  17
TORSDOF 4
ENDMDL
MODEL 5
REMARK VINA RESULT:      -5.7      4.458      5.425
REMARK  4 active torsions:
REMARK  status: ('A' for Active; 'I' for Inactive)
REMARK    1  A    between atoms: O_2  and  C_3 
REMARK    2  A    between atoms: C_6  and  N_7 
REMARK       I    between atoms: N_7  and  C_8 
REMARK       I    between atoms: C_8  and  N_10 
REMARK    3  A    between atoms: N_10  and  C_11 
REMARK    4  A    between atoms: C_11  and  C_13 
ROOT
HETATM    1  N   UNL     1     -40.265 -52.510  13.104  1.00  0.00    -0.294 N 
HETATM    2  C   UNL     1     -40.018 -51.366  13.823  1.00  0.00     0.322 C 
HETATM    3  O   UNL     1     -40.847 -50.696  14.428  1.00  0.00    -0.247 OA
HETATM    4  N   UNL     1     -38.683 -51.026  13.835  1.00  0.00    -0.338 N 
HETATM    5  H   UNL     1     -39.483 -53.042  12.762  1.00  0.00     0.172 HD
HETATM    6  H   UNL     1     -38.065 -51.419  13.142  1.00  0.00     0.164 HD
ENDROOT
BRANCH   1   7
HETATM    7  C   UNL     1     -41.552 -53.060  12.985  1.00  0.00     0.123 A 
HETATM    8  C   UNL     1     -41.943 -54.063  13.863  1.00  0.00     0.054 A 
HETATM    9  C   UNL     1     -43.242 -54.564  13.777  1.00  0.00     0.061 A 
HETATM   10  C   UNL     1     -44.088 -54.043  12.816  1.00  0.00     0.156 A 
HETATM   11  N   UNL     1     -43.677 -53.098  11.956  1.00  0.00    -0.278 N 
HETATM   12  N   UNL     1     -42.405 -52.612  12.047  1.00  0.00    -0.283 N 
ATOM     13  HN  UNL     1     -44.311 -52.745  11.240  1.00  0.00     0.189 HD
ATOM     14  HN  UNL     1     -42.095 -51.895  11.391  1.00  0.00     0.188 HD
BRANCH  10  15
HETATM   15  O   UNL     1     -45.383 -54.507  12.765  1.00  0.00    -0.340 OA
HETATM   16  C   UNL     1     -45.804 -55.056  14.016  1.00  0.00     0.211 C 
ENDBRANCH  10  15
ENDBRANCH   1   7
BRANCH   4  17
HETATM   17  C   UNL     1     -38.225 -49.862  14.600  1.00  0.00     0.086 C 
HETATM   18  C   UNL     1     -37.247 -50.346  15.673  1.00  0.00     0.032 C 
BRANCH  17  19
HETATM   19  C   UNL     1     -37.625 -48.782  13.658  1.00  0.00     0.012 C 
HETATM   20  C   UNL     1     -37.270 -47.475  14.391  1.00  0.00     0.033 C 
HETATM   21  C   UNL     1     -38.518 -46.680  14.760  1.00  0.00     0.168 C 
HETATM   22  O   UNL     1     -39.263 -46.372  13.585  1.00  0.00    -0.391 OA
HETATM   23  C   UNL     1     -39.733 -47.543  12.920  1.00  0.00     0.168 C 
HETATM   24  C   UNL     1     -38.567 -48.427  12.486  1.00  0.00     0.033 C 
ENDBRANCH  17  19
ENDBRANCH   4  17
TORSDOF 4
ENDMDL
MODEL 6
REMARK VINA RESULT:      -5.6      3.505      6.220
REMARK  4 active torsions:
REMARK  status: ('A' for Active; 'I' for Inactive)
REMARK    1  A    between atoms: O_2  and  C_3 
REMARK    2  A    between atoms: C_6  and  N_7 
REMARK       I    between atoms: N_7  and  C_8 
REMARK       I    between atoms: C_8  and  N_10 
REMARK    3  A    between atoms: N_10  and  C_11 
REMARK    4  A    between atoms: C_11  and  C_13 
ROOT
HETATM    1  N   UNL     1     -39.277 -49.138  12.276  1.00  0.00    -0.294 N 
HETATM    2  C   UNL     1     -40.057 -48.033  12.515  1.00  0.00     0.322 C 
HETATM    3  O   UNL     1     -41.247 -48.034  12.806  1.00  0.00    -0.247 OA
HETATM    4  N   UNL     1     -39.347 -46.855  12.424  1.00  0.00    -0.338 N 
HETATM    5  H   UNL     1     -38.285 -49.015  12.176  1.00  0.00     0.172 HD
HETATM    6  H   UNL     1     -38.461 -46.847  11.942  1.00  0.00     0.164 HD
ENDROOT
BRANCH   1   7
HETATM    7  C   UNL     1     -39.785 -50.447  12.350  1.00  0.00     0.123 A 
HETATM    8  C   UNL     1     -39.431 -51.251  13.425  1.00  0.00     0.054 A 
HETATM    9  C   UNL     1     -39.985 -52.528  13.522  1.00  0.00     0.061 A 
HETATM   10  C   UNL     1     -40.863 -52.942  12.539  1.00  0.00     0.156 A 
HETATM   11  N   UNL     1     -41.165 -52.159  11.490  1.00  0.00    -0.278 N 
HETATM   12  N   UNL     1     -40.620 -50.911  11.403  1.00  0.00    -0.283 N 
ATOM     13  HN  UNL     1     -41.797 -52.496  10.764  1.00  0.00     0.189 HD
ATOM     14  HN  UNL     1     -40.849 -50.320  10.604  1.00  0.00     0.188 HD
BRANCH  10  15
HETATM   15  O   UNL     1     -41.444 -54.185  12.661  1.00  0.00    -0.340 OA
HETATM   16  C   UNL     1     -42.734 -54.112  13.273  1.00  0.00     0.211 C 
ENDBRANCH  10  15
ENDBRANCH   1   7
BRANCH   4  17
HETATM   17  C   UNL     1     -40.005 -45.575  12.701  1.00  0.00     0.086 C 
HETATM   18  C   UNL     1     -39.288 -44.911  13.879  1.00  0.00     0.032 C 
BRANCH  17  19
HETATM   19  C   UNL     1     -40.050 -44.688  11.426  1.00  0.00     0.012 C 
HETATM   20  C   UNL     1     -40.841 -43.383  11.629  1.00  0.00     0.033 C 
HETATM   21  C   UNL     1     -42.343 -43.639  11.691  1.00  0.00     0.168 C 
HETATM   22  O   UNL     1     -42.779 -44.270  10.489  1.00  0.00    -0.391 OA
HETATM   23  C   UNL     1     -42.175 -45.549  10.300  1.00  0.00     0.168 C 
HETATM   24  C   UNL     1     -40.657 -45.426  10.211  1.00  0.00     0.033 C 
ENDBRANCH  17  19
ENDBRANCH   4  17
TORSDOF 4
ENDMDL
MODEL 7
REMARK VINA RESULT:      -5.6      3.503      6.496
REMARK  4 active torsions:
REMARK  status: ('A' for Active; 'I' for Inactive)
REMARK    1  A    between atoms: O_2  and  C_3 
REMARK    2  A    between atoms: C_6  and  N_7 
REMARK       I    between atoms: N_7  and  C_8 
REMARK       I    between atoms: C_8  and  N_10 
REMARK    3  A    between atoms: N_10  and  C_11 
REMARK    4  A    between atoms: C_11  and  C_13 
ROOT
HETATM    1  N   UNL     1     -42.450 -50.012  11.854  1.00  0.00    -0.294 N 
HETATM    2  C   UNL     1     -41.855 -48.864  11.390  1.00  0.00     0.322 C 
HETATM    3  O   UNL     1     -40.655 -48.686  11.221  1.00  0.00    -0.247 OA
HETATM    4  N   UNL     1     -42.771 -47.879  11.087  1.00  0.00    -0.338 N 
HETATM    5  H   UNL     1     -43.453 -50.080  11.826  1.00  0.00     0.172 HD
HETATM    6  H   UNL     1     -43.704 -47.937  11.465  1.00  0.00     0.164 HD
ENDROOT
BRANCH   1   7
HETATM    7  C   UNL     1     -41.711 -51.158  12.192  1.00  0.00     0.123 A 
HETATM    8  C   UNL     1     -41.184 -51.271  13.471  1.00  0.00     0.054 A 
HETATM    9  C   UNL     1     -40.501 -52.437  13.818  1.00  0.00     0.061 A 
HETATM   10  C   UNL     1     -40.373 -53.433  12.869  1.00  0.00     0.156 A 
HETATM   11  N   UNL     1     -40.861 -53.287  11.627  1.00  0.00    -0.278 N 
HETATM   12  N   UNL     1     -41.529 -52.144  11.295  1.00  0.00    -0.283 N 
ATOM     13  HN  UNL     1     -40.733 -54.026  10.935  1.00  0.00     0.189 HD
ATOM     14  HN  UNL     1     -41.897 -52.036  10.350  1.00  0.00     0.188 HD
BRANCH  10  15
HETATM   15  O   UNL     1     -39.738 -54.601  13.228  1.00  0.00    -0.340 OA
HETATM   16  C   UNL     1     -39.368 -54.604  14.609  1.00  0.00     0.211 C 
ENDBRANCH  10  15
ENDBRANCH   1   7
BRANCH   4  17
HETATM   17  C   UNL     1     -42.321 -46.601  10.528  1.00  0.00     0.086 C 
HETATM   18  C   UNL     1     -43.070 -46.360   9.216  1.00  0.00     0.032 C 
BRANCH  17  19
HETATM   19  C   UNL     1     -42.495 -45.453  11.560  1.00  0.00     0.012 C 
HETATM   20  C   UNL     1     -41.967 -44.100  11.048  1.00  0.00     0.033 C 
HETATM   21  C   UNL     1     -40.442 -44.061  11.033  1.00  0.00     0.168 C 
HETATM   22  O   UNL     1     -39.936 -44.298  12.345  1.00  0.00    -0.391 OA
HETATM   23  C   UNL     1     -40.286 -45.592  12.833  1.00  0.00     0.168 C 
HETATM   24  C   UNL     1     -41.801 -45.754  12.907  1.00  0.00     0.033 C 
ENDBRANCH  17  19
ENDBRANCH   4  17
TORSDOF 4
ENDMDL
MODEL 8
REMARK VINA RESULT:      -5.5      4.435      5.641
REMARK  4 active torsions:
REMARK  status: ('A' for Active; 'I' for Inactive)
REMARK    1  A    between atoms: O_2  and  C_3 
REMARK    2  A    between atoms: C_6  and  N_7 
REMARK       I    between atoms: N_7  and  C_8 
REMARK       I    between atoms: C_8  and  N_10 
REMARK    3  A    between atoms: N_10  and  C_11 
REMARK    4  A    between atoms: C_11  and  C_13 
ROOT
HETATM    1  N   UNL     1     -42.581 -49.248  11.275  1.00  0.00    -0.294 N 
HETATM    2  C   UNL     1     -42.189 -49.988  12.364  1.00  0.00     0.322 C 
HETATM    3  O   UNL     1     -41.286 -49.709  13.144  1.00  0.00    -0.247 OA
HETATM    4  N   UNL     1     -42.954 -51.121  12.537  1.00  0.00    -0.338 N 
HETATM    5  H   UNL     1     -43.419 -49.514  10.788  1.00  0.00     0.172 HD
HETATM    6  H   UNL     1     -43.505 -51.469  11.768  1.00  0.00     0.164 HD
ENDROOT
BRANCH   1   7
HETATM    7  C   UNL     1     -41.962 -48.035  10.928  1.00  0.00     0.123 A 
HETATM    8  C   UNL     1     -42.753 -46.932  10.634  1.00  0.00     0.054 A 
HETATM    9  C   UNL     1     -42.132 -45.716  10.347  1.00  0.00     0.061 A 
HETATM   10  C   UNL     1     -40.751 -45.660  10.365  1.00  0.00     0.156 A 
HETATM   11  N   UNL     1     -40.007 -46.748  10.620  1.00  0.00    -0.278 N 
HETATM   12  N   UNL     1     -40.621 -47.934  10.900  1.00  0.00    -0.283 N 
ATOM     13  HN  UNL     1     -38.989 -46.689  10.603  1.00  0.00     0.189 HD
ATOM     14  HN  UNL     1     -40.053 -48.759  11.091  1.00  0.00     0.188 HD
BRANCH  10  15
HETATM   15  O   UNL     1     -40.142 -44.448  10.128  1.00  0.00    -0.340 OA
HETATM   16  C   UNL     1     -38.950 -44.593   9.353  1.00  0.00     0.211 C 
ENDBRANCH  10  15
ENDBRANCH   1   7
BRANCH   4  17
HETATM   17  C   UNL     1     -42.715 -52.005  13.682  1.00  0.00     0.086 C 
HETATM   18  C   UNL     1     -43.788 -51.726  14.737  1.00  0.00     0.032 C 
BRANCH  17  19
HETATM   19  C   UNL     1     -42.661 -53.491  13.232  1.00  0.00     0.012 C 
HETATM   20  C   UNL     1     -44.005 -54.001  12.683  1.00  0.00     0.033 C 
HETATM   21  C   UNL     1     -45.024 -54.216  13.797  1.00  0.00     0.168 C 
HETATM   22  O   UNL     1     -44.518 -55.153  14.745  1.00  0.00    -0.391 OA
HETATM   23  C   UNL     1     -43.333 -54.685  15.388  1.00  0.00     0.168 C 
HETATM   24  C   UNL     1     -42.223 -54.440  14.370  1.00  0.00     0.033 C 
ENDBRANCH  17  19
ENDBRANCH   4  17
TORSDOF 4
ENDMDL
MODEL 9
REMARK VINA RESULT:      -5.4      4.459      5.595
REMARK  4 active torsions:
REMARK  status: ('A' for Active; 'I' for Inactive)
REMARK    1  A    between atoms: O_2  and  C_3 
REMARK    2  A    between atoms: C_6  and  N_7 
REMARK       I    between atoms: N_7  and  C_8 
REMARK       I    between atoms: C_8  and  N_10 
REMARK    3  A    between atoms: N_10  and  C_11 
REMARK    4  A    between atoms: C_11  and  C_13 
ROOT
HETATM    1  N   UNL     1     -43.441 -48.966  11.632  1.00  0.00    -0.294 N 
HETATM    2  C   UNL     1     -43.431 -49.620  12.840  1.00  0.00     0.322 C 
HETATM    3  O   UNL     1     -42.916 -49.221  13.877  1.00  0.00    -0.247 OA
HETATM    4  N   UNL     1     -44.110 -50.819  12.798  1.00  0.00    -0.338 N 
HETATM    5  H   UNL     1     -44.009 -49.335  10.889  1.00  0.00     0.172 HD
HETATM    6  H   UNL     1     -44.299 -51.250  11.906  1.00  0.00     0.164 HD
ENDROOT
BRANCH   1   7
HETATM    7  C   UNL     1     -42.838 -47.709  11.453  1.00  0.00     0.123 A 
HETATM    8  C   UNL     1     -41.673 -47.618  10.703  1.00  0.00     0.054 A 
HETATM    9  C   UNL     1     -41.112 -46.360  10.480  1.00  0.00     0.061 A 
HETATM   10  C   UNL     1     -41.740 -45.254  11.021  1.00  0.00     0.156 A 
HETATM   11  N   UNL     1     -42.847 -45.370  11.771  1.00  0.00    -0.278 N 
HETATM   12  N   UNL     1     -43.390 -46.603  11.984  1.00  0.00    -0.283 N 
ATOM     13  HN  UNL     1     -43.279 -44.541  12.180  1.00  0.00     0.189 HD
ATOM     14  HN  UNL     1     -44.230 -46.689  12.556  1.00  0.00     0.188 HD
BRANCH  10  15
HETATM   15  O   UNL     1     -41.210 -44.009  10.761  1.00  0.00    -0.340 OA
HETATM   16  C   UNL     1     -40.828 -43.331  11.960  1.00  0.00     0.211 C 
ENDBRANCH  10  15
ENDBRANCH   1   7
BRANCH   4  17
HETATM   17  C   UNL     1     -44.250 -51.630  14.011  1.00  0.00     0.086 C 
HETATM   18  C   UNL     1     -45.576 -51.264  14.683  1.00  0.00     0.032 C 
BRANCH  17  19
HETATM   19  C   UNL     1     -44.119 -53.143  13.683  1.00  0.00     0.012 C 
HETATM   20  C   UNL     1     -44.190 -54.037  14.935  1.00  0.00     0.033 C 
HETATM   21  C   UNL     1     -42.912 -53.948  15.763  1.00  0.00     0.168 C 
HETATM   22  O   UNL     1     -41.792 -54.336  14.971  1.00  0.00    -0.391 OA
HETATM   23  C   UNL     1     -41.592 -53.469  13.856  1.00  0.00     0.168 C 
HETATM   24  C   UNL     1     -42.809 -53.477  12.936  1.00  0.00     0.033 C 
ENDBRANCH  17  19
ENDBRANCH   4  17
TORSDOF 4
ENDMDL
