MODEL 1
REMARK VINA RESULT:      -5.5      0.000      0.000
REMARK  5 active torsions:
REMARK  status: ('A' for Active; 'I' for Inactive)
REMARK    1  A    between atoms: C_2  and  O_3 
REMARK    2  A    between atoms: O_3  and  C_4 
REMARK    3  A    between atoms: C_6  and  N_7 
REMARK       I    between atoms: N_7  and  C_8 
REMARK    4  A    between atoms: C_8  and  C_10 
REMARK    5  A    between atoms: C_10  and  N_11 
ROOT
HETATM    1  N   UNL     1     -41.296 -52.522  13.827  1.00  0.00    -0.354 N 
HETATM    2  C   UNL     1     -39.948 -52.784  13.652  1.00  0.00     0.237 C 
HETATM    3  O   UNL     1     -39.525 -53.880  13.292  1.00  0.00    -0.272 OA
HETATM    4  H   UNL     1     -41.578 -51.583  14.090  1.00  0.00     0.162 HD
ENDROOT
BRANCH   1   5
HETATM    5  C   UNL     1     -42.341 -53.535  13.515  1.00  0.00     0.097 C 
HETATM    6  C   UNL     1     -43.244 -53.122  12.325  1.00  0.00     0.058 C 
HETATM    7  C   UNL     1     -44.253 -52.548  13.348  1.00  0.00     0.133 C 
HETATM    8  C   UNL     1     -43.630 -53.514  14.413  1.00  0.00    -0.001 C 
HETATM    9  C   UNL     1     -43.527 -52.894  15.805  1.00  0.00     0.019 C 
HETATM   10  C   UNL     1     -44.288 -54.900  14.495  1.00  0.00     0.019 C 
BRANCH   7  11
HETATM   11  O   UNL     1     -45.651 -52.724  13.028  1.00  0.00    -0.385 OA
BRANCH  11  12
HETATM   12  C   UNL     1     -46.473 -51.574  13.214  1.00  0.00     0.163 C 
HETATM   13  C   UNL     1     -46.830 -51.451  14.680  1.00  0.00     0.033 C 
ENDBRANCH  11  12
ENDBRANCH   7  11
ENDBRANCH   1   5
BRANCH   2  14
HETATM   14  C   UNL     1     -39.021 -51.623  13.918  1.00  0.00     0.249 C 
BRANCH  14  15
HETATM   15  N   UNL     1     -38.556 -51.020  12.697  1.00  0.00    -0.264 N 
HETATM   16  C   UNL     1     -39.162 -50.101  11.902  1.00  0.00     0.213 A 
HETATM   17  N   UNL     1     -38.320 -49.751  10.957  1.00  0.00    -0.281 N 
HETATM   18  N   UNL     1     -37.171 -50.470  11.191  1.00  0.00    -0.008 NA
ATOM     19  HN  UNL     1     -38.485 -49.083  10.204  1.00  0.00     0.184 HD
HETATM   20  N   UNL     1     -37.305 -51.244  12.259  1.00  0.00    -0.005 NA
ENDBRANCH  14  15
ENDBRANCH   2  14
TORSDOF 5
ENDMDL
MODEL 2
REMARK VINA RESULT:      -5.4      4.331      5.493
REMARK  5 active torsions:
REMARK  status: ('A' for Active; 'I' for Inactive)
REMARK    1  A    between atoms: C_2  and  O_3 
REMARK    2  A    between atoms: O_3  and  C_4 
REMARK    3  A    between atoms: C_6  and  N_7 
REMARK       I    between atoms: N_7  and  C_8 
REMARK    4  A    between atoms: C_8  and  C_10 
REMARK    5  A    between atoms: C_10  and  N_11 
ROOT
HETATM    1  N   UNL     1     -43.382 -49.636  12.221  1.00  0.00    -0.354 N 
HETATM    2  C   UNL     1     -43.025 -48.339  11.896  1.00  0.00     0.237 C 
HETATM    3  O   UNL     1     -43.063 -47.416  12.707  1.00  0.00    -0.272 OA
HETATM    4  H   UNL     1     -43.291 -50.357  11.511  1.00  0.00     0.162 HD
ENDROOT
BRANCH   1   5
HETATM    5  C   UNL     1     -43.767 -50.024  13.605  1.00  0.00     0.097 C 
HETATM    6  C   UNL     1     -42.767 -51.014  14.254  1.00  0.00     0.058 C 
HETATM    7  C   UNL     1     -43.680 -52.173  13.788  1.00  0.00     0.133 C 
HETATM    8  C   UNL     1     -44.860 -51.143  13.744  1.00  0.00    -0.001 C 
HETATM    9  C   UNL     1     -45.814 -51.365  12.572  1.00  0.00     0.019 C 
HETATM   10  C   UNL     1     -45.651 -51.005  15.055  1.00  0.00     0.019 C 
BRANCH   7  11
HETATM   11  O   UNL     1     -43.805 -53.288  14.697  1.00  0.00    -0.385 OA
BRANCH  11  12
HETATM   12  C   UNL     1     -43.824 -54.578  14.088  1.00  0.00     0.163 C 
HETATM   13  C   UNL     1     -45.260 -54.982  13.828  1.00  0.00     0.033 C 
ENDBRANCH  11  12
ENDBRANCH   7  11
ENDBRANCH   1   5
BRANCH   2  14
HETATM   14  C   UNL     1     -42.566 -48.128  10.474  1.00  0.00     0.249 C 
BRANCH  14  15
HETATM   15  N   UNL     1     -43.385 -47.164   9.787  1.00  0.00    -0.264 N 
HETATM   16  C   UNL     1     -44.703 -47.222   9.464  1.00  0.00     0.213 A 
HETATM   17  N   UNL     1     -45.054 -46.068   8.945  1.00  0.00    -0.281 N 
HETATM   18  N   UNL     1     -43.921 -45.287   8.962  1.00  0.00    -0.008 NA
ATOM     19  HN  UNL     1     -45.977 -45.805   8.601  1.00  0.00     0.184 HD
HETATM   20  N   UNL     1     -42.896 -45.949   9.482  1.00  0.00    -0.005 NA
ENDBRANCH  14  15
ENDBRANCH   2  14
TORSDOF 5
ENDMDL
MODEL 3
REMARK VINA RESULT:      -5.1      1.788      2.143
REMARK  5 active torsions:
REMARK  status: ('A' for Active; 'I' for Inactive)
REMARK    1  A    between atoms: C_2  and  O_3 
REMARK    2  A    between atoms: O_3  and  C_4 
REMARK    3  A    between atoms: C_6  and  N_7 
REMARK       I    between atoms: N_7  and  C_8 
REMARK    4  A    between atoms: C_8  and  C_10 
REMARK    5  A    between atoms: C_10  and  N_11 
ROOT
HETATM    1  N   UNL     1     -41.852 -52.156  13.377  1.00  0.00    -0.354 N 
HETATM    2  C   UNL     1     -40.477 -52.077  13.246  1.00  0.00     0.237 C 
HETATM    3  O   UNL     1     -39.759 -53.071  13.163  1.00  0.00    -0.272 OA
HETATM    4  H   UNL     1     -42.388 -51.293  13.402  1.00  0.00     0.162 HD
ENDROOT
BRANCH   1   5
HETATM    5  C   UNL     1     -42.572 -53.458  13.349  1.00  0.00     0.097 C 
HETATM    6  C   UNL     1     -43.891 -53.400  12.537  1.00  0.00     0.058 C 
HETATM    7  C   UNL     1     -44.643 -53.131  13.862  1.00  0.00     0.133 C 
HETATM    8  C   UNL     1     -43.442 -53.807  14.608  1.00  0.00    -0.001 C 
HETATM    9  C   UNL     1     -43.095 -53.130  15.933  1.00  0.00     0.019 C 
HETATM   10  C   UNL     1     -43.573 -55.326  14.806  1.00  0.00     0.019 C 
BRANCH   7  11
HETATM   11  O   UNL     1     -45.941 -53.752  13.993  1.00  0.00    -0.385 OA
BRANCH  11  12
HETATM   12  C   UNL     1     -46.925 -52.981  14.678  1.00  0.00     0.163 C 
HETATM   13  C   UNL     1     -46.643 -51.510  14.460  1.00  0.00     0.033 C 
ENDBRANCH  11  12
ENDBRANCH   7  11
ENDBRANCH   1   5
BRANCH   2  14
HETATM   14  C   UNL     1     -39.908 -50.680  13.195  1.00  0.00     0.249 C 
BRANCH  14  15
HETATM   15  N   UNL     1     -40.578 -49.865  12.216  1.00  0.00    -0.264 N 
HETATM   16  C   UNL     1     -40.278 -49.666  10.906  1.00  0.00     0.213 A 
HETATM   17  N   UNL     1     -41.230 -48.938  10.369  1.00  0.00    -0.281 N 
HETATM   18  N   UNL     1     -42.135 -48.699  11.377  1.00  0.00    -0.008 NA
ATOM     19  HN  UNL     1     -41.287 -48.617   9.403  1.00  0.00     0.184 HD
HETATM   20  N   UNL     1     -41.747 -49.269  12.509  1.00  0.00    -0.005 NA
ENDBRANCH  14  15
ENDBRANCH   2  14
TORSDOF 5
ENDMDL
MODEL 4
REMARK VINA RESULT:      -5.0      4.034      4.918
REMARK  5 active torsions:
REMARK  status: ('A' for Active; 'I' for Inactive)
REMARK    1  A    between atoms: C_2  and  O_3 
REMARK    2  A    between atoms: O_3  and  C_4 
REMARK    3  A    between atoms: C_6  and  N_7 
REMARK       I    between atoms: N_7  and  C_8 
REMARK    4  A    between atoms: C_8  and  C_10 
REMARK    5  A    between atoms: C_10  and  N_11 
ROOT
HETATM    1  N   UNL     1     -41.601 -49.873  11.394  1.00  0.00    -0.354 N 
HETATM    2  C   UNL     1     -41.230 -48.547  11.534  1.00  0.00     0.237 C 
HETATM    3  O   UNL     1     -40.739 -48.100  12.568  1.00  0.00    -0.272 OA
HETATM    4  H   UNL     1     -41.966 -50.182  10.498  1.00  0.00     0.162 HD
ENDROOT
BRANCH   1   5
HETATM    5  C   UNL     1     -41.360 -50.875  12.466  1.00  0.00     0.097 C 
HETATM    6  C   UNL     1     -41.318 -52.330  11.933  1.00  0.00     0.058 C 
HETATM    7  C   UNL     1     -42.817 -52.459  12.294  1.00  0.00     0.133 C 
HETATM    8  C   UNL     1     -42.605 -51.298  13.326  1.00  0.00    -0.001 C 
HETATM    9  C   UNL     1     -43.786 -50.333  13.403  1.00  0.00     0.019 C 
HETATM   10  C   UNL     1     -42.194 -51.750  14.737  1.00  0.00     0.019 C 
BRANCH   7  11
HETATM   11  O   UNL     1     -43.238 -53.739  12.812  1.00  0.00    -0.385 OA
BRANCH  11  12
HETATM   12  C   UNL     1     -44.642 -53.986  12.776  1.00  0.00     0.163 C 
HETATM   13  C   UNL     1     -45.009 -54.934  13.897  1.00  0.00     0.033 C 
ENDBRANCH  11  12
ENDBRANCH   7  11
ENDBRANCH   1   5
BRANCH   2  14
HETATM   14  C   UNL     1     -41.453 -47.678  10.320  1.00  0.00     0.249 C 
BRANCH  14  15
HETATM   15  N   UNL     1     -42.836 -47.660   9.923  1.00  0.00    -0.264 N 
HETATM   16  C   UNL     1     -43.378 -47.689   8.678  1.00  0.00     0.213 A 
HETATM   17  N   UNL     1     -44.683 -47.776   8.796  1.00  0.00    -0.281 N 
HETATM   18  N   UNL     1     -44.937 -47.810  10.147  1.00  0.00    -0.008 NA
ATOM     19  HN  UNL     1     -45.367 -47.811   8.041  1.00  0.00     0.184 HD
HETATM   20  N   UNL     1     -43.811 -47.746  10.844  1.00  0.00    -0.005 NA
ENDBRANCH  14  15
ENDBRANCH   2  14
TORSDOF 5
ENDMDL
MODEL 5
REMARK VINA RESULT:      -5.0      3.482      6.242
REMARK  5 active torsions:
REMARK  status: ('A' for Active; 'I' for Inactive)
REMARK    1  A    between atoms: C_2  and  O_3 
REMARK    2  A    between atoms: O_3  and  C_4 
REMARK    3  A    between atoms: C_6  and  N_7 
REMARK       I    between atoms: N_7  and  C_8 
REMARK    4  A    between atoms: C_8  and  C_10 
REMARK    5  A    between atoms: C_10  and  N_11 
ROOT
HETATM    1  N   UNL     1     -42.815 -52.974  15.128  1.00  0.00    -0.354 N 
HETATM    2  C   UNL     1     -43.795 -53.857  15.546  1.00  0.00     0.237 C 
HETATM    3  O   UNL     1     -43.539 -54.985  15.962  1.00  0.00    -0.272 OA
HETATM    4  H   UNL     1     -43.095 -52.044  14.831  1.00  0.00     0.162 HD
ENDROOT
BRANCH   1   5
HETATM    5  C   UNL     1     -41.367 -53.301  15.226  1.00  0.00     0.097 C 
HETATM    6  C   UNL     1     -40.466 -52.041  15.273  1.00  0.00     0.058 C 
HETATM    7  C   UNL     1     -40.284 -52.167  13.742  1.00  0.00     0.133 C 
HETATM    8  C   UNL     1     -40.641 -53.686  13.887  1.00  0.00    -0.001 C 
HETATM    9  C   UNL     1     -41.491 -54.221  12.736  1.00  0.00     0.019 C 
HETATM   10  C   UNL     1     -39.441 -54.614  14.137  1.00  0.00     0.019 C 
BRANCH   7  11
HETATM   11  O   UNL     1     -38.975 -51.839  13.228  1.00  0.00    -0.385 OA
BRANCH  11  12
HETATM   12  C   UNL     1     -38.930 -50.746  12.312  1.00  0.00     0.163 C 
HETATM   13  C   UNL     1     -37.489 -50.465  11.945  1.00  0.00     0.033 C 
ENDBRANCH  11  12
ENDBRANCH   7  11
ENDBRANCH   1   5
BRANCH   2  14
HETATM   14  C   UNL     1     -45.211 -53.339  15.473  1.00  0.00     0.249 C 
BRANCH  14  15
HETATM   15  N   UNL     1     -45.555 -52.914  14.142  1.00  0.00    -0.264 N 
HETATM   16  C   UNL     1     -45.951 -51.693  13.699  1.00  0.00     0.213 A 
HETATM   17  N   UNL     1     -46.045 -51.736  12.390  1.00  0.00    -0.281 N 
HETATM   18  N   UNL     1     -45.689 -53.015  12.029  1.00  0.00    -0.008 NA
ATOM     19  HN  UNL     1     -46.325 -50.977  11.769  1.00  0.00     0.184 HD
HETATM   20  N   UNL     1     -45.381 -53.741  13.095  1.00  0.00    -0.005 NA
ENDBRANCH  14  15
ENDBRANCH   2  14
TORSDOF 5
ENDMDL
MODEL 6
REMARK VINA RESULT:      -4.8      4.349      6.610
REMARK  5 active torsions:
REMARK  status: ('A' for Active; 'I' for Inactive)
REMARK    1  A    between atoms: C_2  and  O_3 
REMARK    2  A    between atoms: O_3  and  C_4 
REMARK    3  A    between atoms: C_6  and  N_7 
REMARK       I    between atoms: N_7  and  C_8 
REMARK    4  A    between atoms: C_8  and  C_10 
REMARK    5  A    between atoms: C_10  and  N_11 
ROOT
HETATM    1  N   UNL     1     -40.705 -47.735  11.925  1.00  0.00    -0.354 N 
HETATM    2  C   UNL     1     -40.752 -46.574  11.173  1.00  0.00     0.237 C 
HETATM    3  O   UNL     1     -39.767 -46.115  10.598  1.00  0.00    -0.272 OA
HETATM    4  H   UNL     1     -41.565 -48.077  12.343  1.00  0.00     0.162 HD
ENDROOT
BRANCH   1   5
HETATM    5  C   UNL     1     -39.469 -48.557  12.029  1.00  0.00     0.097 C 
HETATM    6  C   UNL     1     -39.542 -49.863  11.199  1.00  0.00     0.058 C 
HETATM    7  C   UNL     1     -40.012 -50.597  12.477  1.00  0.00     0.133 C 
HETATM    8  C   UNL     1     -39.329 -49.457  13.308  1.00  0.00    -0.001 C 
HETATM    9  C   UNL     1     -40.117 -49.063  14.556  1.00  0.00     0.019 C 
HETATM   10  C   UNL     1     -37.856 -49.710  13.667  1.00  0.00     0.019 C 
BRANCH   7  11
HETATM   11  O   UNL     1     -39.514 -51.941  12.657  1.00  0.00    -0.385 OA
BRANCH  11  12
HETATM   12  C   UNL     1     -40.501 -52.929  12.943  1.00  0.00     0.163 C 
HETATM   13  C   UNL     1     -39.904 -53.978  13.857  1.00  0.00     0.033 C 
ENDBRANCH  11  12
ENDBRANCH   7  11
ENDBRANCH   1   5
BRANCH   2  14
HETATM   14  C   UNL     1     -42.103 -45.908  11.088  1.00  0.00     0.249 C 
BRANCH  14  15
HETATM   15  N   UNL     1     -42.885 -46.424   9.996  1.00  0.00    -0.264 N 
HETATM   16  C   UNL     1     -43.754 -45.780   9.174  1.00  0.00     0.213 A 
HETATM   17  N   UNL     1     -44.149 -46.621   8.247  1.00  0.00    -0.281 N 
HETATM   18  N   UNL     1     -43.495 -47.803   8.507  1.00  0.00    -0.008 NA
ATOM     19  HN  UNL     1     -44.805 -46.435   7.488  1.00  0.00     0.184 HD
HETATM   20  N   UNL     1     -42.715 -47.689   9.573  1.00  0.00    -0.005 NA
ENDBRANCH  14  15
ENDBRANCH   2  14
TORSDOF 5
ENDMDL
MODEL 7
REMARK VINA RESULT:      -4.8      2.506      3.902
REMARK  5 active torsions:
REMARK  status: ('A' for Active; 'I' for Inactive)
REMARK    1  A    between atoms: C_2  and  O_3 
REMARK    2  A    between atoms: O_3  and  C_4 
REMARK    3  A    between atoms: C_6  and  N_7 
REMARK       I    between atoms: N_7  and  C_8 
REMARK    4  A    between atoms: C_8  and  C_10 
REMARK    5  A    between atoms: C_10  and  N_11 
ROOT
HETATM    1  N   UNL     1     -40.003 -51.519  14.029  1.00  0.00    -0.354 N 
HETATM    2  C   UNL     1     -39.728 -50.171  14.177  1.00  0.00     0.237 C 
HETATM    3  O   UNL     1     -40.578 -49.352  14.520  1.00  0.00    -0.272 OA
HETATM    4  H   UNL     1     -39.244 -52.145  13.779  1.00  0.00     0.162 HD
ENDROOT
BRANCH   1   5
HETATM    5  C   UNL     1     -41.340 -52.089  14.351  1.00  0.00     0.097 C 
HETATM    6  C   UNL     1     -41.482 -52.486  15.843  1.00  0.00     0.058 C 
HETATM    7  C   UNL     1     -41.077 -53.927  15.452  1.00  0.00     0.133 C 
HETATM    8  C   UNL     1     -41.562 -53.603  13.997  1.00  0.00    -0.001 C 
HETATM    9  C   UNL     1     -40.683 -54.225  12.914  1.00  0.00     0.019 C 
HETATM   10  C   UNL     1     -43.043 -53.911  13.722  1.00  0.00     0.019 C 
BRANCH   7  11
HETATM   11  O   UNL     1     -41.755 -54.990  16.157  1.00  0.00    -0.385 OA
BRANCH  11  12
HETATM   12  C   UNL     1     -40.917 -56.033  16.650  1.00  0.00     0.163 C 
HETATM   13  C   UNL     1     -39.474 -55.703  16.331  1.00  0.00     0.033 C 
ENDBRANCH  11  12
ENDBRANCH   7  11
ENDBRANCH   1   5
BRANCH   2  14
HETATM   14  C   UNL     1     -38.300 -49.766  13.904  1.00  0.00     0.249 C 
BRANCH  14  15
HETATM   15  N   UNL     1     -37.801 -50.355  12.689  1.00  0.00    -0.264 N 
HETATM   16  C   UNL     1     -37.795 -49.857  11.426  1.00  0.00     0.213 A 
HETATM   17  N   UNL     1     -37.134 -50.689  10.655  1.00  0.00    -0.281 N 
HETATM   18  N   UNL     1     -36.720 -51.714  11.475  1.00  0.00    -0.008 NA
ATOM     19  HN  UNL     1     -36.962 -50.596   9.654  1.00  0.00     0.184 HD
HETATM   20  N   UNL     1     -37.119 -51.514  12.723  1.00  0.00    -0.005 NA
ENDBRANCH  14  15
ENDBRANCH   2  14
TORSDOF 5
ENDMDL
MODEL 8
REMARK VINA RESULT:      -4.7      2.862      7.019
REMARK  5 active torsions:
REMARK  status: ('A' for Active; 'I' for Inactive)
REMARK    1  A    between atoms: C_2  and  O_3 
REMARK    2  A    between atoms: O_3  and  C_4 
REMARK    3  A    between atoms: C_6  and  N_7 
REMARK       I    between atoms: N_7  and  C_8 
REMARK    4  A    between atoms: C_8  and  C_10 
REMARK    5  A    between atoms: C_10  and  N_11 
ROOT
HETATM    1  N   UNL     1     -40.902 -51.184  13.053  1.00  0.00    -0.354 N 
HETATM    2  C   UNL     1     -41.871 -51.947  12.426  1.00  0.00     0.237 C 
HETATM    3  O   UNL     1     -41.622 -52.694  11.482  1.00  0.00    -0.272 OA
HETATM    4  H   UNL     1     -41.172 -50.616  13.851  1.00  0.00     0.162 HD
ENDROOT
BRANCH   1   5
HETATM    5  C   UNL     1     -39.465 -51.273  12.677  1.00  0.00     0.097 C 
HETATM    6  C   UNL     1     -38.571 -51.793  13.831  1.00  0.00     0.058 C 
HETATM    7  C   UNL     1     -38.274 -50.321  14.205  1.00  0.00     0.133 C 
HETATM    8  C   UNL     1     -38.640 -49.938  12.730  1.00  0.00    -0.001 C 
HETATM    9  C   UNL     1     -39.401 -48.618  12.619  1.00  0.00     0.019 C 
HETATM   10  C   UNL     1     -37.462 -49.957  11.742  1.00  0.00     0.019 C 
BRANCH   7  11
HETATM   11  O   UNL     1     -36.930 -50.038  14.651  1.00  0.00    -0.385 OA
BRANCH  11  12
HETATM   12  C   UNL     1     -36.820 -49.082  15.703  1.00  0.00     0.163 C 
HETATM   13  C   UNL     1     -36.800 -47.690  15.109  1.00  0.00     0.033 C 
ENDBRANCH  11  12
ENDBRANCH   7  11
ENDBRANCH   1   5
BRANCH   2  14
HETATM   14  C   UNL     1     -43.266 -51.815  12.987  1.00  0.00     0.249 C 
BRANCH  14  15
HETATM   15  N   UNL     1     -43.860 -53.100  13.250  1.00  0.00    -0.264 N 
HETATM   16  C   UNL     1     -43.638 -53.961  14.276  1.00  0.00     0.213 A 
HETATM   17  N   UNL     1     -44.487 -54.957  14.173  1.00  0.00    -0.281 N 
HETATM   18  N   UNL     1     -45.249 -54.688  13.060  1.00  0.00    -0.008 NA
ATOM     19  HN  UNL     1     -44.565 -55.764  14.791  1.00  0.00     0.184 HD
HETATM   20  N   UNL     1     -44.876 -53.549  12.493  1.00  0.00    -0.005 NA
ENDBRANCH  14  15
ENDBRANCH   2  14
TORSDOF 5
ENDMDL
MODEL 9
REMARK VINA RESULT:      -4.7      2.008      2.502
REMARK  5 active torsions:
REMARK  status: ('A' for Active; 'I' for Inactive)
REMARK    1  A    between atoms: C_2  and  O_3 
REMARK    2  A    between atoms: O_3  and  C_4 
REMARK    3  A    between atoms: C_6  and  N_7 
REMARK       I    between atoms: N_7  and  C_8 
REMARK    4  A    between atoms: C_8  and  C_10 
REMARK    5  A    between atoms: C_10  and  N_11 
ROOT
HETATM    1  N   UNL     1     -41.665 -51.434  13.285  1.00  0.00    -0.354 N 
HETATM    2  C   UNL     1     -41.185 -50.285  12.682  1.00  0.00     0.237 C 
HETATM    3  O   UNL     1     -41.791 -49.703  11.784  1.00  0.00    -0.272 OA
HETATM    4  H   UNL     1     -41.130 -51.842  14.047  1.00  0.00     0.162 HD
ENDROOT
BRANCH   1   5
HETATM    5  C   UNL     1     -42.994 -52.008  12.941  1.00  0.00     0.097 C 
HETATM    6  C   UNL     1     -44.144 -51.421  13.798  1.00  0.00     0.058 C 
HETATM    7  C   UNL     1     -43.987 -52.627  14.755  1.00  0.00     0.133 C 
HETATM    8  C   UNL     1     -43.337 -53.409  13.562  1.00  0.00    -0.001 C 
HETATM    9  C   UNL     1     -42.179 -54.309  13.990  1.00  0.00     0.019 C 
HETATM   10  C   UNL     1     -44.325 -54.194  12.685  1.00  0.00     0.019 C 
BRANCH   7  11
HETATM   11  O   UNL     1     -45.209 -53.159  15.310  1.00  0.00    -0.385 OA
BRANCH  11  12
HETATM   12  C   UNL     1     -45.147 -53.536  16.684  1.00  0.00     0.163 C 
HETATM   13  C   UNL     1     -43.797 -53.144  17.246  1.00  0.00     0.033 C 
ENDBRANCH  11  12
ENDBRANCH   7  11
ENDBRANCH   1   5
BRANCH   2  14
HETATM   14  C   UNL     1     -39.866 -49.776  13.209  1.00  0.00     0.249 C 
BRANCH  14  15
HETATM   15  N   UNL     1     -38.751 -50.360  12.512  1.00  0.00    -0.264 N 
HETATM   16  C   UNL     1     -38.079 -49.908  11.422  1.00  0.00     0.213 A 
HETATM   17  N   UNL     1     -37.059 -50.705  11.204  1.00  0.00    -0.281 N 
HETATM   18  N   UNL     1     -37.108 -51.660  12.193  1.00  0.00    -0.008 NA
ATOM     19  HN  UNL     1     -36.371 -50.631  10.454  1.00  0.00     0.184 HD
HETATM   20  N   UNL     1     -38.137 -51.452  13.002  1.00  0.00    -0.005 NA
ENDBRANCH  14  15
ENDBRANCH   2  14
TORSDOF 5
ENDMDL
