MODEL 1
REMARK VINA RESULT:      -6.4      0.000      0.000
REMARK  4 active torsions:
REMARK  status: ('A' for Active; 'I' for Inactive)
REMARK    1  A    between atoms: C_2  and  N_5 
REMARK       I    between atoms: N_5  and  C_6 
REMARK    2  A    between atoms: C_6  and  C_8 
REMARK    3  A    between atoms: C_8  and  C_9 
REMARK    4  A    between atoms: C_12  and  N_15 
ROOT
HETATM    1  C   UNL     1     -42.322 -49.997  12.193  1.00  0.00     0.026 A 
HETATM    2  C   UNL     1     -41.050 -50.417  11.853  1.00  0.00     0.078 A 
HETATM    3  S   UNL     1     -40.892 -52.100  12.161  1.00  0.00    -0.064 SA
HETATM    4  C   UNL     1     -42.534 -52.155  12.632  1.00  0.00     0.153 A 
HETATM    5  N   UNL     1     -43.180 -51.017  12.566  1.00  0.00    -0.339 N 
ATOM      6  HN  UNL     1     -44.174 -50.898  12.762  1.00  0.00     0.168 HD
ENDROOT
BRANCH   1   7
HETATM    7  C   UNL     1     -42.839 -48.598  12.247  1.00  0.00     0.160 C 
BRANCH   7   8
HETATM    8  C   UNL     1     -42.946 -47.919  10.896  1.00  0.00     0.223 C 
HETATM    9  N   UNL     1     -44.183 -47.949  10.292  1.00  0.00    -0.353 N 
HETATM   10  H   UNL     1     -44.931 -48.433  10.798  1.00  0.00     0.163 HD
HETATM   11  O   UNL     1     -41.977 -47.317  10.431  1.00  0.00    -0.273 OA
BRANCH   9  12
HETATM   12  C   UNL     1     -44.506 -47.361   8.989  1.00  0.00     0.022 C 
HETATM   13  C   UNL     1     -43.580 -47.914   7.900  1.00  0.00     0.037 C 
HETATM   14  C   UNL     1     -44.407 -45.828   9.044  1.00  0.00     0.037 C 
HETATM   15  C   UNL     1     -45.955 -47.742   8.627  1.00  0.00     0.037 C 
ENDBRANCH   9  12
ENDBRANCH   7   8
ENDBRANCH   1   7
BRANCH   4  16
HETATM   16  N   UNL     1     -43.046 -53.334  13.129  1.00  0.00    -0.298 N 
HETATM   17  C   UNL     1     -42.482 -54.091  14.214  1.00  0.00     0.134 C 
HETATM   18  C   UNL     1     -43.567 -55.054  14.650  1.00  0.00     0.029 C 
HETATM   19  C   UNL     1     -44.851 -54.536  14.026  1.00  0.00     0.105 C 
HETATM   20  C   UNL     1     -44.404 -53.586  12.948  1.00  0.00     0.225 C 
HETATM   21  O   UNL     1     -45.160 -53.138  12.099  1.00  0.00    -0.273 OA
ENDBRANCH   4  16
TORSDOF 4
ENDMDL
MODEL 2
REMARK VINA RESULT:      -6.3      1.813      2.239
REMARK  4 active torsions:
REMARK  status: ('A' for Active; 'I' for Inactive)
REMARK    1  A    between atoms: C_2  and  N_5 
REMARK       I    between atoms: N_5  and  C_6 
REMARK    2  A    between atoms: C_6  and  C_8 
REMARK    3  A    between atoms: C_8  and  C_9 
REMARK    4  A    between atoms: C_12  and  N_15 
ROOT
HETATM    1  C   UNL     1     -41.612 -50.744  12.044  1.00  0.00     0.026 A 
HETATM    2  C   UNL     1     -41.058 -51.995  12.240  1.00  0.00     0.078 A 
HETATM    3  S   UNL     1     -42.142 -52.974  13.144  1.00  0.00    -0.064 SA
HETATM    4  C   UNL     1     -43.285 -51.703  13.126  1.00  0.00     0.153 A 
HETATM    5  N   UNL     1     -42.914 -50.619  12.492  1.00  0.00    -0.339 N 
ATOM      6  HN  UNL     1     -43.502 -49.798  12.349  1.00  0.00     0.168 HD
ENDROOT
BRANCH   1   7
HETATM    7  C   UNL     1     -40.956 -49.536  11.461  1.00  0.00     0.160 C 
BRANCH   7   8
HETATM    8  C   UNL     1     -41.914 -48.417  11.102  1.00  0.00     0.223 C 
HETATM    9  N   UNL     1     -42.394 -48.412   9.812  1.00  0.00    -0.353 N 
HETATM   10  H   UNL     1     -42.061 -49.159   9.194  1.00  0.00     0.163 HD
HETATM   11  O   UNL     1     -42.280 -47.619  11.967  1.00  0.00    -0.273 OA
BRANCH   9  12
HETATM   12  C   UNL     1     -43.322 -47.425   9.255  1.00  0.00     0.022 C 
HETATM   13  C   UNL     1     -42.781 -46.003   9.446  1.00  0.00     0.037 C 
HETATM   14  C   UNL     1     -44.710 -47.557   9.901  1.00  0.00     0.037 C 
HETATM   15  C   UNL     1     -43.464 -47.685   7.742  1.00  0.00     0.037 C 
ENDBRANCH   9  12
ENDBRANCH   7   8
ENDBRANCH   1   7
BRANCH   4  16
HETATM   16  N   UNL     1     -44.456 -51.850  13.838  1.00  0.00    -0.298 N 
HETATM   17  C   UNL     1     -44.788 -51.139  15.044  1.00  0.00     0.134 C 
HETATM   18  C   UNL     1     -46.280 -51.326  15.232  1.00  0.00     0.029 C 
HETATM   19  C   UNL     1     -46.802 -51.831  13.899  1.00  0.00     0.105 C 
HETATM   20  C   UNL     1     -45.582 -52.310  13.160  1.00  0.00     0.225 C 
HETATM   21  O   UNL     1     -45.641 -52.974  12.134  1.00  0.00    -0.273 OA
ENDBRANCH   4  16
TORSDOF 4
ENDMDL
MODEL 3
REMARK VINA RESULT:      -5.9      2.121      2.924
REMARK  4 active torsions:
REMARK  status: ('A' for Active; 'I' for Inactive)
REMARK    1  A    between atoms: C_2  and  N_5 
REMARK       I    between atoms: N_5  and  C_6 
REMARK    2  A    between atoms: C_6  and  C_8 
REMARK    3  A    between atoms: C_8  and  C_9 
REMARK    4  A    between atoms: C_12  and  N_15 
ROOT
HETATM    1  C   UNL     1     -41.632 -52.106  12.351  1.00  0.00     0.026 A 
HETATM    2  C   UNL     1     -41.324 -53.368  12.821  1.00  0.00     0.078 A 
HETATM    3  S   UNL     1     -42.642 -53.988  13.731  1.00  0.00    -0.064 SA
HETATM    4  C   UNL     1     -43.542 -52.583  13.358  1.00  0.00     0.153 A 
HETATM    5  N   UNL     1     -42.931 -51.703  12.605  1.00  0.00    -0.339 N 
ATOM      6  HN  UNL     1     -43.353 -50.843  12.254  1.00  0.00     0.168 HD
ENDROOT
BRANCH   1   7
HETATM    7  C   UNL     1     -40.725 -51.139  11.664  1.00  0.00     0.160 C 
BRANCH   7   8
HETATM    8  C   UNL     1     -41.146 -49.689  11.791  1.00  0.00     0.223 C 
HETATM    9  N   UNL     1     -41.752 -49.128  10.689  1.00  0.00    -0.353 N 
HETATM   10  H   UNL     1     -41.864 -49.731   9.868  1.00  0.00     0.163 HD
HETATM   11  O   UNL     1     -41.006 -49.099  12.864  1.00  0.00    -0.273 OA
BRANCH   9  12
HETATM   12  C   UNL     1     -42.231 -47.746  10.595  1.00  0.00     0.022 C 
HETATM   13  C   UNL     1     -41.060 -46.760  10.666  1.00  0.00     0.037 C 
HETATM   14  C   UNL     1     -43.248 -47.445  11.707  1.00  0.00     0.037 C 
HETATM   15  C   UNL     1     -42.931 -47.563   9.234  1.00  0.00     0.037 C 
ENDBRANCH   9  12
ENDBRANCH   7   8
ENDBRANCH   1   7
BRANCH   4  16
HETATM   16  N   UNL     1     -44.785 -52.416  13.931  1.00  0.00    -0.298 N 
HETATM   17  C   UNL     1     -45.029 -51.846  15.229  1.00  0.00     0.134 C 
HETATM   18  C   UNL     1     -46.508 -51.513  15.258  1.00  0.00     0.029 C 
HETATM   19  C   UNL     1     -46.970 -51.567  13.812  1.00  0.00     0.105 C 
HETATM   20  C   UNL     1     -45.888 -52.321  13.087  1.00  0.00     0.225 C 
HETATM   21  O   UNL     1     -46.017 -52.739  11.945  1.00  0.00    -0.273 OA
ENDBRANCH   4  16
TORSDOF 4
ENDMDL
MODEL 4
REMARK VINA RESULT:      -5.9      3.871      5.120
REMARK  4 active torsions:
REMARK  status: ('A' for Active; 'I' for Inactive)
REMARK    1  A    between atoms: C_2  and  N_5 
REMARK       I    between atoms: N_5  and  C_6 
REMARK    2  A    between atoms: C_6  and  C_8 
REMARK    3  A    between atoms: C_8  and  C_9 
REMARK    4  A    between atoms: C_12  and  N_15 
ROOT
HETATM    1  C   UNL     1     -41.733 -53.602  13.581  1.00  0.00     0.026 A 
HETATM    2  C   UNL     1     -41.720 -54.482  14.647  1.00  0.00     0.078 A 
HETATM    3  S   UNL     1     -43.247 -54.463  15.433  1.00  0.00    -0.064 SA
HETATM    4  C   UNL     1     -43.826 -53.368  14.255  1.00  0.00     0.153 A 
HETATM    5  N   UNL     1     -42.966 -53.030  13.327  1.00  0.00    -0.339 N 
ATOM      6  HN  UNL     1     -43.176 -52.430  12.529  1.00  0.00     0.168 HD
ENDROOT
BRANCH   1   7
HETATM    7  C   UNL     1     -40.580 -53.179  12.732  1.00  0.00     0.160 C 
BRANCH   7   8
HETATM    8  C   UNL     1     -40.134 -51.747  12.951  1.00  0.00     0.223 C 
HETATM    9  N   UNL     1     -39.122 -51.289  12.139  1.00  0.00    -0.353 N 
HETATM   10  H   UNL     1     -38.744 -51.953  11.456  1.00  0.00     0.163 HD
HETATM   11  O   UNL     1     -40.722 -51.038  13.770  1.00  0.00    -0.273 OA
BRANCH   9  12
HETATM   12  C   UNL     1     -38.539 -49.945  12.183  1.00  0.00     0.022 C 
HETATM   13  C   UNL     1     -37.955 -49.654  13.571  1.00  0.00     0.037 C 
HETATM   14  C   UNL     1     -39.587 -48.884  11.814  1.00  0.00     0.037 C 
HETATM   15  C   UNL     1     -37.392 -49.875  11.156  1.00  0.00     0.037 C 
ENDBRANCH   9  12
ENDBRANCH   7   8
ENDBRANCH   1   7
BRANCH   4  16
HETATM   16  N   UNL     1     -45.093 -52.844  14.397  1.00  0.00    -0.298 N 
HETATM   17  C   UNL     1     -45.555 -52.088  15.530  1.00  0.00     0.134 C 
HETATM   18  C   UNL     1     -46.833 -51.410  15.076  1.00  0.00     0.029 C 
HETATM   19  C   UNL     1     -46.838 -51.516  13.561  1.00  0.00     0.105 C 
HETATM   20  C   UNL     1     -45.827 -52.585  13.243  1.00  0.00     0.225 C 
HETATM   21  O   UNL     1     -45.714 -53.086  12.134  1.00  0.00    -0.273 OA
ENDBRANCH   4  16
TORSDOF 4
ENDMDL
MODEL 5
REMARK VINA RESULT:      -5.8      2.737      3.434
REMARK  4 active torsions:
REMARK  status: ('A' for Active; 'I' for Inactive)
REMARK    1  A    between atoms: C_2  and  N_5 
REMARK       I    between atoms: N_5  and  C_6 
REMARK    2  A    between atoms: C_6  and  C_8 
REMARK    3  A    between atoms: C_8  and  C_9 
REMARK    4  A    between atoms: C_12  and  N_15 
ROOT
HETATM    1  C   UNL     1     -40.980 -50.828  11.977  1.00  0.00     0.026 A 
HETATM    2  C   UNL     1     -40.334 -51.797  12.720  1.00  0.00     0.078 A 
HETATM    3  S   UNL     1     -41.477 -52.659  13.670  1.00  0.00    -0.064 SA
HETATM    4  C   UNL     1     -42.736 -51.748  12.958  1.00  0.00     0.153 A 
HETATM    5  N   UNL     1     -42.360 -50.863  12.069  1.00  0.00    -0.339 N 
ATOM      6  HN  UNL     1     -42.995 -50.281  11.521  1.00  0.00     0.168 HD
ENDROOT
BRANCH   1   7
HETATM    7  C   UNL     1     -40.364 -49.749  11.148  1.00  0.00     0.160 C 
BRANCH   7   8
HETATM    8  C   UNL     1     -40.621 -48.346  11.659  1.00  0.00     0.223 C 
HETATM    9  N   UNL     1     -40.188 -47.314  10.858  1.00  0.00    -0.353 N 
HETATM   10  H   UNL     1     -39.721 -47.574   9.984  1.00  0.00     0.163 HD
HETATM   11  O   UNL     1     -41.253 -48.177  12.704  1.00  0.00    -0.273 OA
BRANCH   9  12
HETATM   12  C   UNL     1     -40.330 -45.887  11.160  1.00  0.00     0.022 C 
HETATM   13  C   UNL     1     -41.809 -45.488  11.213  1.00  0.00     0.037 C 
HETATM   14  C   UNL     1     -39.585 -45.033  10.122  1.00  0.00     0.037 C 
HETATM   15  C   UNL     1     -39.711 -45.616  12.546  1.00  0.00     0.037 C 
ENDBRANCH   9  12
ENDBRANCH   7   8
ENDBRANCH   1   7
BRANCH   4  16
HETATM   16  N   UNL     1     -44.025 -51.921  13.415  1.00  0.00    -0.298 N 
HETATM   17  C   UNL     1     -44.787 -50.939  14.139  1.00  0.00     0.134 C 
HETATM   18  C   UNL     1     -46.225 -51.412  14.080  1.00  0.00     0.029 C 
HETATM   19  C   UNL     1     -46.267 -52.464  12.986  1.00  0.00     0.105 C 
HETATM   20  C   UNL     1     -44.830 -52.853  12.766  1.00  0.00     0.225 C 
HETATM   21  O   UNL     1     -44.496 -53.826  12.105  1.00  0.00    -0.273 OA
ENDBRANCH   4  16
TORSDOF 4
ENDMDL
MODEL 6
REMARK VINA RESULT:      -5.1      3.777      6.230
REMARK  4 active torsions:
REMARK  status: ('A' for Active; 'I' for Inactive)
REMARK    1  A    between atoms: C_2  and  N_5 
REMARK       I    between atoms: N_5  and  C_6 
REMARK    2  A    between atoms: C_6  and  C_8 
REMARK    3  A    between atoms: C_8  and  C_9 
REMARK    4  A    between atoms: C_12  and  N_15 
ROOT
HETATM    1  C   UNL     1     -41.871 -53.335  14.077  1.00  0.00     0.026 A 
HETATM    2  C   UNL     1     -41.511 -53.193  15.403  1.00  0.00     0.078 A 
HETATM    3  S   UNL     1     -40.244 -52.042  15.541  1.00  0.00    -0.064 SA
HETATM    4  C   UNL     1     -40.335 -51.760  13.857  1.00  0.00     0.153 A 
HETATM    5  N   UNL     1     -41.241 -52.455  13.216  1.00  0.00    -0.339 N 
ATOM      6  HN  UNL     1     -41.452 -52.362  12.222  1.00  0.00     0.168 HD
ENDROOT
BRANCH   1   7
HETATM    7  C   UNL     1     -42.804 -54.340  13.485  1.00  0.00     0.160 C 
BRANCH   7   8
HETATM    8  C   UNL     1     -44.242 -53.875  13.385  1.00  0.00     0.223 C 
HETATM    9  N   UNL     1     -44.612 -52.843  14.217  1.00  0.00    -0.353 N 
HETATM   10  H   UNL     1     -43.890 -52.476  14.845  1.00  0.00     0.163 HD
HETATM   11  O   UNL     1     -44.991 -54.366  12.537  1.00  0.00    -0.273 OA
BRANCH   9  12
HETATM   12  C   UNL     1     -45.947 -52.244  14.286  1.00  0.00     0.022 C 
HETATM   13  C   UNL     1     -46.995 -53.297  14.665  1.00  0.00     0.037 C 
HETATM   14  C   UNL     1     -46.317 -51.581  12.950  1.00  0.00     0.037 C 
HETATM   15  C   UNL     1     -45.941 -51.159  15.381  1.00  0.00     0.037 C 
ENDBRANCH   9  12
ENDBRANCH   7   8
ENDBRANCH   1   7
BRANCH   4  16
HETATM   16  N   UNL     1     -39.415 -50.916  13.271  1.00  0.00    -0.298 N 
HETATM   17  C   UNL     1     -37.992 -51.121  13.258  1.00  0.00     0.134 C 
HETATM   18  C   UNL     1     -37.453 -50.182  12.197  1.00  0.00     0.029 C 
HETATM   19  C   UNL     1     -38.658 -49.749  11.382  1.00  0.00     0.105 C 
HETATM   20  C   UNL     1     -39.849 -50.094  12.234  1.00  0.00     0.225 C 
HETATM   21  O   UNL     1     -40.980 -49.699  11.991  1.00  0.00    -0.273 OA
ENDBRANCH   4  16
TORSDOF 4
ENDMDL
MODEL 7
REMARK VINA RESULT:      -5.0      2.156      6.189
REMARK  4 active torsions:
REMARK  status: ('A' for Active; 'I' for Inactive)
REMARK    1  A    between atoms: C_2  and  N_5 
REMARK       I    between atoms: N_5  and  C_6 
REMARK    2  A    between atoms: C_6  and  C_8 
REMARK    3  A    between atoms: C_8  and  C_9 
REMARK    4  A    between atoms: C_12  and  N_15 
ROOT
HETATM    1  C   UNL     1     -41.654 -52.828  13.171  1.00  0.00     0.026 A 
HETATM    2  C   UNL     1     -40.281 -52.766  13.310  1.00  0.00     0.078 A 
HETATM    3  S   UNL     1     -39.717 -51.220  12.817  1.00  0.00    -0.064 SA
HETATM    4  C   UNL     1     -41.333 -50.731  12.547  1.00  0.00     0.153 A 
HETATM    5  N   UNL     1     -42.247 -51.633  12.805  1.00  0.00    -0.339 N 
ATOM      6  HN  UNL     1     -43.253 -51.477  12.745  1.00  0.00     0.168 HD
ENDROOT
BRANCH   1   7
HETATM    7  C   UNL     1     -42.535 -54.024  13.323  1.00  0.00     0.160 C 
BRANCH   7   8
HETATM    8  C   UNL     1     -44.017 -53.710  13.349  1.00  0.00     0.223 C 
HETATM    9  N   UNL     1     -44.491 -53.086  14.481  1.00  0.00    -0.353 N 
HETATM   10  H   UNL     1     -43.809 -52.891  15.219  1.00  0.00     0.163 HD
HETATM   11  O   UNL     1     -44.714 -53.945  12.360  1.00  0.00    -0.273 OA
BRANCH   9  12
HETATM   12  C   UNL     1     -45.884 -52.697  14.715  1.00  0.00     0.022 C 
HETATM   13  C   UNL     1     -46.021 -51.947  16.046  1.00  0.00     0.037 C 
HETATM   14  C   UNL     1     -46.804 -53.927  14.702  1.00  0.00     0.037 C 
HETATM   15  C   UNL     1     -46.325 -51.748  13.583  1.00  0.00     0.037 C 
ENDBRANCH   9  12
ENDBRANCH   7   8
ENDBRANCH   1   7
BRANCH   4  16
HETATM   16  N   UNL     1     -41.571 -49.489  12.000  1.00  0.00    -0.298 N 
HETATM   17  C   UNL     1     -41.102 -49.046  10.714  1.00  0.00     0.134 C 
HETATM   18  C   UNL     1     -41.916 -47.810  10.385  1.00  0.00     0.029 C 
HETATM   19  C   UNL     1     -43.090 -47.823  11.348  1.00  0.00     0.105 C 
HETATM   20  C   UNL     1     -42.691 -48.786  12.434  1.00  0.00     0.225 C 
HETATM   21  O   UNL     1     -43.302 -48.892  13.488  1.00  0.00    -0.273 OA
ENDBRANCH   4  16
TORSDOF 4
ENDMDL
MODEL 8
REMARK VINA RESULT:      -5.0      2.202      2.827
REMARK  4 active torsions:
REMARK  status: ('A' for Active; 'I' for Inactive)
REMARK    1  A    between atoms: C_2  and  N_5 
REMARK       I    between atoms: N_5  and  C_6 
REMARK    2  A    between atoms: C_6  and  C_8 
REMARK    3  A    between atoms: C_8  and  C_9 
REMARK    4  A    between atoms: C_12  and  N_15 
ROOT
HETATM    1  C   UNL     1     -40.017 -48.244  12.091  1.00  0.00     0.026 A 
HETATM    2  C   UNL     1     -38.902 -48.504  12.863  1.00  0.00     0.078 A 
HETATM    3  S   UNL     1     -39.146 -49.943  13.770  1.00  0.00    -0.064 SA
HETATM    4  C   UNL     1     -40.660 -50.152  13.005  1.00  0.00     0.153 A 
HETATM    5  N   UNL     1     -40.982 -49.235  12.127  1.00  0.00    -0.339 N 
ATOM      6  HN  UNL     1     -41.824 -49.249  11.552  1.00  0.00     0.168 HD
ENDROOT
BRANCH   1   7
HETATM    7  C   UNL     1     -40.305 -47.022  11.283  1.00  0.00     0.160 C 
BRANCH   7   8
HETATM    8  C   UNL     1     -41.767 -46.836  10.930  1.00  0.00     0.223 C 
HETATM    9  N   UNL     1     -42.146 -47.225   9.665  1.00  0.00    -0.353 N 
HETATM   10  H   UNL     1     -41.410 -47.601   9.059  1.00  0.00     0.163 HD
HETATM   11  O   UNL     1     -42.559 -46.427  11.781  1.00  0.00    -0.273 OA
BRANCH   9  12
HETATM   12  C   UNL     1     -43.502 -47.130   9.118  1.00  0.00     0.022 C 
HETATM   13  C   UNL     1     -44.520 -47.750  10.082  1.00  0.00     0.037 C 
HETATM   14  C   UNL     1     -43.585 -47.814   7.744  1.00  0.00     0.037 C 
HETATM   15  C   UNL     1     -43.855 -45.640   8.940  1.00  0.00     0.037 C 
ENDBRANCH   9  12
ENDBRANCH   7   8
ENDBRANCH   1   7
BRANCH   4  16
HETATM   16  N   UNL     1     -41.474 -51.188  13.410  1.00  0.00    -0.298 N 
HETATM   17  C   UNL     1     -42.739 -51.036  14.077  1.00  0.00     0.134 C 
HETATM   18  C   UNL     1     -43.425 -52.383  13.967  1.00  0.00     0.029 C 
HETATM   19  C   UNL     1     -42.663 -53.146  12.899  1.00  0.00     0.105 C 
HETATM   20  C   UNL     1     -41.360 -52.408  12.750  1.00  0.00     0.225 C 
HETATM   21  O   UNL     1     -40.407 -52.857  12.127  1.00  0.00    -0.273 OA
ENDBRANCH   4  16
TORSDOF 4
ENDMDL
MODEL 9
REMARK VINA RESULT:      -5.0      3.449      6.560
REMARK  4 active torsions:
REMARK  status: ('A' for Active; 'I' for Inactive)
REMARK    1  A    between atoms: C_2  and  N_5 
REMARK       I    between atoms: N_5  and  C_6 
REMARK    2  A    between atoms: C_6  and  C_8 
REMARK    3  A    between atoms: C_8  and  C_9 
REMARK    4  A    between atoms: C_12  and  N_15 
ROOT
HETATM    1  C   UNL     1     -43.024 -49.845  13.062  1.00  0.00     0.026 A 
HETATM    2  C   UNL     1     -42.797 -48.547  13.479  1.00  0.00     0.078 A 
HETATM    3  S   UNL     1     -41.156 -48.124  13.194  1.00  0.00    -0.064 SA
HETATM    4  C   UNL     1     -40.904 -49.650  12.465  1.00  0.00     0.153 A 
HETATM    5  N   UNL     1     -41.952 -50.435  12.418  1.00  0.00    -0.339 N 
ATOM      6  HN  UNL     1     -41.974 -51.351  11.970  1.00  0.00     0.168 HD
ENDROOT
BRANCH   1   7
HETATM    7  C   UNL     1     -44.251 -50.670  13.271  1.00  0.00     0.160 C 
BRANCH   7   8
HETATM    8  C   UNL     1     -44.042 -51.889  14.148  1.00  0.00     0.223 C 
HETATM    9  N   UNL     1     -44.788 -53.003  13.836  1.00  0.00    -0.353 N 
HETATM   10  H   UNL     1     -45.431 -52.919  13.042  1.00  0.00     0.163 HD
HETATM   11  O   UNL     1     -43.187 -51.870  15.035  1.00  0.00    -0.273 OA
BRANCH   9  12
HETATM   12  C   UNL     1     -44.746 -54.281  14.551  1.00  0.00     0.022 C 
HETATM   13  C   UNL     1     -43.303 -54.782  14.681  1.00  0.00     0.037 C 
HETATM   14  C   UNL     1     -45.612 -55.332  13.841  1.00  0.00     0.037 C 
HETATM   15  C   UNL     1     -45.309 -54.066  15.970  1.00  0.00     0.037 C 
ENDBRANCH   9  12
ENDBRANCH   7   8
ENDBRANCH   1   7
BRANCH   4  16
HETATM   16  N   UNL     1     -39.630 -49.997  12.068  1.00  0.00    -0.298 N 
HETATM   17  C   UNL     1     -38.647 -49.086  11.546  1.00  0.00     0.134 C 
HETATM   18  C   UNL     1     -37.325 -49.822  11.624  1.00  0.00     0.029 C 
HETATM   19  C   UNL     1     -37.564 -51.001  12.549  1.00  0.00     0.105 C 
HETATM   20  C   UNL     1     -39.061 -51.141  12.620  1.00  0.00     0.225 C 
HETATM   21  O   UNL     1     -39.617 -52.116  13.107  1.00  0.00    -0.273 OA
ENDBRANCH   4  16
TORSDOF 4
ENDMDL
