MODEL 1
REMARK VINA RESULT:      -4.7      0.000      0.000
REMARK  3 active torsions:
REMARK  status: ('A' for Active; 'I' for Inactive)
REMARK    1  A    between atoms: C_7  and  C_8 
REMARK    2  A    between atoms: C_8  and  C_9 
REMARK    3  A    between atoms: C_9  and  N_10 
ROOT
HETATM    1  C   UNL     2     -46.475 -47.074   9.130  1.00  0.00     0.090 C 
HETATM    2  C   UNL     2     -45.016 -47.387   9.095  1.00  0.00     0.093 A 
HETATM    3  N   UNL     2     -44.187 -47.227  10.141  1.00  0.00    -0.334 N 
ATOM      4  HN  UNL     2     -44.403 -46.885  11.077  1.00  0.00     0.168 HD
HETATM    5  C   UNL     2     -43.000 -47.632   9.648  1.00  0.00     0.098 A 
HETATM    6  N   UNL     2     -43.093 -48.025   8.362  1.00  0.00    -0.288 N 
ATOM      7  HN  UNL     2     -42.339 -48.375   7.770  1.00  0.00     0.188 HD
HETATM    8  N   UNL     2     -44.361 -47.864   8.024  1.00  0.00    -0.288 N 
HETATM    9  H   UNL     2     -44.757 -48.087   7.083  1.00  0.00     0.188 HD
ENDROOT
BRANCH   5  10
HETATM   10  C   UNL     2     -41.739 -47.673  10.456  1.00  0.00     0.107 C 
BRANCH  10  11
HETATM   11  C   UNL     2     -41.522 -49.044  11.102  1.00  0.00     0.274 C 
BRANCH  11  12
HETATM   12  N   UNL     2     -40.561 -49.815  10.319  1.00  0.00     0.078 N 
HETATM   13  H   UNL     2     -39.989 -49.160   9.736  1.00  0.00     0.312 HD
HETATM   14  H   UNL     2     -41.085 -50.444   9.669  1.00  0.00     0.312 HD
ENDBRANCH  11  12
ENDBRANCH  10  11
ENDBRANCH   5  10
TORSDOF 3
ENDMDL
MODEL 2
REMARK VINA RESULT:      -4.5      1.378      1.608
REMARK  3 active torsions:
REMARK  status: ('A' for Active; 'I' for Inactive)
REMARK    1  A    between atoms: C_7  and  C_8 
REMARK    2  A    between atoms: C_8  and  C_9 
REMARK    3  A    between atoms: C_9  and  N_10 
ROOT
HETATM    1  C   UNL     2     -46.651 -47.359   9.031  1.00  0.00     0.090 C 
HETATM    2  C   UNL     2     -45.165 -47.499   9.021  1.00  0.00     0.093 A 
HETATM    3  N   UNL     2     -44.385 -47.317  10.101  1.00  0.00    -0.334 N 
ATOM      4  HN  UNL     2     -44.661 -47.065  11.050  1.00  0.00     0.168 HD
HETATM    5  C   UNL     2     -43.147 -47.549   9.620  1.00  0.00     0.098 A 
HETATM    6  N   UNL     2     -43.164 -47.861   8.308  1.00  0.00    -0.288 N 
ATOM      7  HN  UNL     2     -42.361 -48.082   7.719  1.00  0.00     0.188 HD
HETATM    8  N   UNL     2     -44.434 -47.825   7.943  1.00  0.00    -0.288 N 
HETATM    9  H   UNL     2     -44.780 -48.028   6.978  1.00  0.00     0.188 HD
ENDROOT
BRANCH   5  10
HETATM   10  C   UNL     2     -41.909 -47.499  10.462  1.00  0.00     0.107 C 
BRANCH  10  11
HETATM   11  C   UNL     2     -41.309 -46.093  10.508  1.00  0.00     0.274 C 
BRANCH  11  12
HETATM   12  N   UNL     2     -39.861 -46.166  10.333  1.00  0.00     0.078 N 
HETATM   13  H   UNL     2     -39.648 -46.531   9.376  1.00  0.00     0.312 HD
HETATM   14  H   UNL     2     -39.473 -46.845  11.027  1.00  0.00     0.312 HD
ENDBRANCH  11  12
ENDBRANCH  10  11
ENDBRANCH   5  10
TORSDOF 3
ENDMDL
MODEL 3
REMARK VINA RESULT:      -4.3      5.192      6.022
REMARK  3 active torsions:
REMARK  status: ('A' for Active; 'I' for Inactive)
REMARK    1  A    between atoms: C_7  and  C_8 
REMARK    2  A    between atoms: C_8  and  C_9 
REMARK    3  A    between atoms: C_9  and  N_10 
ROOT
HETATM    1  C   UNL     2     -41.159 -54.160  13.037  1.00  0.00     0.090 C 
HETATM    2  C   UNL     2     -40.831 -52.840  12.421  1.00  0.00     0.093 A 
HETATM    3  N   UNL     2     -40.024 -51.926  12.985  1.00  0.00    -0.334 N 
ATOM      4  HN  UNL     2     -39.532 -51.977  13.877  1.00  0.00     0.168 HD
HETATM    5  C   UNL     2     -40.025 -50.925  12.083  1.00  0.00     0.098 A 
HETATM    6  N   UNL     2     -40.794 -51.210  11.012  1.00  0.00    -0.288 N 
ATOM      7  HN  UNL     2     -40.954 -50.619  10.196  1.00  0.00     0.188 HD
HETATM    8  N   UNL     2     -41.297 -52.412  11.236  1.00  0.00    -0.288 N 
HETATM    9  H   UNL     2     -41.934 -52.919  10.582  1.00  0.00     0.188 HD
ENDROOT
BRANCH   5  10
HETATM   10  C   UNL     2     -39.232 -49.664  12.243  1.00  0.00     0.107 C 
BRANCH  10  11
HETATM   11  C   UNL     2     -37.745 -49.889  11.960  1.00  0.00     0.274 C 
BRANCH  11  12
HETATM   12  N   UNL     2     -37.539 -50.103  10.530  1.00  0.00     0.078 N 
HETATM   13  H   UNL     2     -38.329 -49.667  10.000  1.00  0.00     0.312 HD
HETATM   14  H   UNL     2     -37.557 -51.131  10.339  1.00  0.00     0.312 HD
ENDBRANCH  11  12
ENDBRANCH  10  11
ENDBRANCH   5  10
TORSDOF 3
ENDMDL
MODEL 4
REMARK VINA RESULT:      -4.1      1.652      4.171
REMARK  3 active torsions:
REMARK  status: ('A' for Active; 'I' for Inactive)
REMARK    1  A    between atoms: C_7  and  C_8 
REMARK    2  A    between atoms: C_8  and  C_9 
REMARK    3  A    between atoms: C_9  and  N_10 
ROOT
HETATM    1  C   UNL     2     -39.544 -49.008  11.755  1.00  0.00     0.090 C 
HETATM    2  C   UNL     2     -40.887 -48.654  11.206  1.00  0.00     0.093 A 
HETATM    3  N   UNL     2     -41.101 -47.667  10.320  1.00  0.00    -0.334 N 
ATOM      4  HN  UNL     2     -40.423 -47.031   9.900  1.00  0.00     0.168 HD
HETATM    5  C   UNL     2     -42.433 -47.724  10.122  1.00  0.00     0.098 A 
HETATM    6  N   UNL     2     -43.011 -48.701  10.849  1.00  0.00    -0.288 N 
ATOM      7  HN  UNL     2     -44.001 -48.947  10.870  1.00  0.00     0.188 HD
HETATM    8  N   UNL     2     -42.033 -49.276  11.527  1.00  0.00    -0.288 N 
HETATM    9  H   UNL     2     -42.158 -50.079  12.184  1.00  0.00     0.188 HD
ENDROOT
BRANCH   5  10
HETATM   10  C   UNL     2     -43.168 -46.827   9.173  1.00  0.00     0.107 C 
BRANCH  10  11
HETATM   11  C   UNL     2     -43.877 -47.621   8.073  1.00  0.00     0.274 C 
BRANCH  11  12
HETATM   12  N   UNL     2     -42.892 -48.324   7.257  1.00  0.00     0.078 N 
HETATM   13  H   UNL     2     -43.389 -48.955   6.585  1.00  0.00     0.312 HD
HETATM   14  H   UNL     2     -42.305 -48.924   7.881  1.00  0.00     0.312 HD
ENDBRANCH  11  12
ENDBRANCH  10  11
ENDBRANCH   5  10
TORSDOF 3
ENDMDL
MODEL 5
REMARK VINA RESULT:      -4.1      5.079      6.588
REMARK  3 active torsions:
REMARK  status: ('A' for Active; 'I' for Inactive)
REMARK    1  A    between atoms: C_7  and  C_8 
REMARK    2  A    between atoms: C_8  and  C_9 
REMARK    3  A    between atoms: C_9  and  N_10 
ROOT
HETATM    1  C   UNL     2     -39.591 -49.499  12.186  1.00  0.00     0.090 C 
HETATM    2  C   UNL     2     -40.196 -50.861  12.098  1.00  0.00     0.093 A 
HETATM    3  N   UNL     2     -40.166 -51.763  13.094  1.00  0.00    -0.334 N 
ATOM      4  HN  UNL     2     -39.749 -51.675  14.020  1.00  0.00     0.168 HD
HETATM    5  C   UNL     2     -40.825 -52.815  12.567  1.00  0.00     0.098 A 
HETATM    6  N   UNL     2     -41.242 -52.571  11.308  1.00  0.00    -0.288 N 
ATOM      7  HN  UNL     2     -41.762 -53.204  10.700  1.00  0.00     0.188 HD
HETATM    8  N   UNL     2     -40.840 -51.344  11.023  1.00  0.00    -0.288 N 
HETATM    9  H   UNL     2     -41.016 -50.858  10.115  1.00  0.00     0.188 HD
ENDROOT
BRANCH   5  10
HETATM   10  C   UNL     2     -41.089 -54.085  13.315  1.00  0.00     0.107 C 
BRANCH  10  11
HETATM   11  C   UNL     2     -39.968 -54.406  14.306  1.00  0.00     0.274 C 
BRANCH  11  12
HETATM   12  N   UNL     2     -38.837 -55.001  13.600  1.00  0.00     0.078 N 
HETATM   13  H   UNL     2     -38.163 -54.247  13.333  1.00  0.00     0.312 HD
HETATM   14  H   UNL     2     -39.186 -55.441  12.718  1.00  0.00     0.312 HD
ENDBRANCH  11  12
ENDBRANCH  10  11
ENDBRANCH   5  10
TORSDOF 3
ENDMDL
MODEL 6
REMARK VINA RESULT:      -4.1      1.737      4.395
REMARK  3 active torsions:
REMARK  status: ('A' for Active; 'I' for Inactive)
REMARK    1  A    between atoms: C_7  and  C_8 
REMARK    2  A    between atoms: C_8  and  C_9 
REMARK    3  A    between atoms: C_9  and  N_10 
ROOT
HETATM    1  C   UNL     2     -42.266 -51.942  12.935  1.00  0.00     0.090 C 
HETATM    2  C   UNL     2     -41.714 -50.903  12.016  1.00  0.00     0.093 A 
HETATM    3  N   UNL     2     -42.193 -49.651  11.922  1.00  0.00    -0.334 N 
ATOM      4  HN  UNL     2     -42.968 -49.227  12.430  1.00  0.00     0.168 HD
HETATM    5  C   UNL     2     -41.395 -49.093  10.989  1.00  0.00     0.098 A 
HETATM    6  N   UNL     2     -40.468 -49.959  10.533  1.00  0.00    -0.288 N 
ATOM      7  HN  UNL     2     -39.750 -49.777   9.831  1.00  0.00     0.188 HD
HETATM    8  N   UNL     2     -40.678 -51.092  11.181  1.00  0.00    -0.288 N 
HETATM    9  H   UNL     2     -40.115 -51.962  11.053  1.00  0.00     0.188 HD
ENDROOT
BRANCH   5  10
HETATM   10  C   UNL     2     -41.510 -47.666  10.547  1.00  0.00     0.107 C 
BRANCH  10  11
HETATM   11  C   UNL     2     -42.834 -47.399   9.828  1.00  0.00     0.274 C 
BRANCH  11  12
HETATM   12  N   UNL     2     -42.866 -48.127   8.562  1.00  0.00     0.078 N 
HETATM   13  H   UNL     2     -41.995 -47.917   8.022  1.00  0.00     0.312 HD
HETATM   14  H   UNL     2     -43.679 -47.786   8.000  1.00  0.00     0.312 HD
ENDBRANCH  11  12
ENDBRANCH  10  11
ENDBRANCH   5  10
TORSDOF 3
ENDMDL
MODEL 7
REMARK VINA RESULT:      -4.0      1.719      4.133
REMARK  3 active torsions:
REMARK  status: ('A' for Active; 'I' for Inactive)
REMARK    1  A    between atoms: C_7  and  C_8 
REMARK    2  A    between atoms: C_8  and  C_9 
REMARK    3  A    between atoms: C_9  and  N_10 
ROOT
HETATM    1  C   UNL     2     -40.103 -45.852  11.213  1.00  0.00     0.090 C 
HETATM    2  C   UNL     2     -41.112 -46.760  10.590  1.00  0.00     0.093 A 
HETATM    3  N   UNL     2     -42.137 -46.336   9.832  1.00  0.00    -0.334 N 
ATOM      4  HN  UNL     2     -42.385 -45.381   9.573  1.00  0.00     0.168 HD
HETATM    5  C   UNL     2     -42.758 -47.485   9.497  1.00  0.00     0.098 A 
HETATM    6  N   UNL     2     -42.143 -48.564  10.021  1.00  0.00    -0.288 N 
ATOM      7  HN  UNL     2     -42.416 -49.541   9.911  1.00  0.00     0.188 HD
HETATM    8  N   UNL     2     -41.113 -48.098  10.707  1.00  0.00    -0.288 N 
HETATM    9  H   UNL     2     -40.431 -48.691  11.230  1.00  0.00     0.188 HD
ENDROOT
BRANCH   5  10
HETATM   10  C   UNL     2     -43.967 -47.546   8.614  1.00  0.00     0.107 C 
BRANCH  10  11
HETATM   11  C   UNL     2     -45.265 -47.462   9.420  1.00  0.00     0.274 C 
BRANCH  11  12
HETATM   12  N   UNL     2     -46.170 -48.535   9.017  1.00  0.00     0.078 N 
HETATM   13  H   UNL     2     -46.016 -49.365   9.635  1.00  0.00     0.312 HD
HETATM   14  H   UNL     2     -45.936 -48.820   8.038  1.00  0.00     0.312 HD
ENDBRANCH  11  12
ENDBRANCH  10  11
ENDBRANCH   5  10
TORSDOF 3
ENDMDL
MODEL 8
REMARK VINA RESULT:      -4.0      4.390      6.261
REMARK  3 active torsions:
REMARK  status: ('A' for Active; 'I' for Inactive)
REMARK    1  A    between atoms: C_7  and  C_8 
REMARK    2  A    between atoms: C_8  and  C_9 
REMARK    3  A    between atoms: C_9  and  N_10 
ROOT
HETATM    1  C   UNL     2     -43.802 -54.771  14.424  1.00  0.00     0.090 C 
HETATM    2  C   UNL     2     -43.142 -53.866  13.436  1.00  0.00     0.093 A 
HETATM    3  N   UNL     2     -41.988 -53.216  13.666  1.00  0.00    -0.334 N 
ATOM      4  HN  UNL     2     -41.406 -53.230  14.503  1.00  0.00     0.168 HD
HETATM    5  C   UNL     2     -41.789 -52.542  12.515  1.00  0.00     0.098 A 
HETATM    6  N   UNL     2     -42.771 -52.768  11.620  1.00  0.00    -0.288 N 
ATOM      7  HN  UNL     2     -42.846 -52.379  10.680  1.00  0.00     0.188 HD
HETATM    8  N   UNL     2     -43.616 -53.598  12.209  1.00  0.00    -0.288 N 
HETATM    9  H   UNL     2     -44.486 -53.970  11.767  1.00  0.00     0.188 HD
ENDROOT
BRANCH   5  10
HETATM   10  C   UNL     2     -40.593 -51.677  12.259  1.00  0.00     0.107 C 
BRANCH  10  11
HETATM   11  C   UNL     2     -40.994 -50.282  11.774  1.00  0.00     0.274 C 
BRANCH  11  12
HETATM   12  N   UNL     2     -40.433 -50.039  10.448  1.00  0.00     0.078 N 
HETATM   13  H   UNL     2     -40.254 -49.014  10.333  1.00  0.00     0.312 HD
HETATM   14  H   UNL     2     -41.137 -50.321   9.729  1.00  0.00     0.312 HD
ENDBRANCH  11  12
ENDBRANCH  10  11
ENDBRANCH   5  10
TORSDOF 3
ENDMDL
MODEL 9
REMARK VINA RESULT:      -4.0      3.300      5.155
REMARK  3 active torsions:
REMARK  status: ('A' for Active; 'I' for Inactive)
REMARK    1  A    between atoms: C_7  and  C_8 
REMARK    2  A    between atoms: C_8  and  C_9 
REMARK    3  A    between atoms: C_9  and  N_10 
ROOT
HETATM    1  C   UNL     2     -38.016 -50.322  11.740  1.00  0.00     0.090 C 
HETATM    2  C   UNL     2     -39.218 -49.554  11.300  1.00  0.00     0.093 A 
HETATM    3  N   UNL     2     -39.432 -48.260  11.593  1.00  0.00    -0.334 N 
ATOM      4  HN  UNL     2     -38.845 -47.625  12.133  1.00  0.00     0.168 HD
HETATM    5  C   UNL     2     -40.614 -48.008  10.995  1.00  0.00     0.098 A 
HETATM    6  N   UNL     2     -41.103 -49.094  10.363  1.00  0.00    -0.288 N 
ATOM      7  HN  UNL     2     -41.975 -49.157   9.837  1.00  0.00     0.188 HD
HETATM    8  N   UNL     2     -40.221 -50.058  10.563  1.00  0.00    -0.288 N 
HETATM    9  H   UNL     2     -40.311 -51.031  10.192  1.00  0.00     0.188 HD
ENDROOT
BRANCH   5  10
HETATM   10  C   UNL     2     -41.277 -46.665  11.006  1.00  0.00     0.107 C 
BRANCH  10  11
HETATM   11  C   UNL     2     -40.256 -45.526  11.020  1.00  0.00     0.274 C 
BRANCH  11  12
HETATM   12  N   UNL     2     -39.611 -45.421   9.714  1.00  0.00     0.078 N 
HETATM   13  H   UNL     2     -38.747 -46.011   9.709  1.00  0.00     0.312 HD
HETATM   14  H   UNL     2     -39.320 -44.428   9.563  1.00  0.00     0.312 HD
ENDBRANCH  11  12
ENDBRANCH  10  11
ENDBRANCH   5  10
TORSDOF 3
ENDMDL
