MODEL 1
REMARK VINA RESULT:      -5.3      0.000      0.000
REMARK  7 active torsions:
REMARK  status: ('A' for Active; 'I' for Inactive)
REMARK    1  A    between atoms: C_2  and  N_3 
REMARK       I    between atoms: N_3  and  C_4 
REMARK    2  A    between atoms: C_4  and  C_6 
REMARK    3  A    between atoms: C_6  and  N_7 
REMARK    4  A    between atoms: C_10  and  N_11 
REMARK    5  A    between atoms: N_11  and  C_12 
REMARK    6  A    between atoms: C_12  and  C_14 
REMARK    7  A    between atoms: C_14  and  O_15 
ROOT
HETATM    1  N   UNL     1     -43.085 -53.759  12.854  1.00  0.00    -0.293 N 
HETATM    2  C   UNL     1     -41.933 -54.153  13.467  1.00  0.00     0.114 A 
HETATM    3  C   UNL     1     -40.947 -53.342  12.953  1.00  0.00     0.068 A 
HETATM    4  C   UNL     1     -41.594 -52.506  12.017  1.00  0.00     0.117 A 
HETATM    5  N   UNL     1     -42.894 -52.791  11.931  1.00  0.00    -0.283 N 
ATOM      6  HN  UNL     1     -43.586 -52.373  11.308  1.00  0.00     0.188 HD
ENDROOT
BRANCH   1   7
HETATM    7  C   UNL     1     -44.427 -54.249  13.113  1.00  0.00     0.250 C 
BRANCH   7   8
HETATM    8  C   UNL     1     -45.482 -53.157  13.076  1.00  0.00     0.237 C 
HETATM    9  N   UNL     1     -45.764 -52.545  14.278  1.00  0.00    -0.360 N 
HETATM   10  H   UNL     1     -45.342 -52.950  15.121  1.00  0.00     0.162 HD
HETATM   11  O   UNL     1     -45.998 -52.803  12.016  1.00  0.00    -0.272 OA
BRANCH   9  12
HETATM   12  C   UNL     1     -46.779 -51.528  14.409  1.00  0.00     0.118 C 
HETATM   13  C   UNL     1     -47.230 -51.374  15.848  1.00  0.00     0.026 C 
ENDBRANCH   9  12
ENDBRANCH   7   8
ENDBRANCH   1   7
BRANCH   4  14
HETATM   14  N   UNL     1     -40.940 -51.547  11.328  1.00  0.00    -0.369 N 
HETATM   15  H   UNL     1     -41.246 -51.403  10.368  1.00  0.00     0.161 HD
BRANCH  14  16
HETATM   16  C   UNL     1     -40.619 -50.268  11.983  1.00  0.00     0.103 C 
HETATM   17  C   UNL     1     -39.280 -49.735  11.472  1.00  0.00     0.034 C 
BRANCH  16  18
HETATM   18  C   UNL     1     -41.734 -49.244  11.673  1.00  0.00     0.191 C 
BRANCH  18  19
HETATM   19  O   UNL     1     -41.413 -48.546  10.463  1.00  0.00    -0.394 OA
HETATM   20  C   UNL     1     -42.505 -47.764  10.001  1.00  0.00     0.201 C 
ENDBRANCH  18  19
ENDBRANCH  16  18
ENDBRANCH  14  16
ENDBRANCH   4  14
TORSDOF 7
ENDMDL
MODEL 2
REMARK VINA RESULT:      -5.3      3.925      5.946
REMARK  7 active torsions:
REMARK  status: ('A' for Active; 'I' for Inactive)
REMARK    1  A    between atoms: C_2  and  N_3 
REMARK       I    between atoms: N_3  and  C_4 
REMARK    2  A    between atoms: C_4  and  C_6 
REMARK    3  A    between atoms: C_6  and  N_7 
REMARK    4  A    between atoms: C_10  and  N_11 
REMARK    5  A    between atoms: N_11  and  C_12 
REMARK    6  A    between atoms: C_12  and  C_14 
REMARK    7  A    between atoms: C_14  and  O_15 
ROOT
HETATM    1  N   UNL     1     -41.956 -47.338  10.290  1.00  0.00    -0.293 N 
HETATM    2  C   UNL     1     -40.900 -46.865  11.010  1.00  0.00     0.114 A 
HETATM    3  C   UNL     1     -40.209 -47.979  11.425  1.00  0.00     0.068 A 
HETATM    4  C   UNL     1     -40.938 -49.082  10.930  1.00  0.00     0.117 A 
HETATM    5  N   UNL     1     -42.027 -48.687  10.271  1.00  0.00    -0.283 N 
ATOM      6  HN  UNL     1     -42.749 -49.270   9.848  1.00  0.00     0.188 HD
ENDROOT
BRANCH   1   7
HETATM    7  C   UNL     1     -42.942 -46.557   9.563  1.00  0.00     0.250 C 
BRANCH   7   8
HETATM    8  C   UNL     1     -43.796 -47.391   8.627  1.00  0.00     0.237 C 
HETATM    9  N   UNL     1     -45.122 -47.529   8.974  1.00  0.00    -0.360 N 
HETATM   10  H   UNL     1     -45.406 -47.171   9.893  1.00  0.00     0.162 HD
HETATM   11  O   UNL     1     -43.334 -47.856   7.584  1.00  0.00    -0.272 OA
BRANCH   9  12
HETATM   12  C   UNL     1     -46.044 -48.335   8.210  1.00  0.00     0.118 C 
HETATM   13  C   UNL     1     -46.994 -49.098   9.111  1.00  0.00     0.026 C 
ENDBRANCH   9  12
ENDBRANCH   7   8
ENDBRANCH   1   7
BRANCH   4  14
HETATM   14  N   UNL     1     -40.538 -50.359  11.118  1.00  0.00    -0.369 N 
HETATM   15  H   UNL     1     -39.574 -50.563  10.865  1.00  0.00     0.161 HD
BRANCH  14  16
HETATM   16  C   UNL     1     -40.932 -51.074  12.344  1.00  0.00     0.103 C 
HETATM   17  C   UNL     1     -41.742 -52.320  11.990  1.00  0.00     0.034 C 
BRANCH  16  18
HETATM   18  C   UNL     1     -39.662 -51.487  13.121  1.00  0.00     0.191 C 
BRANCH  18  19
HETATM   19  O   UNL     1     -38.517 -51.344  12.270  1.00  0.00    -0.394 OA
HETATM   20  C   UNL     1     -37.369 -50.931  12.996  1.00  0.00     0.201 C 
ENDBRANCH  18  19
ENDBRANCH  16  18
ENDBRANCH  14  16
ENDBRANCH   4  14
TORSDOF 7
ENDMDL
MODEL 3
REMARK VINA RESULT:      -5.1      1.858      6.010
REMARK  7 active torsions:
REMARK  status: ('A' for Active; 'I' for Inactive)
REMARK    1  A    between atoms: C_2  and  N_3 
REMARK       I    between atoms: N_3  and  C_4 
REMARK    2  A    between atoms: C_4  and  C_6 
REMARK    3  A    between atoms: C_6  and  N_7 
REMARK    4  A    between atoms: C_10  and  N_11 
REMARK    5  A    between atoms: N_11  and  C_12 
REMARK    6  A    between atoms: C_12  and  C_14 
REMARK    7  A    between atoms: C_14  and  O_15 
ROOT
HETATM    1  N   UNL     1     -41.147 -50.751  11.939  1.00  0.00    -0.293 N 
HETATM    2  C   UNL     1     -40.342 -51.742  12.414  1.00  0.00     0.114 A 
HETATM    3  C   UNL     1     -41.154 -52.845  12.544  1.00  0.00     0.068 A 
HETATM    4  C   UNL     1     -42.440 -52.417  12.148  1.00  0.00     0.117 A 
HETATM    5  N   UNL     1     -42.439 -51.125  11.817  1.00  0.00    -0.283 N 
ATOM      6  HN  UNL     1     -43.234 -50.551  11.537  1.00  0.00     0.188 HD
ENDROOT
BRANCH   1   7
HETATM    7  C   UNL     1     -40.749 -49.408  11.553  1.00  0.00     0.250 C 
BRANCH   7   8
HETATM    8  C   UNL     1     -41.913 -48.544  11.102  1.00  0.00     0.237 C 
HETATM    9  N   UNL     1     -41.974 -48.262   9.754  1.00  0.00    -0.360 N 
HETATM   10  H   UNL     1     -41.172 -48.544   9.179  1.00  0.00     0.162 HD
HETATM   11  O   UNL     1     -42.783 -48.179  11.893  1.00  0.00    -0.272 OA
BRANCH   9  12
HETATM   12  C   UNL     1     -42.991 -47.412   9.186  1.00  0.00     0.118 C 
HETATM   13  C   UNL     1     -43.378 -47.862   7.791  1.00  0.00     0.026 C 
ENDBRANCH   9  12
ENDBRANCH   7   8
ENDBRANCH   1   7
BRANCH   4  14
HETATM   14  N   UNL     1     -43.503 -53.248  12.116  1.00  0.00    -0.369 N 
HETATM   15  H   UNL     1     -43.310 -54.203  11.822  1.00  0.00     0.161 HD
BRANCH  14  16
HETATM   16  C   UNL     1     -44.488 -53.216  13.210  1.00  0.00     0.103 C 
HETATM   17  C   UNL     1     -45.698 -52.375  12.805  1.00  0.00     0.034 C 
BRANCH  16  18
HETATM   18  C   UNL     1     -44.944 -54.658  13.526  1.00  0.00     0.191 C 
BRANCH  18  19
HETATM   19  O   UNL     1     -44.905 -54.867  14.945  1.00  0.00    -0.394 OA
HETATM   20  C   UNL     1     -43.843 -54.147  15.553  1.00  0.00     0.201 C 
ENDBRANCH  18  19
ENDBRANCH  16  18
ENDBRANCH  14  16
ENDBRANCH   4  14
TORSDOF 7
ENDMDL
MODEL 4
REMARK VINA RESULT:      -5.0      2.181      3.357
REMARK  7 active torsions:
REMARK  status: ('A' for Active; 'I' for Inactive)
REMARK    1  A    between atoms: C_2  and  N_3 
REMARK       I    between atoms: N_3  and  C_4 
REMARK    2  A    between atoms: C_4  and  C_6 
REMARK    3  A    between atoms: C_6  and  N_7 
REMARK    4  A    between atoms: C_10  and  N_11 
REMARK    5  A    between atoms: N_11  and  C_12 
REMARK    6  A    between atoms: C_12  and  C_14 
REMARK    7  A    between atoms: C_14  and  O_15 
ROOT
HETATM    1  N   UNL     1     -40.406 -51.783  12.394  1.00  0.00    -0.293 N 
HETATM    2  C   UNL     1     -39.270 -51.108  12.726  1.00  0.00     0.114 A 
HETATM    3  C   UNL     1     -39.276 -49.973  11.948  1.00  0.00     0.068 A 
HETATM    4  C   UNL     1     -40.442 -50.063  11.157  1.00  0.00     0.117 A 
HETATM    5  N   UNL     1     -41.109 -51.190  11.405  1.00  0.00    -0.283 N 
ATOM      6  HN  UNL     1     -41.958 -51.528  10.950  1.00  0.00     0.188 HD
ENDROOT
BRANCH   1   7
HETATM    7  C   UNL     1     -40.907 -53.006  12.997  1.00  0.00     0.250 C 
BRANCH   7   8
HETATM    8  C   UNL     1     -42.402 -52.979  13.256  1.00  0.00     0.237 C 
HETATM    9  N   UNL     1     -43.135 -53.997  12.687  1.00  0.00    -0.360 N 
HETATM   10  H   UNL     1     -42.647 -54.620  12.034  1.00  0.00     0.162 HD
HETATM   11  O   UNL     1     -42.908 -52.129  13.989  1.00  0.00    -0.272 OA
BRANCH   9  12
HETATM   12  C   UNL     1     -44.572 -54.075  12.802  1.00  0.00     0.118 C 
HETATM   13  C   UNL     1     -44.992 -55.042  13.891  1.00  0.00     0.026 C 
ENDBRANCH   9  12
ENDBRANCH   7   8
ENDBRANCH   1   7
BRANCH   4  14
HETATM   14  N   UNL     1     -40.800 -49.099  10.282  1.00  0.00    -0.369 N 
HETATM   15  H   UNL     1     -41.075 -49.420   9.356  1.00  0.00     0.161 HD
BRANCH  14  16
HETATM   16  C   UNL     1     -41.647 -47.982  10.732  1.00  0.00     0.103 C 
HETATM   17  C   UNL     1     -40.809 -46.713  10.886  1.00  0.00     0.034 C 
BRANCH  16  18
HETATM   18  C   UNL     1     -42.765 -47.740   9.693  1.00  0.00     0.191 C 
BRANCH  18  19
HETATM   19  O   UNL     1     -43.991 -47.446  10.376  1.00  0.00    -0.394 OA
HETATM   20  C   UNL     1     -45.104 -47.470   9.494  1.00  0.00     0.201 C 
ENDBRANCH  18  19
ENDBRANCH  16  18
ENDBRANCH  14  16
ENDBRANCH   4  14
TORSDOF 7
ENDMDL
MODEL 5
REMARK VINA RESULT:      -4.8      1.699      5.788
REMARK  7 active torsions:
REMARK  status: ('A' for Active; 'I' for Inactive)
REMARK    1  A    between atoms: C_2  and  N_3 
REMARK       I    between atoms: N_3  and  C_4 
REMARK    2  A    between atoms: C_4  and  C_6 
REMARK    3  A    between atoms: C_6  and  N_7 
REMARK    4  A    between atoms: C_10  and  N_11 
REMARK    5  A    between atoms: N_11  and  C_12 
REMARK    6  A    between atoms: C_12  and  C_14 
REMARK    7  A    between atoms: C_14  and  O_15 
ROOT
HETATM    1  N   UNL     1     -42.241 -53.357  12.692  1.00  0.00    -0.293 N 
HETATM    2  C   UNL     1     -42.509 -54.239  13.696  1.00  0.00     0.114 A 
HETATM    3  C   UNL     1     -43.881 -54.287  13.787  1.00  0.00     0.068 A 
HETATM    4  C   UNL     1     -44.357 -53.382  12.814  1.00  0.00     0.117 A 
HETATM    5  N   UNL     1     -43.350 -52.786  12.174  1.00  0.00    -0.283 N 
ATOM      6  HN  UNL     1     -43.406 -52.062  11.457  1.00  0.00     0.188 HD
ENDROOT
BRANCH   1   7
HETATM    7  C   UNL     1     -40.938 -53.019  12.146  1.00  0.00     0.250 C 
BRANCH   7   8
HETATM    8  C   UNL     1     -40.586 -51.550  12.300  1.00  0.00     0.237 C 
HETATM    9  N   UNL     1     -40.640 -50.790  11.153  1.00  0.00    -0.360 N 
HETATM   10  H   UNL     1     -40.787 -51.286  10.267  1.00  0.00     0.162 HD
HETATM   11  O   UNL     1     -40.335 -51.065  13.404  1.00  0.00    -0.272 OA
BRANCH   9  12
HETATM   12  C   UNL     1     -40.282 -49.392  11.133  1.00  0.00     0.118 C 
HETATM   13  C   UNL     1     -41.479 -48.516  10.820  1.00  0.00     0.026 C 
ENDBRANCH   9  12
ENDBRANCH   7   8
ENDBRANCH   1   7
BRANCH   4  14
HETATM   14  N   UNL     1     -45.674 -53.184  12.590  1.00  0.00    -0.369 N 
HETATM   15  H   UNL     1     -46.306 -53.813  13.081  1.00  0.00     0.161 HD
BRANCH  14  16
HETATM   16  C   UNL     1     -46.210 -51.814  12.547  1.00  0.00     0.103 C 
HETATM   17  C   UNL     1     -47.296 -51.705  11.478  1.00  0.00     0.034 C 
BRANCH  16  18
HETATM   18  C   UNL     1     -46.806 -51.458  13.927  1.00  0.00     0.191 C 
BRANCH  18  19
HETATM   19  O   UNL     1     -47.050 -52.664  14.664  1.00  0.00    -0.394 OA
HETATM   20  C   UNL     1     -46.610 -52.557  16.009  1.00  0.00     0.201 C 
ENDBRANCH  18  19
ENDBRANCH  16  18
ENDBRANCH  14  16
ENDBRANCH   4  14
TORSDOF 7
ENDMDL
MODEL 6
REMARK VINA RESULT:      -4.6      2.224      3.912
REMARK  7 active torsions:
REMARK  status: ('A' for Active; 'I' for Inactive)
REMARK    1  A    between atoms: C_2  and  N_3 
REMARK       I    between atoms: N_3  and  C_4 
REMARK    2  A    between atoms: C_4  and  C_6 
REMARK    3  A    between atoms: C_6  and  N_7 
REMARK    4  A    between atoms: C_10  and  N_11 
REMARK    5  A    between atoms: N_11  and  C_12 
REMARK    6  A    between atoms: C_12  and  C_14 
REMARK    7  A    between atoms: C_14  and  O_15 
ROOT
HETATM    1  N   UNL     1     -40.575 -50.898  11.802  1.00  0.00    -0.293 N 
HETATM    2  C   UNL     1     -39.401 -50.334  12.201  1.00  0.00     0.114 A 
HETATM    3  C   UNL     1     -39.443 -49.035  11.749  1.00  0.00     0.068 A 
HETATM    4  C   UNL     1     -40.672 -48.913  11.065  1.00  0.00     0.117 A 
HETATM    5  N   UNL     1     -41.343 -50.065  11.065  1.00  0.00    -0.283 N 
ATOM      6  HN  UNL     1     -42.234 -50.271  10.612  1.00  0.00     0.188 HD
ENDROOT
BRANCH   1   7
HETATM    7  C   UNL     1     -41.054 -52.235  12.105  1.00  0.00     0.250 C 
BRANCH   7   8
HETATM    8  C   UNL     1     -42.492 -52.263  12.588  1.00  0.00     0.237 C 
HETATM    9  N   UNL     1     -43.242 -53.353  12.204  1.00  0.00    -0.360 N 
HETATM   10  H   UNL     1     -42.820 -53.996  11.524  1.00  0.00     0.162 HD
HETATM   11  O   UNL     1     -42.932 -51.389  13.336  1.00  0.00    -0.272 OA
BRANCH   9  12
HETATM   12  C   UNL     1     -44.637 -53.492  12.543  1.00  0.00     0.118 C 
HETATM   13  C   UNL     1     -44.861 -54.623  13.527  1.00  0.00     0.026 C 
ENDBRANCH   9  12
ENDBRANCH   7   8
ENDBRANCH   1   7
BRANCH   4  14
HETATM   14  N   UNL     1     -41.078 -47.753  10.505  1.00  0.00    -0.369 N 
HETATM   15  H   UNL     1     -40.597 -47.482   9.650  1.00  0.00     0.161 HD
BRANCH  14  16
HETATM   16  C   UNL     1     -42.515 -47.441  10.432  1.00  0.00     0.103 C 
HETATM   17  C   UNL     1     -43.122 -47.421  11.834  1.00  0.00     0.034 C 
BRANCH  16  18
HETATM   18  C   UNL     1     -42.702 -46.058   9.768  1.00  0.00     0.191 C 
BRANCH  18  19
HETATM   19  O   UNL     1     -41.704 -45.156  10.264  1.00  0.00    -0.394 OA
HETATM   20  C   UNL     1     -42.277 -44.104  11.027  1.00  0.00     0.201 C 
ENDBRANCH  18  19
ENDBRANCH  16  18
ENDBRANCH  14  16
ENDBRANCH   4  14
TORSDOF 7
ENDMDL
MODEL 7
REMARK VINA RESULT:      -4.5      2.707      5.859
REMARK  7 active torsions:
REMARK  status: ('A' for Active; 'I' for Inactive)
REMARK    1  A    between atoms: C_2  and  N_3 
REMARK       I    between atoms: N_3  and  C_4 
REMARK    2  A    between atoms: C_4  and  C_6 
REMARK    3  A    between atoms: C_6  and  N_7 
REMARK    4  A    between atoms: C_10  and  N_11 
REMARK    5  A    between atoms: N_11  and  C_12 
REMARK    6  A    between atoms: C_12  and  C_14 
REMARK    7  A    between atoms: C_14  and  O_15 
ROOT
HETATM    1  N   UNL     1     -42.496 -48.102  11.252  1.00  0.00    -0.293 N 
HETATM    2  C   UNL     1     -42.880 -47.553  12.439  1.00  0.00     0.114 A 
HETATM    3  C   UNL     1     -42.831 -48.580  13.352  1.00  0.00     0.068 A 
HETATM    4  C   UNL     1     -42.432 -49.719  12.619  1.00  0.00     0.117 A 
HETATM    5  N   UNL     1     -42.267 -49.431  11.328  1.00  0.00    -0.283 N 
ATOM      6  HN  UNL     1     -42.023 -50.069  10.570  1.00  0.00     0.188 HD
ENDROOT
BRANCH   1   7
HETATM    7  C   UNL     1     -42.302 -47.411   9.988  1.00  0.00     0.250 C 
BRANCH   7   8
HETATM    8  C   UNL     1     -43.383 -47.713   8.967  1.00  0.00     0.237 C 
HETATM    9  N   UNL     1     -44.681 -47.661   9.423  1.00  0.00    -0.360 N 
HETATM   10  H   UNL     1     -44.820 -47.549  10.434  1.00  0.00     0.162 HD
HETATM   11  O   UNL     1     -43.105 -47.924   7.786  1.00  0.00    -0.272 OA
BRANCH   9  12
HETATM   12  C   UNL     1     -45.811 -47.975   8.583  1.00  0.00     0.118 C 
HETATM   13  C   UNL     1     -47.107 -47.459   9.176  1.00  0.00     0.026 C 
ENDBRANCH   9  12
ENDBRANCH   7   8
ENDBRANCH   1   7
BRANCH   4  14
HETATM   14  N   UNL     1     -42.245 -50.925  13.198  1.00  0.00    -0.369 N 
HETATM   15  H   UNL     1     -42.728 -51.073  14.081  1.00  0.00     0.161 HD
BRANCH  14  16
HETATM   16  C   UNL     1     -42.260 -52.142  12.370  1.00  0.00     0.103 C 
HETATM   17  C   UNL     1     -40.833 -52.626  12.115  1.00  0.00     0.034 C 
BRANCH  16  18
HETATM   18  C   UNL     1     -43.056 -53.246  13.104  1.00  0.00     0.191 C 
BRANCH  18  19
HETATM   19  O   UNL     1     -44.323 -53.426  12.457  1.00  0.00    -0.394 OA
HETATM   20  C   UNL     1     -45.237 -54.137  13.279  1.00  0.00     0.201 C 
ENDBRANCH  18  19
ENDBRANCH  16  18
ENDBRANCH  14  16
ENDBRANCH   4  14
TORSDOF 7
ENDMDL
MODEL 8
REMARK VINA RESULT:      -4.5      3.359      4.784
REMARK  7 active torsions:
REMARK  status: ('A' for Active; 'I' for Inactive)
REMARK    1  A    between atoms: C_2  and  N_3 
REMARK       I    between atoms: N_3  and  C_4 
REMARK    2  A    between atoms: C_4  and  C_6 
REMARK    3  A    between atoms: C_6  and  N_7 
REMARK    4  A    between atoms: C_10  and  N_11 
REMARK    5  A    between atoms: N_11  and  C_12 
REMARK    6  A    between atoms: C_12  and  C_14 
REMARK    7  A    between atoms: C_14  and  O_15 
ROOT
HETATM    1  N   UNL     1     -41.322 -51.832  12.374  1.00  0.00    -0.293 N 
HETATM    2  C   UNL     1     -42.201 -51.064  13.079  1.00  0.00     0.114 A 
HETATM    3  C   UNL     1     -42.215 -49.845  12.443  1.00  0.00     0.068 A 
HETATM    4  C   UNL     1     -41.294 -49.962  11.379  1.00  0.00     0.117 A 
HETATM    5  N   UNL     1     -40.721 -51.165  11.365  1.00  0.00    -0.283 N 
ATOM      6  HN  UNL     1     -39.994 -51.505  10.735  1.00  0.00     0.188 HD
ENDROOT
BRANCH   1   7
HETATM    7  C   UNL     1     -41.014 -53.235  12.592  1.00  0.00     0.250 C 
BRANCH   7   8
HETATM    8  C   UNL     1     -39.827 -53.453  13.511  1.00  0.00     0.237 C 
HETATM    9  N   UNL     1     -39.870 -54.579  14.303  1.00  0.00    -0.360 N 
HETATM   10  H   UNL     1     -40.745 -55.115  14.309  1.00  0.00     0.162 HD
HETATM   11  O   UNL     1     -38.856 -52.695  13.492  1.00  0.00    -0.272 OA
BRANCH   9  12
HETATM   12  C   UNL     1     -38.840 -54.892  15.264  1.00  0.00     0.118 C 
HETATM   13  C   UNL     1     -39.279 -54.567  16.677  1.00  0.00     0.026 C 
ENDBRANCH   9  12
ENDBRANCH   7   8
ENDBRANCH   1   7
BRANCH   4  14
HETATM   14  N   UNL     1     -41.064 -48.957  10.506  1.00  0.00    -0.369 N 
HETATM   15  H   UNL     1     -41.036 -49.221   9.524  1.00  0.00     0.161 HD
BRANCH  14  16
HETATM   16  C   UNL     1     -41.735 -47.660  10.691  1.00  0.00     0.103 C 
HETATM   17  C   UNL     1     -40.702 -46.535  10.747  1.00  0.00     0.034 C 
BRANCH  16  18
HETATM   18  C   UNL     1     -42.702 -47.415   9.512  1.00  0.00     0.191 C 
BRANCH  18  19
HETATM   19  O   UNL     1     -42.791 -46.007   9.257  1.00  0.00    -0.394 OA
HETATM   20  C   UNL     1     -44.114 -45.615   8.921  1.00  0.00     0.201 C 
ENDBRANCH  18  19
ENDBRANCH  16  18
ENDBRANCH  14  16
ENDBRANCH   4  14
TORSDOF 7
ENDMDL
MODEL 9
REMARK VINA RESULT:      -4.4      2.017      6.300
REMARK  7 active torsions:
REMARK  status: ('A' for Active; 'I' for Inactive)
REMARK    1  A    between atoms: C_2  and  N_3 
REMARK       I    between atoms: N_3  and  C_4 
REMARK    2  A    between atoms: C_4  and  C_6 
REMARK    3  A    between atoms: C_6  and  N_7 
REMARK    4  A    between atoms: C_10  and  N_11 
REMARK    5  A    between atoms: N_11  and  C_12 
REMARK    6  A    between atoms: C_12  and  C_14 
REMARK    7  A    between atoms: C_14  and  O_15 
ROOT
HETATM    1  N   UNL     1     -40.926 -51.332  12.136  1.00  0.00    -0.293 N 
HETATM    2  C   UNL     1     -40.552 -52.506  12.718  1.00  0.00     0.114 A 
HETATM    3  C   UNL     1     -41.709 -53.240  12.843  1.00  0.00     0.068 A 
HETATM    4  C   UNL     1     -42.736 -52.417  12.332  1.00  0.00     0.117 A 
HETATM    5  N   UNL     1     -42.259 -51.236  11.938  1.00  0.00    -0.283 N 
ATOM      6  HN  UNL     1     -42.782 -50.441  11.570  1.00  0.00     0.188 HD
ENDROOT
BRANCH   1   7
HETATM    7  C   UNL     1     -40.058 -50.247  11.713  1.00  0.00     0.250 C 
BRANCH   7   8
HETATM    8  C   UNL     1     -40.685 -48.876  11.883  1.00  0.00     0.237 C 
HETATM    9  N   UNL     1     -40.450 -47.971  10.871  1.00  0.00    -0.360 N 
HETATM   10  H   UNL     1     -39.773 -48.241  10.148  1.00  0.00     0.162 HD
HETATM   11  O   UNL     1     -41.416 -48.621  12.841  1.00  0.00    -0.272 OA
BRANCH   9  12
HETATM   12  C   UNL     1     -40.936 -46.613  10.917  1.00  0.00     0.118 C 
HETATM   13  C   UNL     1     -39.850 -45.620  10.555  1.00  0.00     0.026 C 
ENDBRANCH   9  12
ENDBRANCH   7   8
ENDBRANCH   1   7
BRANCH   4  14
HETATM   14  N   UNL     1     -44.023 -52.822  12.263  1.00  0.00    -0.369 N 
HETATM   15  H   UNL     1     -44.168 -53.795  12.002  1.00  0.00     0.161 HD
BRANCH  14  16
HETATM   16  C   UNL     1     -44.978 -52.399  13.301  1.00  0.00     0.103 C 
HETATM   17  C   UNL     1     -46.262 -51.880  12.656  1.00  0.00     0.034 C 
BRANCH  16  18
HETATM   18  C   UNL     1     -45.307 -53.604  14.210  1.00  0.00     0.191 C 
BRANCH  18  19
HETATM   19  O   UNL     1     -46.082 -53.155  15.330  1.00  0.00    -0.394 OA
HETATM   20  C   UNL     1     -45.793 -53.902  16.503  1.00  0.00     0.201 C 
ENDBRANCH  18  19
ENDBRANCH  16  18
ENDBRANCH  14  16
ENDBRANCH   4  14
TORSDOF 7
ENDMDL
