MODEL 1
REMARK VINA RESULT:      -6.1      0.000      0.000
REMARK  4 active torsions:
REMARK  status: ('A' for Active; 'I' for Inactive)
REMARK    1  A    between atoms: C_2  and  C_3 
REMARK       I    between atoms: N_6  and  C_10 
REMARK       I    between atoms: C_10  and  N_12 
REMARK    2  A    between atoms: N_12  and  C_13 
REMARK    3  A    between atoms: C_13  and  C_14 
REMARK    4  A    between atoms: C_14  and  C_17 
ROOT
HETATM    1  C   UNL     1     -38.600 -51.291  13.265  1.00  0.00     0.073 C 
HETATM    2  C   UNL     1     -37.195 -50.968  12.732  1.00  0.00     0.047 C 
HETATM    3  C   UNL     1     -39.647 -50.908  12.175  1.00  0.00     0.165 C 
HETATM    4  N   UNL     1     -40.945 -51.524  12.457  1.00  0.00    -0.329 N 
HETATM    5  C   UNL     1     -40.855 -52.977  12.600  1.00  0.00     0.153 C 
HETATM    6  C   UNL     1     -39.866 -53.316  13.715  1.00  0.00     0.189 C 
HETATM    7  O   UNL     1     -38.581 -52.719  13.499  1.00  0.00    -0.377 OA
HETATM    8  C   UNL     1     -42.088 -50.745  12.535  1.00  0.00     0.318 C 
HETATM    9  O   UNL     1     -42.103 -49.546  12.287  1.00  0.00    -0.247 OA
HETATM   10  N   UNL     1     -43.207 -51.432  12.933  1.00  0.00    -0.342 N 
HETATM   11  H   UNL     1     -42.995 -52.120  13.632  1.00  0.00     0.164 HD
ENDROOT
BRANCH  10  12
HETATM   12  C   UNL     1     -44.495 -50.765  13.105  1.00  0.00     0.138 C 
BRANCH  12  13
HETATM   13  C   UNL     1     -45.630 -51.732  13.565  1.00  0.00    -0.004 C 
HETATM   14  C   UNL     1     -46.819 -51.637  12.579  1.00  0.00     0.021 C 
HETATM   15  C   UNL     1     -45.135 -53.201  13.500  1.00  0.00     0.021 C 
BRANCH  13  16
HETATM   16  C   UNL     1     -46.053 -51.360  15.003  1.00  0.00    -0.046 A 
HETATM   17  C   UNL     1     -45.168 -50.748  15.902  1.00  0.00     0.025 A 
HETATM   18  C   UNL     1     -45.609 -50.400  17.172  1.00  0.00     0.088 A 
HETATM   19  N   UNL     1     -46.858 -50.623  17.625  1.00  0.00    -0.375 N 
HETATM   20  C   UNL     1     -47.697 -51.237  16.769  1.00  0.00     0.088 A 
ATOM     21  HN  UNL     1     -47.151 -50.344  18.561  1.00  0.00     0.164 HD
HETATM   22  C   UNL     1     -47.347 -51.623  15.481  1.00  0.00     0.025 A 
ENDBRANCH  13  16
ENDBRANCH  12  13
ENDBRANCH  10  12
BRANCH   1  23
HETATM   23  C   UNL     1     -38.892 -50.490  14.559  1.00  0.00     0.035 C 
HETATM   24  C   UNL     1     -39.103 -48.992  14.380  1.00  0.00     0.008 C 
ENDBRANCH   1  23
TORSDOF 4
ENDMDL
MODEL 2
REMARK VINA RESULT:      -5.9      2.860      6.895
REMARK  4 active torsions:
REMARK  status: ('A' for Active; 'I' for Inactive)
REMARK    1  A    between atoms: C_2  and  C_3 
REMARK       I    between atoms: N_6  and  C_10 
REMARK       I    between atoms: C_10  and  N_12 
REMARK    2  A    between atoms: N_12  and  C_13 
REMARK    3  A    between atoms: C_13  and  C_14 
REMARK    4  A    between atoms: C_14  and  C_17 
ROOT
HETATM    1  C   UNL     1     -45.522 -53.565  14.019  1.00  0.00     0.073 C 
HETATM    2  C   UNL     1     -46.500 -54.494  14.756  1.00  0.00     0.047 C 
HETATM    3  C   UNL     1     -44.385 -53.157  15.004  1.00  0.00     0.165 C 
HETATM    4  N   UNL     1     -43.244 -52.592  14.280  1.00  0.00    -0.329 N 
HETATM    5  C   UNL     1     -42.734 -53.496  13.248  1.00  0.00     0.153 C 
HETATM    6  C   UNL     1     -43.858 -53.831  12.267  1.00  0.00     0.189 C 
HETATM    7  O   UNL     1     -45.012 -54.367  12.928  1.00  0.00    -0.377 OA
HETATM    8  C   UNL     1     -42.746 -51.345  14.618  1.00  0.00     0.318 C 
HETATM    9  O   UNL     1     -43.151 -50.696  15.574  1.00  0.00    -0.247 OA
HETATM   10  N   UNL     1     -41.764 -50.887  13.776  1.00  0.00    -0.342 N 
HETATM   11  H   UNL     1     -41.944 -51.136  12.821  1.00  0.00     0.164 HD
ENDROOT
BRANCH  10  12
HETATM   12  C   UNL     1     -41.149 -49.575  13.959  1.00  0.00     0.138 C 
BRANCH  12  13
HETATM   13  C   UNL     1     -40.018 -49.279  12.926  1.00  0.00    -0.004 C 
HETATM   14  C   UNL     1     -38.778 -48.718  13.665  1.00  0.00     0.021 C 
HETATM   15  C   UNL     1     -39.555 -50.598  12.252  1.00  0.00     0.021 C 
BRANCH  13  16
HETATM   16  C   UNL     1     -40.549 -48.284  11.871  1.00  0.00    -0.046 A 
HETATM   17  C   UNL     1     -41.636 -48.593  11.041  1.00  0.00     0.025 A 
HETATM   18  C   UNL     1     -42.099 -47.648  10.134  1.00  0.00     0.088 A 
HETATM   19  N   UNL     1     -41.559 -46.424   9.978  1.00  0.00    -0.375 N 
HETATM   20  C   UNL     1     -40.498 -46.141  10.757  1.00  0.00     0.088 A 
ATOM     21  HN  UNL     1     -41.933 -45.750   9.309  1.00  0.00     0.164 HD
HETATM   22  C   UNL     1     -39.964 -47.020  11.691  1.00  0.00     0.025 A 
ENDBRANCH  13  16
ENDBRANCH  12  13
ENDBRANCH  10  12
BRANCH   1  23
HETATM   23  C   UNL     1     -46.249 -52.292  13.518  1.00  0.00     0.035 C 
HETATM   24  C   UNL     1     -46.752 -51.345  14.601  1.00  0.00     0.008 C 
ENDBRANCH   1  23
TORSDOF 4
ENDMDL
MODEL 3
REMARK VINA RESULT:      -5.8      2.699      4.018
REMARK  4 active torsions:
REMARK  status: ('A' for Active; 'I' for Inactive)
REMARK    1  A    between atoms: C_2  and  C_3 
REMARK       I    between atoms: N_6  and  C_10 
REMARK       I    between atoms: C_10  and  N_12 
REMARK    2  A    between atoms: N_12  and  C_13 
REMARK    3  A    between atoms: C_13  and  C_14 
REMARK    4  A    between atoms: C_14  and  C_17 
ROOT
HETATM    1  C   UNL     1     -41.398 -46.335  11.243  1.00  0.00     0.073 C 
HETATM    2  C   UNL     1     -40.965 -44.864  11.363  1.00  0.00     0.047 C 
HETATM    3  C   UNL     1     -42.392 -46.657  12.400  1.00  0.00     0.165 C 
HETATM    4  N   UNL     1     -43.119 -47.900  12.133  1.00  0.00    -0.329 N 
HETATM    5  C   UNL     1     -43.814 -47.875  10.846  1.00  0.00     0.153 C 
HETATM    6  C   UNL     1     -42.803 -47.615   9.729  1.00  0.00     0.189 C 
HETATM    7  O   UNL     1     -42.046 -46.418   9.952  1.00  0.00    -0.377 OA
HETATM    8  C   UNL     1     -43.121 -48.924  13.065  1.00  0.00     0.318 C 
HETATM    9  O   UNL     1     -42.612 -48.827  14.174  1.00  0.00    -0.247 OA
HETATM   10  N   UNL     1     -43.730 -50.075  12.630  1.00  0.00    -0.342 N 
HETATM   11  H   UNL     1     -43.548 -50.251  11.659  1.00  0.00     0.164 HD
ENDROOT
BRANCH  10  12
HETATM   12  C   UNL     1     -43.794 -51.271  13.466  1.00  0.00     0.138 C 
BRANCH  12  13
HETATM   13  C   UNL     1     -45.243 -51.828  13.628  1.00  0.00    -0.004 C 
HETATM   14  C   UNL     1     -46.121 -51.329  12.456  1.00  0.00     0.021 C 
HETATM   15  C   UNL     1     -45.230 -53.377  13.527  1.00  0.00     0.021 C 
BRANCH  13  16
HETATM   16  C   UNL     1     -45.805 -51.374  14.993  1.00  0.00    -0.046 A 
HETATM   17  C   UNL     1     -47.142 -51.595  15.354  1.00  0.00     0.025 A 
HETATM   18  C   UNL     1     -47.591 -51.201  16.608  1.00  0.00     0.088 A 
HETATM   19  N   UNL     1     -46.817 -50.593  17.529  1.00  0.00    -0.375 N 
HETATM   20  C   UNL     1     -45.542 -50.357  17.168  1.00  0.00     0.088 A 
ATOM     21  HN  UNL     1     -47.177 -50.327  18.446  1.00  0.00     0.164 HD
HETATM   22  C   UNL     1     -45.004 -50.714  15.938  1.00  0.00     0.025 A 
ENDBRANCH  13  16
ENDBRANCH  12  13
ENDBRANCH  10  12
BRANCH   1  23
HETATM   23  C   UNL     1     -40.171 -47.276  11.344  1.00  0.00     0.035 C 
HETATM   24  C   UNL     1     -39.563 -47.429  12.732  1.00  0.00     0.008 C 
ENDBRANCH   1  23
TORSDOF 4
ENDMDL
MODEL 4
REMARK VINA RESULT:      -5.8      4.763      7.322
REMARK  4 active torsions:
REMARK  status: ('A' for Active; 'I' for Inactive)
REMARK    1  A    between atoms: C_2  and  C_3 
REMARK       I    between atoms: N_6  and  C_10 
REMARK       I    between atoms: C_10  and  N_12 
REMARK    2  A    between atoms: N_12  and  C_13 
REMARK    3  A    between atoms: C_13  and  C_14 
REMARK    4  A    between atoms: C_14  and  C_17 
ROOT
HETATM    1  C   UNL     1     -42.135 -44.082  11.464  1.00  0.00     0.073 C 
HETATM    2  C   UNL     1     -43.099 -42.958  11.050  1.00  0.00     0.047 C 
HETATM    3  C   UNL     1     -42.291 -45.266  10.462  1.00  0.00     0.165 C 
HETATM    4  N   UNL     1     -41.164 -46.194  10.569  1.00  0.00    -0.329 N 
HETATM    5  C   UNL     1     -39.874 -45.529  10.386  1.00  0.00     0.153 C 
HETATM    6  C   UNL     1     -39.728 -44.412  11.420  1.00  0.00     0.189 C 
HETATM    7  O   UNL     1     -40.820 -43.485  11.374  1.00  0.00    -0.377 OA
HETATM    8  C   UNL     1     -41.385 -47.543  10.792  1.00  0.00     0.318 C 
HETATM    9  O   UNL     1     -42.500 -48.047  10.818  1.00  0.00    -0.247 OA
HETATM   10  N   UNL     1     -40.239 -48.271  11.000  1.00  0.00    -0.342 N 
HETATM   11  H   UNL     1     -39.561 -47.757  11.532  1.00  0.00     0.164 HD
ENDROOT
BRANCH  10  12
HETATM   12  C   UNL     1     -40.283 -49.702  11.285  1.00  0.00     0.138 C 
BRANCH  12  13
HETATM   13  C   UNL     1     -39.298 -50.132  12.416  1.00  0.00    -0.004 C 
HETATM   14  C   UNL     1     -37.843 -50.045  11.893  1.00  0.00     0.021 C 
HETATM   15  C   UNL     1     -39.387 -49.138  13.604  1.00  0.00     0.021 C 
BRANCH  13  16
HETATM   16  C   UNL     1     -39.652 -51.564  12.873  1.00  0.00    -0.046 A 
HETATM   17  C   UNL     1     -40.725 -52.275  12.319  1.00  0.00     0.025 A 
HETATM   18  C   UNL     1     -40.980 -53.575  12.738  1.00  0.00     0.088 A 
HETATM   19  N   UNL     1     -40.257 -54.220  13.675  1.00  0.00    -0.375 N 
HETATM   20  C   UNL     1     -39.244 -53.524  14.225  1.00  0.00     0.088 A 
ATOM     21  HN  UNL     1     -40.465 -55.180  13.950  1.00  0.00     0.164 HD
HETATM   22  C   UNL     1     -38.915 -52.222  13.872  1.00  0.00     0.025 A 
ENDBRANCH  13  16
ENDBRANCH  12  13
ENDBRANCH  10  12
BRANCH   1  23
HETATM   23  C   UNL     1     -42.455 -44.577  12.897  1.00  0.00     0.035 C 
HETATM   24  C   UNL     1     -42.753 -43.491  13.924  1.00  0.00     0.008 C 
ENDBRANCH   1  23
TORSDOF 4
ENDMDL
MODEL 5
REMARK VINA RESULT:      -5.7      2.645      7.270
REMARK  4 active torsions:
REMARK  status: ('A' for Active; 'I' for Inactive)
REMARK    1  A    between atoms: C_2  and  C_3 
REMARK       I    between atoms: N_6  and  C_10 
REMARK       I    between atoms: C_10  and  N_12 
REMARK    2  A    between atoms: N_12  and  C_13 
REMARK    3  A    between atoms: C_13  and  C_14 
REMARK    4  A    between atoms: C_14  and  C_17 
ROOT
HETATM    1  C   UNL     1     -44.256 -53.760  14.123  1.00  0.00     0.073 C 
HETATM    2  C   UNL     1     -45.361 -54.792  13.842  1.00  0.00     0.047 C 
HETATM    3  C   UNL     1     -43.293 -53.716  12.898  1.00  0.00     0.165 C 
HETATM    4  N   UNL     1     -42.456 -52.515  12.933  1.00  0.00    -0.329 N 
HETATM    5  C   UNL     1     -43.245 -51.286  13.014  1.00  0.00     0.153 C 
HETATM    6  C   UNL     1     -44.135 -51.336  14.256  1.00  0.00     0.189 C 
HETATM    7  O   UNL     1     -44.962 -52.506  14.283  1.00  0.00    -0.377 OA
HETATM    8  C   UNL     1     -41.077 -52.620  12.864  1.00  0.00     0.318 C 
HETATM    9  O   UNL     1     -40.490 -53.679  12.679  1.00  0.00    -0.247 OA
HETATM   10  N   UNL     1     -40.415 -51.429  13.039  1.00  0.00    -0.342 N 
HETATM   11  H   UNL     1     -40.862 -50.851  13.727  1.00  0.00     0.164 HD
ENDROOT
BRANCH  10  12
HETATM   12  C   UNL     1     -38.957 -51.356  13.033  1.00  0.00     0.138 C 
BRANCH  12  13
HETATM   13  C   UNL     1     -38.417 -49.928  12.708  1.00  0.00    -0.004 C 
HETATM   14  C   UNL     1     -37.502 -49.995  11.462  1.00  0.00     0.021 C 
HETATM   15  C   UNL     1     -39.593 -48.990  12.327  1.00  0.00     0.021 C 
BRANCH  13  16
HETATM   16  C   UNL     1     -37.661 -49.385  13.940  1.00  0.00    -0.046 A 
HETATM   17  C   UNL     1     -37.038 -50.238  14.863  1.00  0.00     0.025 A 
HETATM   18  C   UNL     1     -36.338 -49.698  15.935  1.00  0.00     0.088 A 
HETATM   19  N   UNL     1     -36.217 -48.376  16.168  1.00  0.00    -0.375 N 
HETATM   20  C   UNL     1     -36.840 -47.562  15.295  1.00  0.00     0.088 A 
ATOM     21  HN  UNL     1     -35.685 -48.014  16.959  1.00  0.00     0.164 HD
HETATM   22  C   UNL     1     -37.563 -48.008  14.196  1.00  0.00     0.025 A 
ENDBRANCH  13  16
ENDBRANCH  12  13
ENDBRANCH  10  12
BRANCH   1  23
HETATM   23  C   UNL     1     -43.456 -54.146  15.392  1.00  0.00     0.035 C 
HETATM   24  C   UNL     1     -42.567 -55.377  15.267  1.00  0.00     0.008 C 
ENDBRANCH   1  23
TORSDOF 4
ENDMDL
MODEL 6
REMARK VINA RESULT:      -5.6      2.442      7.026
REMARK  4 active torsions:
REMARK  status: ('A' for Active; 'I' for Inactive)
REMARK    1  A    between atoms: C_2  and  C_3 
REMARK       I    between atoms: N_6  and  C_10 
REMARK       I    between atoms: C_10  and  N_12 
REMARK    2  A    between atoms: N_12  and  C_13 
REMARK    3  A    between atoms: C_13  and  C_14 
REMARK    4  A    between atoms: C_14  and  C_17 
ROOT
HETATM    1  C   UNL     1     -45.435 -52.006  14.084  1.00  0.00     0.073 C 
HETATM    2  C   UNL     1     -46.784 -51.683  14.747  1.00  0.00     0.047 C 
HETATM    3  C   UNL     1     -44.506 -50.761  14.214  1.00  0.00     0.165 C 
HETATM    4  N   UNL     1     -43.111 -51.119  13.947  1.00  0.00    -0.329 N 
HETATM    5  C   UNL     1     -42.641 -52.208  14.804  1.00  0.00     0.153 C 
HETATM    6  C   UNL     1     -43.537 -53.430  14.609  1.00  0.00     0.189 C 
HETATM    7  O   UNL     1     -44.920 -53.129  14.837  1.00  0.00    -0.377 OA
HETATM    8  C   UNL     1     -42.382 -50.432  12.991  1.00  0.00     0.318 C 
HETATM    9  O   UNL     1     -42.809 -49.453  12.394  1.00  0.00    -0.247 OA
HETATM   10  N   UNL     1     -41.136 -50.957  12.754  1.00  0.00    -0.342 N 
HETATM   11  H   UNL     1     -41.139 -51.960  12.788  1.00  0.00     0.164 HD
ENDROOT
BRANCH  10  12
HETATM   12  C   UNL     1     -40.241 -50.383  11.753  1.00  0.00     0.138 C 
BRANCH  12  13
HETATM   13  C   UNL     1     -38.958 -49.746  12.372  1.00  0.00    -0.004 C 
HETATM   14  C   UNL     1     -38.628 -50.447  13.712  1.00  0.00     0.021 C 
HETATM   15  C   UNL     1     -37.739 -49.998  11.444  1.00  0.00     0.021 C 
BRANCH  13  16
HETATM   16  C   UNL     1     -39.193 -48.232  12.566  1.00  0.00    -0.046 A 
HETATM   17  C   UNL     1     -39.875 -47.459  11.615  1.00  0.00     0.025 A 
HETATM   18  C   UNL     1     -40.093 -46.108  11.854  1.00  0.00     0.088 A 
HETATM   19  N   UNL     1     -39.677 -45.461  12.960  1.00  0.00    -0.375 N 
HETATM   20  C   UNL     1     -38.997 -46.200  13.858  1.00  0.00     0.088 A 
ATOM     21  HN  UNL     1     -39.865 -44.469  13.108  1.00  0.00     0.164 HD
HETATM   22  C   UNL     1     -38.730 -47.554  13.706  1.00  0.00     0.025 A 
ENDBRANCH  13  16
ENDBRANCH  12  13
ENDBRANCH  10  12
BRANCH   1  23
HETATM   23  C   UNL     1     -45.630 -52.347  12.585  1.00  0.00     0.035 C 
HETATM   24  C   UNL     1     -46.867 -51.753  11.924  1.00  0.00     0.008 C 
ENDBRANCH   1  23
TORSDOF 4
ENDMDL
MODEL 7
REMARK VINA RESULT:      -5.6      2.817      4.606
REMARK  4 active torsions:
REMARK  status: ('A' for Active; 'I' for Inactive)
REMARK    1  A    between atoms: C_2  and  C_3 
REMARK       I    between atoms: N_6  and  C_10 
REMARK       I    between atoms: C_10  and  N_12 
REMARK    2  A    between atoms: N_12  and  C_13 
REMARK    3  A    between atoms: C_13  and  C_14 
REMARK    4  A    between atoms: C_14  and  C_17 
ROOT
HETATM    1  C   UNL     1     -40.468 -53.973  15.446  1.00  0.00     0.073 C 
HETATM    2  C   UNL     1     -39.393 -54.943  14.929  1.00  0.00     0.047 C 
HETATM    3  C   UNL     1     -41.628 -54.803  16.075  1.00  0.00     0.165 C 
HETATM    4  N   UNL     1     -42.487 -53.956  16.905  1.00  0.00    -0.329 N 
HETATM    5  C   UNL     1     -41.737 -53.247  17.942  1.00  0.00     0.153 C 
HETATM    6  C   UNL     1     -40.646 -52.398  17.288  1.00  0.00     0.189 C 
HETATM    7  O   UNL     1     -39.788 -53.176  16.445  1.00  0.00    -0.377 OA
HETATM    8  C   UNL     1     -43.853 -53.912  16.684  1.00  0.00     0.318 C 
HETATM    9  O   UNL     1     -44.426 -54.626  15.870  1.00  0.00    -0.247 OA
HETATM   10  N   UNL     1     -44.514 -52.982  17.446  1.00  0.00    -0.342 N 
HETATM   11  H   UNL     1     -43.977 -52.143  17.562  1.00  0.00     0.164 HD
ENDROOT
BRANCH  10  12
HETATM   12  C   UNL     1     -45.954 -52.772  17.320  1.00  0.00     0.138 C 
BRANCH  12  13
HETATM   13  C   UNL     1     -46.320 -51.370  16.742  1.00  0.00    -0.004 C 
HETATM   14  C   UNL     1     -47.834 -51.112  16.935  1.00  0.00     0.021 C 
HETATM   15  C   UNL     1     -45.590 -50.258  17.541  1.00  0.00     0.021 C 
BRANCH  13  16
HETATM   16  C   UNL     1     -45.922 -51.322  15.251  1.00  0.00    -0.046 A 
HETATM   17  C   UNL     1     -46.789 -51.755  14.237  1.00  0.00     0.025 A 
HETATM   18  C   UNL     1     -46.398 -51.656  12.908  1.00  0.00     0.088 A 
HETATM   19  N   UNL     1     -45.207 -51.171  12.506  1.00  0.00    -0.375 N 
HETATM   20  C   UNL     1     -44.366 -50.782  13.483  1.00  0.00     0.088 A 
ATOM     21  HN  UNL     1     -44.957 -51.102  11.519  1.00  0.00     0.164 HD
HETATM   22  C   UNL     1     -44.668 -50.844  14.838  1.00  0.00     0.025 A 
ENDBRANCH  13  16
ENDBRANCH  12  13
ENDBRANCH  10  12
BRANCH   1  23
HETATM   23  C   UNL     1     -41.026 -53.107  14.288  1.00  0.00     0.035 C 
HETATM   24  C   UNL     1     -41.948 -53.822  13.309  1.00  0.00     0.008 C 
ENDBRANCH   1  23
TORSDOF 4
ENDMDL
MODEL 8
REMARK VINA RESULT:      -5.4      2.901      6.215
REMARK  4 active torsions:
REMARK  status: ('A' for Active; 'I' for Inactive)
REMARK    1  A    between atoms: C_2  and  C_3 
REMARK       I    between atoms: N_6  and  C_10 
REMARK       I    between atoms: C_10  and  N_12 
REMARK    2  A    between atoms: N_12  and  C_13 
REMARK    3  A    between atoms: C_13  and  C_14 
REMARK    4  A    between atoms: C_14  and  C_17 
ROOT
HETATM    1  C   UNL     1     -42.665 -54.098  14.903  1.00  0.00     0.073 C 
HETATM    2  C   UNL     1     -42.593 -55.511  15.504  1.00  0.00     0.047 C 
HETATM    3  C   UNL     1     -41.851 -54.080  13.573  1.00  0.00     0.165 C 
HETATM    4  N   UNL     1     -42.182 -52.899  12.774  1.00  0.00    -0.329 N 
HETATM    5  C   UNL     1     -43.616 -52.792  12.503  1.00  0.00     0.153 C 
HETATM    6  C   UNL     1     -44.380 -52.754  13.826  1.00  0.00     0.189 C 
HETATM    7  O   UNL     1     -44.076 -53.879  14.660  1.00  0.00    -0.377 OA
HETATM    8  C   UNL     1     -41.183 -52.045  12.338  1.00  0.00     0.318 C 
HETATM    9  O   UNL     1     -39.990 -52.264  12.505  1.00  0.00    -0.247 OA
HETATM   10  N   UNL     1     -41.647 -50.914  11.712  1.00  0.00    -0.342 N 
HETATM   11  H   UNL     1     -42.482 -50.564  12.144  1.00  0.00     0.164 HD
ENDROOT
BRANCH  10  12
HETATM   12  C   UNL     1     -40.736 -49.884  11.219  1.00  0.00     0.138 C 
BRANCH  12  13
HETATM   13  C   UNL     1     -41.003 -48.480  11.845  1.00  0.00    -0.004 C 
HETATM   14  C   UNL     1     -41.237 -47.448  10.715  1.00  0.00     0.021 C 
HETATM   15  C   UNL     1     -42.313 -48.509  12.677  1.00  0.00     0.021 C 
BRANCH  13  16
HETATM   16  C   UNL     1     -39.801 -48.089  12.732  1.00  0.00    -0.046 A 
HETATM   17  C   UNL     1     -39.700 -46.823  13.328  1.00  0.00     0.025 A 
HETATM   18  C   UNL     1     -38.617 -46.533  14.148  1.00  0.00     0.088 A 
HETATM   19  N   UNL     1     -37.618 -47.398  14.412  1.00  0.00    -0.375 N 
HETATM   20  C   UNL     1     -37.704 -48.602  13.815  1.00  0.00     0.088 A 
ATOM     21  HN  UNL     1     -36.843 -47.155  15.029  1.00  0.00     0.164 HD
HETATM   22  C   UNL     1     -38.747 -48.982  12.981  1.00  0.00     0.025 A 
ENDBRANCH  13  16
ENDBRANCH  12  13
ENDBRANCH  10  12
BRANCH   1  23
HETATM   23  C   UNL     1     -42.072 -53.055  15.883  1.00  0.00     0.035 C 
HETATM   24  C   UNL     1     -40.557 -53.083  16.045  1.00  0.00     0.008 C 
ENDBRANCH   1  23
TORSDOF 4
ENDMDL
MODEL 9
REMARK VINA RESULT:      -5.4      2.531      7.232
REMARK  4 active torsions:
REMARK  status: ('A' for Active; 'I' for Inactive)
REMARK    1  A    between atoms: C_2  and  C_3 
REMARK       I    between atoms: N_6  and  C_10 
REMARK       I    between atoms: C_10  and  N_12 
REMARK    2  A    between atoms: N_12  and  C_13 
REMARK    3  A    between atoms: C_13  and  C_14 
REMARK    4  A    between atoms: C_14  and  C_17 
ROOT
HETATM    1  C   UNL     1     -45.560 -53.590  14.533  1.00  0.00     0.073 C 
HETATM    2  C   UNL     1     -47.074 -53.741  14.754  1.00  0.00     0.047 C 
HETATM    3  C   UNL     1     -44.985 -52.654  15.640  1.00  0.00     0.165 C 
HETATM    4  N   UNL     1     -43.527 -52.766  15.714  1.00  0.00    -0.329 N 
HETATM    5  C   UNL     1     -43.083 -54.144  15.921  1.00  0.00     0.153 C 
HETATM    6  C   UNL     1     -43.614 -55.024  14.789  1.00  0.00     0.189 C 
HETATM    7  O   UNL     1     -45.039 -54.934  14.657  1.00  0.00    -0.377 OA
HETATM    8  C   UNL     1     -42.732 -51.636  15.619  1.00  0.00     0.318 C 
HETATM    9  O   UNL     1     -43.182 -50.499  15.564  1.00  0.00    -0.247 OA
HETATM   10  N   UNL     1     -41.386 -51.902  15.574  1.00  0.00    -0.342 N 
HETATM   11  H   UNL     1     -41.185 -52.728  15.042  1.00  0.00     0.164 HD
ENDROOT
BRANCH  10  12
HETATM   12  C   UNL     1     -40.399 -50.834  15.439  1.00  0.00     0.138 C 
BRANCH  12  13
HETATM   13  C   UNL     1     -39.032 -51.331  14.874  1.00  0.00    -0.004 C 
HETATM   14  C   UNL     1     -37.889 -50.872  15.812  1.00  0.00     0.021 C 
HETATM   15  C   UNL     1     -38.990 -52.882  14.873  1.00  0.00     0.021 C 
BRANCH  13  16
HETATM   16  C   UNL     1     -38.848 -50.778  13.444  1.00  0.00    -0.046 A 
HETATM   17  C   UNL     1     -37.586 -50.688  12.840  1.00  0.00     0.025 A 
HETATM   18  C   UNL     1     -37.478 -50.219  11.537  1.00  0.00     0.088 A 
HETATM   19  N   UNL     1     -38.526 -49.820  10.790  1.00  0.00    -0.375 N 
HETATM   20  C   UNL     1     -39.733 -49.881  11.383  1.00  0.00     0.088 A 
ATOM     21  HN  UNL     1     -38.411 -49.492   9.831  1.00  0.00     0.164 HD
HETATM   22  C   UNL     1     -39.939 -50.335  12.679  1.00  0.00     0.025 A 
ENDBRANCH  13  16
ENDBRANCH  12  13
ENDBRANCH  10  12
BRANCH   1  23
HETATM   23  C   UNL     1     -45.269 -52.976  13.140  1.00  0.00     0.035 C 
HETATM   24  C   UNL     1     -46.310 -51.994  12.616  1.00  0.00     0.008 C 
ENDBRANCH   1  23
TORSDOF 4
ENDMDL
