MODEL 1
REMARK VINA RESULT:      -5.8      0.000      0.000
REMARK  5 active torsions:
REMARK  status: ('A' for Active; 'I' for Inactive)
REMARK    1  A    between atoms: C_2  and  C_3 
REMARK    2  A    between atoms: C_2  and  N_15 
REMARK    3  A    between atoms: C_3  and  N_4 
REMARK       I    between atoms: N_4  and  C_5 
REMARK    4  A    between atoms: C_5  and  C_7 
REMARK    5  A    between atoms: C_7  and  N_8 
ROOT
HETATM    1  N   UNL     1     -42.804 -52.866  12.113  1.00  0.00    -0.358 N 
HETATM    2  C   UNL     1     -42.959 -53.859  13.056  1.00  0.00     0.235 C 
HETATM    3  O   UNL     1     -42.012 -54.328  13.688  1.00  0.00    -0.272 OA
HETATM    4  H   UNL     1     -43.592 -52.526  11.571  1.00  0.00     0.162 HD
ENDROOT
BRANCH   1   5
HETATM    5  C   UNL     1     -41.508 -52.277  11.846  1.00  0.00     0.158 C 
BRANCH   5   6
HETATM    6  C   UNL     1     -41.421 -50.791  12.280  1.00  0.00     0.236 C 
HETATM    7  C   UNL     1     -42.811 -50.345  12.750  1.00  0.00     0.044 C 
BRANCH   6   8
HETATM    8  N   UNL     1     -40.707 -49.929  11.309  1.00  0.00     0.098 N 
HETATM    9  C   UNL     1     -39.266 -49.754  11.581  1.00  0.00     0.299 C 
HETATM   10  C   UNL     1     -38.929 -48.601  12.545  1.00  0.00     0.198 C 
HETATM   11  O   UNL     1     -39.495 -47.362  12.102  1.00  0.00    -0.388 OA
HETATM   12  C   UNL     1     -40.914 -47.471  11.938  1.00  0.00     0.198 C 
HETATM   13  C   UNL     1     -41.292 -48.615  10.984  1.00  0.00     0.299 C 
ENDBRANCH   6   8
ENDBRANCH   5   6
ENDBRANCH   1   5
BRANCH   2  14
HETATM   14  C   UNL     1     -44.395 -54.339  13.265  1.00  0.00     0.234 C 
BRANCH  14  15
HETATM   15  N   UNL     1     -45.208 -53.304  13.896  1.00  0.00    -0.316 N 
HETATM   16  C   UNL     1     -45.183 -53.150  15.273  1.00  0.00     0.095 A 
HETATM   17  C   UNL     1     -45.935 -52.222  15.878  1.00  0.00     0.017 A 
HETATM   18  C   UNL     1     -46.799 -51.373  15.096  1.00  0.00     0.007 A 
HETATM   19  C   UNL     1     -46.857 -51.510  13.764  1.00  0.00     0.074 A 
HETATM   20  C   UNL     1     -46.037 -52.543  13.077  1.00  0.00     0.247 A 
HETATM   21  O   UNL     1     -46.107 -52.658  11.858  1.00  0.00    -0.268 OA
ENDBRANCH  14  15
ENDBRANCH   2  14
TORSDOF 5
ENDMDL
MODEL 2
REMARK VINA RESULT:      -5.6      2.350      6.954
REMARK  5 active torsions:
REMARK  status: ('A' for Active; 'I' for Inactive)
REMARK    1  A    between atoms: C_2  and  C_3 
REMARK    2  A    between atoms: C_2  and  N_15 
REMARK    3  A    between atoms: C_3  and  N_4 
REMARK       I    between atoms: N_4  and  C_5 
REMARK    4  A    between atoms: C_5  and  C_7 
REMARK    5  A    between atoms: C_7  and  N_8 
ROOT
HETATM    1  N   UNL     1     -40.910 -53.049  13.969  1.00  0.00    -0.358 N 
HETATM    2  C   UNL     1     -39.539 -53.190  13.960  1.00  0.00     0.235 C 
HETATM    3  O   UNL     1     -38.978 -54.193  13.518  1.00  0.00    -0.272 OA
HETATM    4  H   UNL     1     -41.354 -52.234  14.379  1.00  0.00     0.162 HD
ENDROOT
BRANCH   1   5
HETATM    5  C   UNL     1     -41.775 -54.066  13.405  1.00  0.00     0.158 C 
BRANCH   5   6
HETATM    6  C   UNL     1     -43.098 -54.236  14.197  1.00  0.00     0.236 C 
HETATM    7  C   UNL     1     -42.876 -55.298  15.281  1.00  0.00     0.044 C 
BRANCH   6   8
HETATM    8  N   UNL     1     -44.295 -54.366  13.332  1.00  0.00     0.098 N 
HETATM    9  C   UNL     1     -44.657 -53.141  12.591  1.00  0.00     0.299 C 
HETATM   10  C   UNL     1     -45.568 -52.168  13.362  1.00  0.00     0.198 C 
HETATM   11  O   UNL     1     -46.753 -52.820  13.835  1.00  0.00    -0.388 OA
HETATM   12  C   UNL     1     -46.429 -53.950  14.654  1.00  0.00     0.198 C 
HETATM   13  C   UNL     1     -45.517 -54.944  13.919  1.00  0.00     0.299 C 
ENDBRANCH   6   8
ENDBRANCH   5   6
ENDBRANCH   1   5
BRANCH   2  14
HETATM   14  C   UNL     1     -38.760 -52.009  14.539  1.00  0.00     0.234 C 
BRANCH  14  15
HETATM   15  N   UNL     1     -38.756 -50.880  13.614  1.00  0.00    -0.316 N 
HETATM   16  C   UNL     1     -39.737 -49.906  13.707  1.00  0.00     0.095 A 
HETATM   17  C   UNL     1     -39.767 -48.873  12.856  1.00  0.00     0.017 A 
HETATM   18  C   UNL     1     -38.775 -48.768  11.816  1.00  0.00     0.007 A 
HETATM   19  C   UNL     1     -37.824 -49.703  11.690  1.00  0.00     0.074 A 
HETATM   20  C   UNL     1     -37.782 -50.863  12.619  1.00  0.00     0.247 A 
HETATM   21  O   UNL     1     -36.907 -51.714  12.487  1.00  0.00    -0.268 OA
ENDBRANCH  14  15
ENDBRANCH   2  14
TORSDOF 5
ENDMDL
MODEL 3
REMARK VINA RESULT:      -5.5      1.571      2.010
REMARK  5 active torsions:
REMARK  status: ('A' for Active; 'I' for Inactive)
REMARK    1  A    between atoms: C_2  and  C_3 
REMARK    2  A    between atoms: C_2  and  N_15 
REMARK    3  A    between atoms: C_3  and  N_4 
REMARK       I    between atoms: N_4  and  C_5 
REMARK    4  A    between atoms: C_5  and  C_7 
REMARK    5  A    between atoms: C_7  and  N_8 
ROOT
HETATM    1  N   UNL     1     -42.128 -52.289  11.763  1.00  0.00    -0.358 N 
HETATM    2  C   UNL     1     -42.801 -53.021  12.717  1.00  0.00     0.235 C 
HETATM    3  O   UNL     1     -42.326 -53.261  13.827  1.00  0.00    -0.272 OA
HETATM    4  H   UNL     1     -42.520 -52.142  10.838  1.00  0.00     0.162 HD
ENDROOT
BRANCH   1   5
HETATM    5  C   UNL     1     -40.829 -51.711  12.036  1.00  0.00     0.158 C 
BRANCH   5   6
HETATM    6  C   UNL     1     -40.904 -50.205  12.398  1.00  0.00     0.236 C 
HETATM    7  C   UNL     1     -40.789 -50.070  13.921  1.00  0.00     0.044 C 
BRANCH   6   8
HETATM    8  N   UNL     1     -42.008 -49.485  11.719  1.00  0.00     0.098 N 
HETATM    9  C   UNL     1     -41.579 -48.575  10.639  1.00  0.00     0.299 C 
HETATM   10  C   UNL     1     -41.209 -47.154  11.103  1.00  0.00     0.198 C 
HETATM   11  O   UNL     1     -42.270 -46.553  11.854  1.00  0.00    -0.388 OA
HETATM   12  C   UNL     1     -42.631 -47.363  12.980  1.00  0.00     0.198 C 
HETATM   13  C   UNL     1     -43.005 -48.792  12.556  1.00  0.00     0.299 C 
ENDBRANCH   6   8
ENDBRANCH   5   6
ENDBRANCH   1   5
BRANCH   2  14
HETATM   14  C   UNL     1     -44.186 -53.518  12.299  1.00  0.00     0.234 C 
BRANCH  14  15
HETATM   15  N   UNL     1     -45.202 -53.108  13.262  1.00  0.00    -0.316 N 
HETATM   16  C   UNL     1     -45.538 -51.769  13.385  1.00  0.00     0.095 A 
HETATM   17  C   UNL     1     -46.452 -51.366  14.276  1.00  0.00     0.017 A 
HETATM   18  C   UNL     1     -47.094 -52.328  15.136  1.00  0.00     0.007 A 
HETATM   19  C   UNL     1     -46.777 -53.627  15.053  1.00  0.00     0.074 A 
HETATM   20  C   UNL     1     -45.757 -54.092  14.076  1.00  0.00     0.247 A 
HETATM   21  O   UNL     1     -45.475 -55.284  14.016  1.00  0.00    -0.268 OA
ENDBRANCH  14  15
ENDBRANCH   2  14
TORSDOF 5
ENDMDL
MODEL 4
REMARK VINA RESULT:      -5.5      1.636      2.005
REMARK  5 active torsions:
REMARK  status: ('A' for Active; 'I' for Inactive)
REMARK    1  A    between atoms: C_2  and  C_3 
REMARK    2  A    between atoms: C_2  and  N_15 
REMARK    3  A    between atoms: C_3  and  N_4 
REMARK       I    between atoms: N_4  and  C_5 
REMARK    4  A    between atoms: C_5  and  C_7 
REMARK    5  A    between atoms: C_7  and  N_8 
ROOT
HETATM    1  N   UNL     1     -42.020 -53.025  12.200  1.00  0.00    -0.358 N 
HETATM    2  C   UNL     1     -42.801 -53.807  13.022  1.00  0.00     0.235 C 
HETATM    3  O   UNL     1     -42.378 -54.298  14.069  1.00  0.00    -0.272 OA
HETATM    4  H   UNL     1     -42.376 -52.668  11.318  1.00  0.00     0.162 HD
ENDROOT
BRANCH   1   5
HETATM    5  C   UNL     1     -40.655 -52.691  12.551  1.00  0.00     0.158 C 
BRANCH   5   6
HETATM    6  C   UNL     1     -40.433 -51.165  12.720  1.00  0.00     0.236 C 
HETATM    7  C   UNL     1     -41.638 -50.435  12.116  1.00  0.00     0.044 C 
BRANCH   6   8
HETATM    8  N   UNL     1     -39.078 -50.715  12.322  1.00  0.00     0.098 N 
HETATM    9  C   UNL     1     -37.996 -51.133  13.237  1.00  0.00     0.299 C 
HETATM   10  C   UNL     1     -37.748 -50.177  14.418  1.00  0.00     0.198 C 
HETATM   11  O   UNL     1     -37.517 -48.837  13.971  1.00  0.00    -0.388 OA
HETATM   12  C   UNL     1     -38.608 -48.362  13.173  1.00  0.00     0.198 C 
HETATM   13  C   UNL     1     -38.890 -49.293  11.983  1.00  0.00     0.299 C 
ENDBRANCH   6   8
ENDBRANCH   5   6
ENDBRANCH   1   5
BRANCH   2  14
HETATM   14  C   UNL     1     -44.236 -54.025  12.543  1.00  0.00     0.234 C 
BRANCH  14  15
HETATM   15  N   UNL     1     -45.184 -53.291  13.375  1.00  0.00    -0.316 N 
HETATM   16  C   UNL     1     -45.248 -51.909  13.295  1.00  0.00     0.095 A 
HETATM   17  C   UNL     1     -46.094 -51.212  14.065  1.00  0.00     0.017 A 
HETATM   18  C   UNL     1     -46.946 -51.897  15.003  1.00  0.00     0.007 A 
HETATM   19  C   UNL     1     -46.894 -53.231  15.115  1.00  0.00     0.074 A 
HETATM   20  C   UNL     1     -45.953 -54.021  14.277  1.00  0.00     0.247 A 
HETATM   21  O   UNL     1     -45.915 -55.241  14.396  1.00  0.00    -0.268 OA
ENDBRANCH  14  15
ENDBRANCH   2  14
TORSDOF 5
ENDMDL
MODEL 5
REMARK VINA RESULT:      -5.2      2.033      2.558
REMARK  5 active torsions:
REMARK  status: ('A' for Active; 'I' for Inactive)
REMARK    1  A    between atoms: C_2  and  C_3 
REMARK    2  A    between atoms: C_2  and  N_15 
REMARK    3  A    between atoms: C_3  and  N_4 
REMARK       I    between atoms: N_4  and  C_5 
REMARK    4  A    between atoms: C_5  and  C_7 
REMARK    5  A    between atoms: C_7  and  N_8 
ROOT
HETATM    1  N   UNL     1     -42.005 -50.831  12.715  1.00  0.00    -0.358 N 
HETATM    2  C   UNL     1     -41.850 -52.200  12.719  1.00  0.00     0.235 C 
HETATM    3  O   UNL     1     -41.126 -52.788  11.916  1.00  0.00    -0.272 OA
HETATM    4  H   UNL     1     -42.643 -50.370  13.357  1.00  0.00     0.162 HD
ENDROOT
BRANCH   1   5
HETATM    5  C   UNL     1     -41.276 -49.993  11.785  1.00  0.00     0.158 C 
BRANCH   5   6
HETATM    6  C   UNL     1     -41.796 -48.532  11.756  1.00  0.00     0.236 C 
HETATM    7  C   UNL     1     -43.233 -48.522  12.291  1.00  0.00     0.044 C 
BRANCH   6   8
HETATM    8  N   UNL     1     -41.526 -47.830  10.479  1.00  0.00     0.098 N 
HETATM    9  C   UNL     1     -40.868 -46.516  10.624  1.00  0.00     0.299 C 
HETATM   10  C   UNL     1     -41.832 -45.334  10.835  1.00  0.00     0.198 C 
HETATM   11  O   UNL     1     -42.823 -45.272   9.803  1.00  0.00    -0.388 OA
HETATM   12  C   UNL     1     -43.557 -46.499   9.717  1.00  0.00     0.198 C 
HETATM   13  C   UNL     1     -42.628 -47.705   9.508  1.00  0.00     0.299 C 
ENDBRANCH   6   8
ENDBRANCH   5   6
ENDBRANCH   1   5
BRANCH   2  14
HETATM   14  C   UNL     1     -42.643 -52.941  13.796  1.00  0.00     0.234 C 
BRANCH  14  15
HETATM   15  N   UNL     1     -44.008 -52.432  13.885  1.00  0.00    -0.316 N 
HETATM   16  C   UNL     1     -44.338 -51.506  14.861  1.00  0.00     0.095 A 
HETATM   17  C   UNL     1     -45.588 -51.041  14.977  1.00  0.00     0.017 A 
HETATM   18  C   UNL     1     -46.618 -51.513  14.085  1.00  0.00     0.007 A 
HETATM   19  C   UNL     1     -46.333 -52.421  13.142  1.00  0.00     0.074 A 
HETATM   20  C   UNL     1     -44.952 -52.957  13.007  1.00  0.00     0.247 A 
HETATM   21  O   UNL     1     -44.709 -53.792  12.141  1.00  0.00    -0.268 OA
ENDBRANCH  14  15
ENDBRANCH   2  14
TORSDOF 5
ENDMDL
MODEL 6
REMARK VINA RESULT:      -5.2      4.220      5.697
REMARK  5 active torsions:
REMARK  status: ('A' for Active; 'I' for Inactive)
REMARK    1  A    between atoms: C_2  and  C_3 
REMARK    2  A    between atoms: C_2  and  N_15 
REMARK    3  A    between atoms: C_3  and  N_4 
REMARK       I    between atoms: N_4  and  C_5 
REMARK    4  A    between atoms: C_5  and  C_7 
REMARK    5  A    between atoms: C_7  and  N_8 
ROOT
HETATM    1  N   UNL     1     -42.266 -48.670  10.709  1.00  0.00    -0.358 N 
HETATM    2  C   UNL     1     -42.887 -47.448  10.851  1.00  0.00     0.235 C 
HETATM    3  O   UNL     1     -43.094 -46.933  11.949  1.00  0.00    -0.272 OA
HETATM    4  H   UNL     1     -42.146 -49.098   9.796  1.00  0.00     0.162 HD
ENDROOT
BRANCH   1   5
HETATM    5  C   UNL     1     -41.772 -49.402  11.858  1.00  0.00     0.158 C 
BRANCH   5   6
HETATM    6  C   UNL     1     -40.718 -50.475  11.480  1.00  0.00     0.236 C 
HETATM    7  C   UNL     1     -41.216 -51.835  11.979  1.00  0.00     0.044 C 
BRANCH   6   8
HETATM    8  N   UNL     1     -39.326 -50.082  11.807  1.00  0.00     0.098 N 
HETATM    9  C   UNL     1     -38.692 -50.886  12.871  1.00  0.00     0.299 C 
HETATM   10  C   UNL     1     -38.956 -50.384  14.302  1.00  0.00     0.198 C 
HETATM   11  O   UNL     1     -38.594 -49.006  14.451  1.00  0.00    -0.388 OA
HETATM   12  C   UNL     1     -39.286 -48.184  13.503  1.00  0.00     0.198 C 
HETATM   13  C   UNL     1     -39.048 -48.656  12.060  1.00  0.00     0.299 C 
ENDBRANCH   6   8
ENDBRANCH   5   6
ENDBRANCH   1   5
BRANCH   2  14
HETATM   14  C   UNL     1     -43.302 -46.774   9.543  1.00  0.00     0.234 C 
BRANCH  14  15
HETATM   15  N   UNL     1     -44.417 -47.481   8.921  1.00  0.00    -0.316 N 
HETATM   16  C   UNL     1     -45.644 -47.538   9.562  1.00  0.00     0.095 A 
HETATM   17  C   UNL     1     -46.676 -48.198   9.022  1.00  0.00     0.017 A 
HETATM   18  C   UNL     1     -46.516 -48.875   7.759  1.00  0.00     0.007 A 
HETATM   19  C   UNL     1     -45.337 -48.852   7.123  1.00  0.00     0.074 A 
HETATM   20  C   UNL     1     -44.177 -48.133   7.714  1.00  0.00     0.247 A 
HETATM   21  O   UNL     1     -43.103 -48.126   7.121  1.00  0.00    -0.268 OA
ENDBRANCH  14  15
ENDBRANCH   2  14
TORSDOF 5
ENDMDL
MODEL 7
REMARK VINA RESULT:      -5.2      2.397      3.788
REMARK  5 active torsions:
REMARK  status: ('A' for Active; 'I' for Inactive)
REMARK    1  A    between atoms: C_2  and  C_3 
REMARK    2  A    between atoms: C_2  and  N_15 
REMARK    3  A    between atoms: C_3  and  N_4 
REMARK       I    between atoms: N_4  and  C_5 
REMARK    4  A    between atoms: C_5  and  C_7 
REMARK    5  A    between atoms: C_7  and  N_8 
ROOT
HETATM    1  N   UNL     1     -40.494 -50.847  11.313  1.00  0.00    -0.358 N 
HETATM    2  C   UNL     1     -41.524 -51.418  12.027  1.00  0.00     0.235 C 
HETATM    3  O   UNL     1     -42.220 -50.777  12.815  1.00  0.00    -0.272 OA
HETATM    4  H   UNL     1     -39.902 -51.403  10.703  1.00  0.00     0.162 HD
ENDROOT
BRANCH   1   5
HETATM    5  C   UNL     1     -40.202 -49.431  11.412  1.00  0.00     0.158 C 
BRANCH   5   6
HETATM    6  C   UNL     1     -38.845 -49.143  12.106  1.00  0.00     0.236 C 
HETATM    7  C   UNL     1     -37.761 -49.966  11.402  1.00  0.00     0.044 C 
BRANCH   6   8
HETATM    8  N   UNL     1     -38.911 -49.203  13.586  1.00  0.00     0.098 N 
HETATM    9  C   UNL     1     -39.900 -48.293  14.197  1.00  0.00     0.299 C 
HETATM   10  C   UNL     1     -39.379 -46.872  14.479  1.00  0.00     0.198 C 
HETATM   11  O   UNL     1     -38.185 -46.896  15.270  1.00  0.00    -0.388 OA
HETATM   12  C   UNL     1     -37.165 -47.682  14.642  1.00  0.00     0.198 C 
HETATM   13  C   UNL     1     -37.648 -49.109  14.342  1.00  0.00     0.299 C 
ENDBRANCH   6   8
ENDBRANCH   5   6
ENDBRANCH   1   5
BRANCH   2  14
HETATM   14  C   UNL     1     -41.743 -52.910  11.773  1.00  0.00     0.234 C 
BRANCH  14  15
HETATM   15  N   UNL     1     -42.160 -53.593  12.993  1.00  0.00    -0.316 N 
HETATM   16  C   UNL     1     -41.229 -53.885  13.976  1.00  0.00     0.095 A 
HETATM   17  C   UNL     1     -41.583 -54.530  15.094  1.00  0.00     0.017 A 
HETATM   18  C   UNL     1     -42.951 -54.944  15.284  1.00  0.00     0.007 A 
HETATM   19  C   UNL     1     -43.871 -54.691  14.343  1.00  0.00     0.074 A 
HETATM   20  C   UNL     1     -43.493 -53.985  13.091  1.00  0.00     0.247 A 
HETATM   21  O   UNL     1     -44.347 -53.767  12.237  1.00  0.00    -0.268 OA
ENDBRANCH  14  15
ENDBRANCH   2  14
TORSDOF 5
ENDMDL
MODEL 8
REMARK VINA RESULT:      -5.1      2.273      7.108
REMARK  5 active torsions:
REMARK  status: ('A' for Active; 'I' for Inactive)
REMARK    1  A    between atoms: C_2  and  C_3 
REMARK    2  A    between atoms: C_2  and  N_15 
REMARK    3  A    between atoms: C_3  and  N_4 
REMARK       I    between atoms: N_4  and  C_5 
REMARK    4  A    between atoms: C_5  and  C_7 
REMARK    5  A    between atoms: C_7  and  N_8 
ROOT
HETATM    1  N   UNL     1     -40.849 -51.801  11.623  1.00  0.00    -0.358 N 
HETATM    2  C   UNL     1     -40.800 -50.429  11.733  1.00  0.00     0.235 C 
HETATM    3  O   UNL     1     -41.780 -49.752  12.046  1.00  0.00    -0.272 OA
HETATM    4  H   UNL     1     -40.041 -52.335  11.320  1.00  0.00     0.162 HD
ENDROOT
BRANCH   1   5
HETATM    5  C   UNL     1     -42.060 -52.538  11.923  1.00  0.00     0.158 C 
BRANCH   5   6
HETATM    6  C   UNL     1     -41.972 -53.321  13.259  1.00  0.00     0.236 C 
HETATM    7  C   UNL     1     -40.526 -53.792  13.447  1.00  0.00     0.044 C 
BRANCH   6   8
HETATM    8  N   UNL     1     -43.056 -54.317  13.435  1.00  0.00     0.098 N 
HETATM    9  C   UNL     1     -44.374 -53.892  12.924  1.00  0.00     0.299 C 
HETATM   10  C   UNL     1     -45.225 -53.090  13.926  1.00  0.00     0.198 C 
HETATM   11  O   UNL     1     -45.386 -53.794  15.162  1.00  0.00    -0.388 OA
HETATM   12  C   UNL     1     -44.116 -54.119  15.741  1.00  0.00     0.198 C 
HETATM   13  C   UNL     1     -43.236 -54.920  14.769  1.00  0.00     0.299 C 
ENDBRANCH   6   8
ENDBRANCH   5   6
ENDBRANCH   1   5
BRANCH   2  14
HETATM   14  C   UNL     1     -39.438 -49.801  11.438  1.00  0.00     0.234 C 
BRANCH  14  15
HETATM   15  N   UNL     1     -38.717 -49.508  12.673  1.00  0.00    -0.316 N 
HETATM   16  C   UNL     1     -38.785 -48.241  13.230  1.00  0.00     0.095 A 
HETATM   17  C   UNL     1     -38.115 -47.942  14.350  1.00  0.00     0.017 A 
HETATM   18  C   UNL     1     -37.298 -48.943  14.989  1.00  0.00     0.007 A 
HETATM   19  C   UNL     1     -37.199 -50.172  14.465  1.00  0.00     0.074 A 
HETATM   20  C   UNL     1     -37.927 -50.518  13.215  1.00  0.00     0.247 A 
HETATM   21  O   UNL     1     -37.821 -51.647  12.746  1.00  0.00    -0.268 OA
ENDBRANCH  14  15
ENDBRANCH   2  14
TORSDOF 5
ENDMDL
MODEL 9
REMARK VINA RESULT:      -5.1      2.354      2.738
REMARK  5 active torsions:
REMARK  status: ('A' for Active; 'I' for Inactive)
REMARK    1  A    between atoms: C_2  and  C_3 
REMARK    2  A    between atoms: C_2  and  N_15 
REMARK    3  A    between atoms: C_3  and  N_4 
REMARK       I    between atoms: N_4  and  C_5 
REMARK    4  A    between atoms: C_5  and  C_7 
REMARK    5  A    between atoms: C_7  and  N_8 
ROOT
HETATM    1  N   UNL     1     -40.884 -53.730  14.892  1.00  0.00    -0.358 N 
HETATM    2  C   UNL     1     -41.926 -54.071  14.058  1.00  0.00     0.235 C 
HETATM    3  O   UNL     1     -41.799 -54.155  12.837  1.00  0.00    -0.272 OA
HETATM    4  H   UNL     1     -41.022 -53.622  15.892  1.00  0.00     0.162 HD
ENDROOT
BRANCH   1   5
HETATM    5  C   UNL     1     -39.551 -53.497  14.375  1.00  0.00     0.158 C 
BRANCH   5   6
HETATM    6  C   UNL     1     -38.969 -52.125  14.807  1.00  0.00     0.236 C 
HETATM    7  C   UNL     1     -38.989 -52.054  16.338  1.00  0.00     0.044 C 
BRANCH   6   8
HETATM    8  N   UNL     1     -39.529 -50.979  14.051  1.00  0.00     0.098 N 
HETATM    9  C   UNL     1     -39.363 -51.065  12.586  1.00  0.00     0.299 C 
HETATM   10  C   UNL     1     -38.031 -50.504  12.056  1.00  0.00     0.198 C 
HETATM   11  O   UNL     1     -37.816 -49.157  12.493  1.00  0.00    -0.388 OA
HETATM   12  C   UNL     1     -37.858 -49.063  13.922  1.00  0.00     0.198 C 
HETATM   13  C   UNL     1     -39.174 -49.617  14.490  1.00  0.00     0.299 C 
ENDBRANCH   6   8
ENDBRANCH   5   6
ENDBRANCH   1   5
BRANCH   2  14
HETATM   14  C   UNL     1     -43.258 -54.340  14.758  1.00  0.00     0.234 C 
BRANCH  14  15
HETATM   15  N   UNL     1     -44.245 -53.321  14.415  1.00  0.00    -0.316 N 
HETATM   16  C   UNL     1     -44.271 -52.122  15.108  1.00  0.00     0.095 A 
HETATM   17  C   UNL     1     -45.181 -51.181  14.826  1.00  0.00     0.017 A 
HETATM   18  C   UNL     1     -46.162 -51.413  13.796  1.00  0.00     0.007 A 
HETATM   19  C   UNL     1     -46.173 -52.570  13.120  1.00  0.00     0.074 A 
HETATM   20  C   UNL     1     -45.177 -53.630  13.428  1.00  0.00     0.247 A 
HETATM   21  O   UNL     1     -45.205 -54.686  12.803  1.00  0.00    -0.268 OA
ENDBRANCH  14  15
ENDBRANCH   2  14
TORSDOF 5
ENDMDL
