MODEL 1
REMARK VINA RESULT:      -5.0      0.000      0.000
REMARK  4 active torsions:
REMARK  status: ('A' for Active; 'I' for Inactive)
REMARK    1  A    between atoms: C_4  and  O_5 
REMARK    2  A    between atoms: N_9  and  C_10 
REMARK    3  A    between atoms: C_10  and  C_11 
REMARK    4  A    between atoms: C_11  and  O_13 
ROOT
HETATM    1  C   UNL     1     -42.312 -55.664  16.280  1.00  0.00     0.068 C 
HETATM    2  C   UNL     1     -42.666 -54.924  15.020  1.00  0.00     0.014 A 
HETATM    3  C   UNL     1     -43.923 -54.990  14.538  1.00  0.00     0.061 A 
HETATM    4  C   UNL     1     -44.294 -54.271  13.349  1.00  0.00     0.072 A 
HETATM    5  C   UNL     1     -43.402 -53.542  12.680  1.00  0.00     0.111 A 
HETATM    6  C   UNL     1     -42.007 -53.462  13.169  1.00  0.00     0.250 A 
HETATM    7  O   UNL     1     -41.181 -52.812  12.533  1.00  0.00    -0.268 OA
HETATM    8  N   UNL     1     -41.703 -54.158  14.347  1.00  0.00    -0.309 N 
ENDROOT
BRANCH   8   9
HETATM    9  C   UNL     1     -40.373 -53.886  14.931  1.00  0.00     0.242 C 
BRANCH   9  10
HETATM   10  C   UNL     1     -39.239 -54.817  14.519  1.00  0.00     0.158 C 
HETATM   11  O   UNL     1     -38.799 -55.696  15.250  1.00  0.00    -0.649 OA
BRANCH  10  12
HETATM   12  O   UNL     1     -38.770 -54.634  13.264  1.00  0.00    -0.775 OA
HETATM   13  H   UNL     1     -38.700 -55.487  12.789  1.00  0.00     0.167 HD
ENDBRANCH  10  12
ENDBRANCH   9  10
ENDBRANCH   8   9
BRANCH   4  14
HETATM   14  O   UNL     1     -45.601 -54.348  12.931  1.00  0.00    -0.360 OA
HETATM   15  H   UNL     1     -46.129 -54.834  13.587  1.00  0.00     0.217 HD
ENDBRANCH   4  14
TORSDOF 4
ENDMDL
MODEL 2
REMARK VINA RESULT:      -4.8      1.186      4.217
REMARK  4 active torsions:
REMARK  status: ('A' for Active; 'I' for Inactive)
REMARK    1  A    between atoms: C_4  and  O_5 
REMARK    2  A    between atoms: N_9  and  C_10 
REMARK    3  A    between atoms: C_10  and  C_11 
REMARK    4  A    between atoms: C_11  and  O_13 
ROOT
HETATM    1  C   UNL     1     -42.587 -54.860  16.513  1.00  0.00     0.068 C 
HETATM    2  C   UNL     1     -41.999 -54.400  15.207  1.00  0.00     0.014 A 
HETATM    3  C   UNL     1     -40.718 -54.692  14.912  1.00  0.00     0.061 A 
HETATM    4  C   UNL     1     -40.140 -54.286  13.660  1.00  0.00     0.072 A 
HETATM    5  C   UNL     1     -40.846 -53.589  12.771  1.00  0.00     0.111 A 
HETATM    6  C   UNL     1     -42.252 -53.233  13.069  1.00  0.00     0.250 A 
HETATM    7  O   UNL     1     -42.890 -52.566  12.259  1.00  0.00    -0.268 OA
HETATM    8  N   UNL     1     -42.776 -53.677  14.291  1.00  0.00    -0.309 N 
ENDROOT
BRANCH   8   9
HETATM    9  C   UNL     1     -44.233 -53.500  14.468  1.00  0.00     0.242 C 
BRANCH   9  10
HETATM   10  C   UNL     1     -45.138 -54.449  13.692  1.00  0.00     0.158 C 
HETATM   11  O   UNL     1     -45.347 -55.605  14.038  1.00  0.00    -0.649 OA
BRANCH  10  12
HETATM   12  O   UNL     1     -45.736 -53.914  12.603  1.00  0.00    -0.775 OA
HETATM   13  H   UNL     1     -46.387 -54.537  12.220  1.00  0.00     0.167 HD
ENDBRANCH  10  12
ENDBRANCH   9  10
ENDBRANCH   8   9
BRANCH   4  14
HETATM   14  O   UNL     1     -38.839 -54.649  13.403  1.00  0.00    -0.360 OA
HETATM   15  H   UNL     1     -38.633 -55.483  13.858  1.00  0.00     0.217 HD
ENDBRANCH   4  14
TORSDOF 4
ENDMDL
MODEL 3
REMARK VINA RESULT:      -4.4      2.246      5.036
REMARK  4 active torsions:
REMARK  status: ('A' for Active; 'I' for Inactive)
REMARK    1  A    between atoms: C_4  and  O_5 
REMARK    2  A    between atoms: N_9  and  C_10 
REMARK    3  A    between atoms: C_10  and  C_11 
REMARK    4  A    between atoms: C_11  and  O_13 
ROOT
HETATM    1  C   UNL     1     -44.412 -50.878  13.368  1.00  0.00     0.068 C 
HETATM    2  C   UNL     1     -43.500 -52.074  13.342  1.00  0.00     0.014 A 
HETATM    3  C   UNL     1     -42.458 -52.100  12.489  1.00  0.00     0.061 A 
HETATM    4  C   UNL     1     -41.557 -53.220  12.462  1.00  0.00     0.072 A 
HETATM    5  C   UNL     1     -41.742 -54.270  13.261  1.00  0.00     0.111 A 
HETATM    6  C   UNL     1     -42.888 -54.286  14.197  1.00  0.00     0.250 A 
HETATM    7  O   UNL     1     -43.071 -55.268  14.910  1.00  0.00    -0.268 OA
HETATM    8  N   UNL     1     -43.720 -53.158  14.203  1.00  0.00    -0.309 N 
ENDROOT
BRANCH   8   9
HETATM    9  C   UNL     1     -44.719 -53.101  15.291  1.00  0.00     0.242 C 
BRANCH   9  10
HETATM   10  C   UNL     1     -46.108 -53.644  14.977  1.00  0.00     0.158 C 
HETATM   11  O   UNL     1     -47.093 -52.925  14.857  1.00  0.00    -0.649 OA
BRANCH  10  12
HETATM   12  O   UNL     1     -46.178 -54.982  14.799  1.00  0.00    -0.775 OA
HETATM   13  H   UNL     1     -45.638 -55.261  14.032  1.00  0.00     0.167 HD
ENDBRANCH  10  12
ENDBRANCH   9  10
ENDBRANCH   8   9
BRANCH   4  14
HETATM   14  O   UNL     1     -40.490 -53.168  11.597  1.00  0.00    -0.360 OA
HETATM   15  H   UNL     1     -39.662 -53.323  12.083  1.00  0.00     0.217 HD
ENDBRANCH   4  14
TORSDOF 4
ENDMDL
MODEL 4
REMARK VINA RESULT:      -4.4     21.804     22.857
REMARK  4 active torsions:
REMARK  status: ('A' for Active; 'I' for Inactive)
REMARK    1  A    between atoms: C_4  and  O_5 
REMARK    2  A    between atoms: N_9  and  C_10 
REMARK    3  A    between atoms: C_10  and  C_11 
REMARK    4  A    between atoms: C_11  and  O_13 
ROOT
HETATM    1  C   UNL     1     -28.644 -51.205  -6.479  1.00  0.00     0.068 C 
HETATM    2  C   UNL     1     -29.803 -52.027  -5.986  1.00  0.00     0.014 A 
HETATM    3  C   UNL     1     -31.057 -51.549  -6.102  1.00  0.00     0.061 A 
HETATM    4  C   UNL     1     -32.184 -52.326  -5.662  1.00  0.00     0.072 A 
HETATM    5  C   UNL     1     -32.018 -53.526  -5.108  1.00  0.00     0.111 A 
HETATM    6  C   UNL     1     -30.653 -54.076  -4.946  1.00  0.00     0.250 A 
HETATM    7  O   UNL     1     -30.502 -55.169  -4.409  1.00  0.00    -0.268 OA
HETATM    8  N   UNL     1     -29.590 -53.291  -5.416  1.00  0.00    -0.309 N 
ENDROOT
BRANCH   8   9
HETATM    9  C   UNL     1     -28.268 -53.949  -5.445  1.00  0.00     0.242 C 
BRANCH   9  10
HETATM   10  C   UNL     1     -27.403 -53.808  -4.199  1.00  0.00     0.158 C 
HETATM   11  O   UNL     1     -27.039 -52.724  -3.758  1.00  0.00    -0.649 OA
BRANCH  10  12
HETATM   12  O   UNL     1     -27.092 -54.969  -3.578  1.00  0.00    -0.775 OA
HETATM   13  H   UNL     1     -26.642 -54.799  -2.725  1.00  0.00     0.167 HD
ENDBRANCH  10  12
ENDBRANCH   9  10
ENDBRANCH   8   9
BRANCH   4  14
HETATM   14  O   UNL     1     -33.440 -51.799  -5.844  1.00  0.00    -0.360 OA
HETATM   15  H   UNL     1     -33.427 -50.843  -5.666  1.00  0.00     0.217 HD
ENDBRANCH   4  14
TORSDOF 4
ENDMDL
MODEL 5
REMARK VINA RESULT:      -4.3      2.109      3.342
REMARK  4 active torsions:
REMARK  status: ('A' for Active; 'I' for Inactive)
REMARK    1  A    between atoms: C_4  and  O_5 
REMARK    2  A    between atoms: N_9  and  C_10 
REMARK    3  A    between atoms: C_10  and  C_11 
REMARK    4  A    between atoms: C_11  and  O_13 
ROOT
HETATM    1  C   UNL     1     -44.099 -50.683  13.358  1.00  0.00     0.068 C 
HETATM    2  C   UNL     1     -44.048 -52.151  13.680  1.00  0.00     0.014 A 
HETATM    3  C   UNL     1     -45.193 -52.858  13.758  1.00  0.00     0.061 A 
HETATM    4  C   UNL     1     -45.171 -54.267  14.039  1.00  0.00     0.072 A 
HETATM    5  C   UNL     1     -44.022 -54.907  14.254  1.00  0.00     0.111 A 
HETATM    6  C   UNL     1     -42.745 -54.160  14.196  1.00  0.00     0.250 A 
HETATM    7  O   UNL     1     -41.692 -54.748  14.423  1.00  0.00    -0.268 OA
HETATM    8  N   UNL     1     -42.820 -52.794  13.891  1.00  0.00    -0.309 N 
ENDROOT
BRANCH   8   9
HETATM    9  C   UNL     1     -41.531 -52.123  13.623  1.00  0.00     0.242 C 
BRANCH   9  10
HETATM   10  C   UNL     1     -41.037 -52.135  12.182  1.00  0.00     0.158 C 
HETATM   11  O   UNL     1     -40.981 -51.128  11.487  1.00  0.00    -0.649 OA
BRANCH  10  12
HETATM   12  O   UNL     1     -40.621 -53.338  11.725  1.00  0.00    -0.775 OA
HETATM   13  H   UNL     1     -40.739 -53.404  10.755  1.00  0.00     0.167 HD
ENDBRANCH  10  12
ENDBRANCH   9  10
ENDBRANCH   8   9
BRANCH   4  14
HETATM   14  O   UNL     1     -46.370 -54.938  14.066  1.00  0.00    -0.360 OA
HETATM   15  H   UNL     1     -46.319 -55.682  14.690  1.00  0.00     0.217 HD
ENDBRANCH   4  14
TORSDOF 4
ENDMDL
MODEL 6
REMARK VINA RESULT:      -4.3     15.142     16.541
REMARK  4 active torsions:
REMARK  status: ('A' for Active; 'I' for Inactive)
REMARK    1  A    between atoms: C_4  and  O_5 
REMARK    2  A    between atoms: N_9  and  C_10 
REMARK    3  A    between atoms: C_10  and  C_11 
REMARK    4  A    between atoms: C_11  and  O_13 
ROOT
HETATM    1  C   UNL     1     -25.826 -62.121  15.641  1.00  0.00     0.068 C 
HETATM    2  C   UNL     1     -27.255 -62.453  15.970  1.00  0.00     0.014 A 
HETATM    3  C   UNL     1     -27.887 -63.430  15.289  1.00  0.00     0.061 A 
HETATM    4  C   UNL     1     -29.245 -63.784  15.601  1.00  0.00     0.072 A 
HETATM    5  C   UNL     1     -29.922 -63.142  16.553  1.00  0.00     0.111 A 
HETATM    6  C   UNL     1     -29.267 -62.050  17.308  1.00  0.00     0.250 A 
HETATM    7  O   UNL     1     -29.903 -61.442  18.164  1.00  0.00    -0.268 OA
HETATM    8  N   UNL     1     -27.933 -61.763  16.984  1.00  0.00    -0.309 N 
ENDROOT
BRANCH   8   9
HETATM    9  C   UNL     1     -27.238 -60.828  17.894  1.00  0.00     0.242 C 
BRANCH   9  10
HETATM   10  C   UNL     1     -26.714 -61.406  19.202  1.00  0.00     0.158 C 
HETATM   11  O   UNL     1     -27.308 -61.290  20.268  1.00  0.00    -0.649 OA
BRANCH  10  12
HETATM   12  O   UNL     1     -25.556 -62.098  19.105  1.00  0.00    -0.775 OA
HETATM   13  H   UNL     1     -25.694 -63.043  19.321  1.00  0.00     0.167 HD
ENDBRANCH  10  12
ENDBRANCH   9  10
ENDBRANCH   8   9
BRANCH   4  14
HETATM   14  O   UNL     1     -29.820 -64.815  14.898  1.00  0.00    -0.360 OA
HETATM   15  H   UNL     1     -30.697 -64.546  14.574  1.00  0.00     0.217 HD
ENDBRANCH   4  14
TORSDOF 4
ENDMDL
MODEL 7
REMARK VINA RESULT:      -4.2      2.472      3.457
REMARK  4 active torsions:
REMARK  status: ('A' for Active; 'I' for Inactive)
REMARK    1  A    between atoms: C_4  and  O_5 
REMARK    2  A    between atoms: N_9  and  C_10 
REMARK    3  A    between atoms: C_10  and  C_11 
REMARK    4  A    between atoms: C_11  and  O_13 
ROOT
HETATM    1  C   UNL     1     -42.338 -51.693  15.769  1.00  0.00     0.068 C 
HETATM    2  C   UNL     1     -43.534 -52.073  14.941  1.00  0.00     0.014 A 
HETATM    3  C   UNL     1     -44.731 -51.508  15.197  1.00  0.00     0.061 A 
HETATM    4  C   UNL     1     -45.884 -51.835  14.403  1.00  0.00     0.072 A 
HETATM    5  C   UNL     1     -45.807 -52.721  13.411  1.00  0.00     0.111 A 
HETATM    6  C   UNL     1     -44.514 -53.376  13.113  1.00  0.00     0.250 A 
HETATM    7  O   UNL     1     -44.454 -54.214  12.216  1.00  0.00    -0.268 OA
HETATM    8  N   UNL     1     -43.414 -53.003  13.898  1.00  0.00    -0.309 N 
ENDROOT
BRANCH   8   9
HETATM    9  C   UNL     1     -42.099 -53.501  13.442  1.00  0.00     0.242 C 
BRANCH   9  10
HETATM   10  C   UNL     1     -41.429 -52.733  12.310  1.00  0.00     0.158 C 
HETATM   11  O   UNL     1     -41.585 -51.530  12.136  1.00  0.00    -0.649 OA
BRANCH  10  12
HETATM   12  O   UNL     1     -40.609 -53.465  11.523  1.00  0.00    -0.775 OA
HETATM   13  H   UNL     1     -40.208 -52.910  10.824  1.00  0.00     0.167 HD
ENDBRANCH  10  12
ENDBRANCH   9  10
ENDBRANCH   8   9
BRANCH   4  14
HETATM   14  O   UNL     1     -47.066 -51.195  14.690  1.00  0.00    -0.360 OA
HETATM   15  H   UNL     1     -47.281 -50.565  13.982  1.00  0.00     0.217 HD
ENDBRANCH   4  14
TORSDOF 4
ENDMDL
MODEL 8
REMARK VINA RESULT:      -4.2     10.161     11.359
REMARK  4 active torsions:
REMARK  status: ('A' for Active; 'I' for Inactive)
REMARK    1  A    between atoms: C_4  and  O_5 
REMARK    2  A    between atoms: N_9  and  C_10 
REMARK    3  A    between atoms: C_10  and  C_11 
REMARK    4  A    between atoms: C_11  and  O_13 
ROOT
HETATM    1  C   UNL     1     -52.809 -55.982  21.854  1.00  0.00     0.068 C 
HETATM    2  C   UNL     1     -51.796 -56.781  21.081  1.00  0.00     0.014 A 
HETATM    3  C   UNL     1     -52.174 -57.913  20.457  1.00  0.00     0.061 A 
HETATM    4  C   UNL     1     -51.231 -58.681  19.690  1.00  0.00     0.072 A 
HETATM    5  C   UNL     1     -49.956 -58.308  19.597  1.00  0.00     0.111 A 
HETATM    6  C   UNL     1     -49.499 -57.080  20.285  1.00  0.00     0.250 A 
HETATM    7  O   UNL     1     -48.317 -56.756  20.220  1.00  0.00    -0.268 OA
HETATM    8  N   UNL     1     -50.464 -56.352  20.996  1.00  0.00    -0.309 N 
ENDROOT
BRANCH   8   9
HETATM    9  C   UNL     1     -50.036 -55.025  21.486  1.00  0.00     0.242 C 
BRANCH   9  10
HETATM   10  C   UNL     1     -49.879 -53.926  20.443  1.00  0.00     0.158 C 
HETATM   11  O   UNL     1     -50.832 -53.350  19.932  1.00  0.00    -0.649 OA
BRANCH  10  12
HETATM   12  O   UNL     1     -48.603 -53.594  20.142  1.00  0.00    -0.775 OA
HETATM   13  H   UNL     1     -47.975 -54.027  20.756  1.00  0.00     0.167 HD
ENDBRANCH  10  12
ENDBRANCH   9  10
ENDBRANCH   8   9
BRANCH   4  14
HETATM   14  O   UNL     1     -51.689 -59.805  19.045  1.00  0.00    -0.360 OA
HETATM   15  H   UNL     1     -51.101 -60.556  19.232  1.00  0.00     0.217 HD
ENDBRANCH   4  14
TORSDOF 4
ENDMDL
MODEL 9
REMARK VINA RESULT:      -4.1      3.052      4.172
REMARK  4 active torsions:
REMARK  status: ('A' for Active; 'I' for Inactive)
REMARK    1  A    between atoms: C_4  and  O_5 
REMARK    2  A    between atoms: N_9  and  C_10 
REMARK    3  A    between atoms: C_10  and  C_11 
REMARK    4  A    between atoms: C_11  and  O_13 
ROOT
HETATM    1  C   UNL     1     -41.313 -49.415  12.695  1.00  0.00     0.068 C 
HETATM    2  C   UNL     1     -41.255 -50.912  12.817  1.00  0.00     0.014 A 
HETATM    3  C   UNL     1     -42.351 -51.647  12.543  1.00  0.00     0.061 A 
HETATM    4  C   UNL     1     -42.315 -53.082  12.627  1.00  0.00     0.072 A 
HETATM    5  C   UNL     1     -41.207 -53.721  13.000  1.00  0.00     0.111 A 
HETATM    6  C   UNL     1     -39.989 -52.946  13.328  1.00  0.00     0.250 A 
HETATM    7  O   UNL     1     -38.979 -53.537  13.700  1.00  0.00    -0.268 OA
HETATM    8  N   UNL     1     -40.069 -51.552  13.204  1.00  0.00    -0.309 N 
ENDROOT
BRANCH   8   9
HETATM    9  C   UNL     1     -38.789 -50.821  13.321  1.00  0.00     0.242 C 
BRANCH   9  10
HETATM   10  C   UNL     1     -37.867 -50.853  12.109  1.00  0.00     0.158 C 
HETATM   11  O   UNL     1     -36.847 -51.531  12.064  1.00  0.00    -0.649 OA
BRANCH  10  12
HETATM   12  O   UNL     1     -38.270 -50.105  11.057  1.00  0.00    -0.775 OA
HETATM   13  H   UNL     1     -39.234 -50.196  10.913  1.00  0.00     0.167 HD
ENDBRANCH  10  12
ENDBRANCH   9  10
ENDBRANCH   8   9
BRANCH   4  14
HETATM   14  O   UNL     1     -43.454 -53.776  12.296  1.00  0.00    -0.360 OA
HETATM   15  H   UNL     1     -43.755 -54.299  13.058  1.00  0.00     0.217 HD
ENDBRANCH   4  14
TORSDOF 4
ENDMDL
