MODEL 1
REMARK VINA RESULT:      -5.6      0.000      0.000
REMARK  3 active torsions:
REMARK  status: ('A' for Active; 'I' for Inactive)
REMARK    1  A    between atoms: O_2  and  C_3 
REMARK    2  A    between atoms: C_10  and  N_11 
REMARK       I    between atoms: N_11  and  C_12 
REMARK       I    between atoms: C_12  and  N_14 
REMARK    3  A    between atoms: N_14  and  C_15 
ROOT
HETATM    1  C   UNL     1     -41.332 -53.259  13.140  1.00  0.00     0.112 A 
HETATM    2  C   UNL     1     -40.093 -52.688  13.449  1.00  0.00     0.042 A 
HETATM    3  C   UNL     1     -39.714 -51.471  12.880  1.00  0.00     0.027 A 
HETATM    4  C   UNL     1     -40.585 -50.848  12.010  1.00  0.00     0.007 A 
HETATM    5  C   UNL     1     -40.269 -49.545  11.348  1.00  0.00     0.068 C 
HETATM    6  N   UNL     1     -41.794 -51.367  11.727  1.00  0.00    -0.344 N 
ATOM      7  HN  UNL     1     -42.424 -50.876  11.092  1.00  0.00     0.167 HD
HETATM    8  C   UNL     1     -42.176 -52.540  12.284  1.00  0.00     0.143 A 
ENDROOT
BRANCH   8   9
HETATM    9  N   UNL     1     -43.446 -53.040  11.949  1.00  0.00    -0.292 N 
HETATM   10  C   UNL     1     -44.632 -52.804  12.610  1.00  0.00     0.322 C 
HETATM   11  O   UNL     1     -45.684 -53.285  12.192  1.00  0.00    -0.247 OA
HETATM   12  N   UNL     1     -44.553 -51.963  13.690  1.00  0.00    -0.338 N 
HETATM   13  H   UNL     1     -43.607 -51.656  13.900  1.00  0.00     0.164 HD
HETATM   14  H   UNL     1     -43.524 -53.579  11.097  1.00  0.00     0.172 HD
BRANCH  12  15
HETATM   15  C   UNL     1     -45.624 -51.276  14.323  1.00  0.00     0.090 A 
HETATM   16  C   UNL     1     -45.465 -50.894  15.781  1.00  0.00     0.032 A 
HETATM   17  C   UNL     1     -46.503 -51.902  15.379  1.00  0.00     0.006 A 
HETATM   18  C   UNL     1     -46.362 -53.319  15.818  1.00  0.00     0.012 C 
ENDBRANCH  12  15
ENDBRANCH   8   9
BRANCH   1  19
HETATM   19  O   UNL     1     -41.747 -54.473  13.625  1.00  0.00    -0.352 OA
HETATM   20  C   UNL     1     -42.034 -54.479  15.026  1.00  0.00     0.210 C 
ENDBRANCH   1  19
TORSDOF 3
ENDMDL
MODEL 2
REMARK VINA RESULT:      -5.5      1.880      5.126
REMARK  3 active torsions:
REMARK  status: ('A' for Active; 'I' for Inactive)
REMARK    1  A    between atoms: O_2  and  C_3 
REMARK    2  A    between atoms: C_10  and  N_11 
REMARK       I    between atoms: N_11  and  C_12 
REMARK       I    between atoms: C_12  and  N_14 
REMARK    3  A    between atoms: N_14  and  C_15 
ROOT
HETATM    1  C   UNL     1     -44.304 -52.116  14.335  1.00  0.00     0.112 A 
HETATM    2  C   UNL     1     -45.560 -51.597  14.666  1.00  0.00     0.042 A 
HETATM    3  C   UNL     1     -46.557 -51.488  13.696  1.00  0.00     0.027 A 
HETATM    4  C   UNL     1     -46.277 -51.902  12.410  1.00  0.00     0.007 A 
HETATM    5  C   UNL     1     -47.278 -51.823  11.302  1.00  0.00     0.068 C 
HETATM    6  N   UNL     1     -45.085 -52.434  12.082  1.00  0.00    -0.344 N 
ATOM      7  HN  UNL     1     -44.912 -52.746  11.126  1.00  0.00     0.167 HD
HETATM    8  C   UNL     1     -44.116 -52.556  13.019  1.00  0.00     0.143 A 
ENDROOT
BRANCH   8   9
HETATM    9  N   UNL     1     -42.889 -53.112  12.620  1.00  0.00    -0.292 N 
HETATM   10  C   UNL     1     -41.816 -52.447  12.068  1.00  0.00     0.322 C 
HETATM   11  O   UNL     1     -40.784 -53.055  11.786  1.00  0.00    -0.247 OA
HETATM   12  N   UNL     1     -41.966 -51.091  11.928  1.00  0.00    -0.338 N 
HETATM   13  H   UNL     1     -42.882 -50.751  12.208  1.00  0.00     0.164 HD
HETATM   14  H   UNL     1     -42.738 -54.094  12.813  1.00  0.00     0.172 HD
BRANCH  12  15
HETATM   15  C   UNL     1     -40.937 -50.130  11.734  1.00  0.00     0.090 A 
HETATM   16  C   UNL     1     -40.838 -48.982  12.719  1.00  0.00     0.032 A 
HETATM   17  C   UNL     1     -41.201 -48.711  11.287  1.00  0.00     0.006 A 
HETATM   18  C   UNL     1     -42.562 -48.204  10.957  1.00  0.00     0.012 C 
ENDBRANCH  12  15
ENDBRANCH   8   9
BRANCH   1  19
HETATM   19  O   UNL     1     -43.265 -52.207  15.226  1.00  0.00    -0.352 OA
HETATM   20  C   UNL     1     -42.653 -50.954  15.546  1.00  0.00     0.210 C 
ENDBRANCH   1  19
TORSDOF 3
ENDMDL
MODEL 3
REMARK VINA RESULT:      -5.4      1.410      2.972
REMARK  3 active torsions:
REMARK  status: ('A' for Active; 'I' for Inactive)
REMARK    1  A    between atoms: O_2  and  C_3 
REMARK    2  A    between atoms: C_10  and  N_11 
REMARK       I    between atoms: N_11  and  C_12 
REMARK       I    between atoms: C_12  and  N_14 
REMARK    3  A    between atoms: N_14  and  C_15 
ROOT
HETATM    1  C   UNL     1     -40.958 -53.007  12.893  1.00  0.00     0.112 A 
HETATM    2  C   UNL     1     -39.794 -53.046  13.668  1.00  0.00     0.042 A 
HETATM    3  C   UNL     1     -39.735 -53.837  14.816  1.00  0.00     0.027 A 
HETATM    4  C   UNL     1     -40.846 -54.576  15.168  1.00  0.00     0.007 A 
HETATM    5  C   UNL     1     -40.882 -55.450  16.381  1.00  0.00     0.068 C 
HETATM    6  N   UNL     1     -41.963 -54.577  14.416  1.00  0.00    -0.344 N 
ATOM      7  HN  UNL     1     -42.763 -55.145  14.693  1.00  0.00     0.167 HD
HETATM    8  C   UNL     1     -42.024 -53.823  13.293  1.00  0.00     0.143 A 
ENDROOT
BRANCH   8   9
HETATM    9  N   UNL     1     -43.215 -53.856  12.550  1.00  0.00    -0.292 N 
HETATM   10  C   UNL     1     -44.371 -53.147  12.800  1.00  0.00     0.322 C 
HETATM   11  O   UNL     1     -45.340 -53.250  12.050  1.00  0.00    -0.247 OA
HETATM   12  N   UNL     1     -44.325 -52.299  13.877  1.00  0.00    -0.338 N 
HETATM   13  H   UNL     1     -43.449 -52.338  14.391  1.00  0.00     0.164 HD
HETATM   14  H   UNL     1     -43.219 -54.404  11.700  1.00  0.00     0.172 HD
BRANCH  12  15
HETATM   15  C   UNL     1     -45.203 -51.216  14.153  1.00  0.00     0.090 A 
HETATM   16  C   UNL     1     -45.424 -50.828  15.602  1.00  0.00     0.032 A 
HETATM   17  C   UNL     1     -46.559 -51.390  14.795  1.00  0.00     0.006 A 
HETATM   18  C   UNL     1     -47.125 -52.722  15.150  1.00  0.00     0.012 C 
ENDBRANCH  12  15
ENDBRANCH   8   9
BRANCH   1  19
HETATM   19  O   UNL     1     -41.100 -52.217  11.781  1.00  0.00    -0.352 OA
HETATM   20  C   UNL     1     -41.237 -50.822  12.065  1.00  0.00     0.210 C 
ENDBRANCH   1  19
TORSDOF 3
ENDMDL
MODEL 4
REMARK VINA RESULT:      -5.3      2.475      4.532
REMARK  3 active torsions:
REMARK  status: ('A' for Active; 'I' for Inactive)
REMARK    1  A    between atoms: O_2  and  C_3 
REMARK    2  A    between atoms: C_10  and  N_11 
REMARK       I    between atoms: N_11  and  C_12 
REMARK       I    between atoms: C_12  and  N_14 
REMARK    3  A    between atoms: N_14  and  C_15 
ROOT
HETATM    1  C   UNL     1     -41.102 -53.442  13.176  1.00  0.00     0.112 A 
HETATM    2  C   UNL     1     -41.898 -54.313  13.926  1.00  0.00     0.042 A 
HETATM    3  C   UNL     1     -43.285 -54.314  13.772  1.00  0.00     0.027 A 
HETATM    4  C   UNL     1     -43.850 -53.440  12.866  1.00  0.00     0.007 A 
HETATM    5  C   UNL     1     -45.325 -53.363  12.632  1.00  0.00     0.068 C 
HETATM    6  N   UNL     1     -43.097 -52.618  12.112  1.00  0.00    -0.344 N 
ATOM      7  HN  UNL     1     -43.541 -51.993  11.439  1.00  0.00     0.167 HD
HETATM    8  C   UNL     1     -41.749 -52.619  12.245  1.00  0.00     0.143 A 
ENDROOT
BRANCH   8   9
HETATM    9  N   UNL     1     -41.013 -51.737  11.438  1.00  0.00    -0.292 N 
HETATM   10  C   UNL     1     -40.955 -50.364  11.546  1.00  0.00     0.322 C 
HETATM   11  O   UNL     1     -40.245 -49.709  10.785  1.00  0.00    -0.247 OA
HETATM   12  N   UNL     1     -41.675 -49.819  12.577  1.00  0.00    -0.338 N 
HETATM   13  H   UNL     1     -42.208 -50.502  13.109  1.00  0.00     0.164 HD
HETATM   14  H   UNL     1     -40.403 -52.142  10.740  1.00  0.00     0.172 HD
BRANCH  12  15
HETATM   15  C   UNL     1     -41.525 -48.521  13.137  1.00  0.00     0.090 A 
HETATM   16  C   UNL     1     -42.680 -47.950  13.936  1.00  0.00     0.032 A 
HETATM   17  C   UNL     1     -42.278 -47.310  12.638  1.00  0.00     0.006 A 
HETATM   18  C   UNL     1     -43.210 -47.355  11.476  1.00  0.00     0.012 C 
ENDBRANCH  12  15
ENDBRANCH   8   9
BRANCH   1  19
HETATM   19  O   UNL     1     -39.739 -53.356  13.312  1.00  0.00    -0.352 OA
HETATM   20  C   UNL     1     -39.161 -54.398  14.101  1.00  0.00     0.210 C 
ENDBRANCH   1  19
TORSDOF 3
ENDMDL
MODEL 5
REMARK VINA RESULT:      -5.3      3.509      5.685
REMARK  3 active torsions:
REMARK  status: ('A' for Active; 'I' for Inactive)
REMARK    1  A    between atoms: O_2  and  C_3 
REMARK    2  A    between atoms: C_10  and  N_11 
REMARK       I    between atoms: N_11  and  C_12 
REMARK       I    between atoms: C_12  and  N_14 
REMARK    3  A    between atoms: N_14  and  C_15 
ROOT
HETATM    1  C   UNL     1     -42.039 -47.403  11.808  1.00  0.00     0.112 A 
HETATM    2  C   UNL     1     -43.225 -46.772  11.419  1.00  0.00     0.042 A 
HETATM    3  C   UNL     1     -43.700 -46.904  10.114  1.00  0.00     0.027 A 
HETATM    4  C   UNL     1     -42.978 -47.668   9.221  1.00  0.00     0.007 A 
HETATM    5  C   UNL     1     -43.404 -47.867   7.801  1.00  0.00     0.068 C 
HETATM    6  N   UNL     1     -41.853 -48.311   9.587  1.00  0.00    -0.344 N 
ATOM      7  HN  UNL     1     -41.349 -48.881   8.909  1.00  0.00     0.167 HD
HETATM    8  C   UNL     1     -41.391 -48.199  10.855  1.00  0.00     0.143 A 
ENDROOT
BRANCH   8   9
HETATM    9  N   UNL     1     -40.210 -48.885  11.181  1.00  0.00    -0.292 N 
HETATM   10  C   UNL     1     -40.100 -50.181  11.634  1.00  0.00     0.322 C 
HETATM   11  O   UNL     1     -38.995 -50.671  11.860  1.00  0.00    -0.247 OA
HETATM   12  N   UNL     1     -41.278 -50.874  11.742  1.00  0.00    -0.338 N 
HETATM   13  H   UNL     1     -42.100 -50.319  11.518  1.00  0.00     0.164 HD
HETATM   14  H   UNL     1     -39.333 -48.410  11.009  1.00  0.00     0.172 HD
BRANCH  12  15
HETATM   15  C   UNL     1     -41.440 -52.283  11.832  1.00  0.00     0.090 A 
HETATM   16  C   UNL     1     -42.708 -52.817  12.468  1.00  0.00     0.032 A 
HETATM   17  C   UNL     1     -41.381 -53.044  13.135  1.00  0.00     0.006 A 
HETATM   18  C   UNL     1     -41.095 -52.392  14.444  1.00  0.00     0.012 C 
ENDBRANCH  12  15
ENDBRANCH   8   9
BRANCH   1  19
HETATM   19  O   UNL     1     -41.491 -47.277  13.060  1.00  0.00    -0.352 OA
HETATM   20  C   UNL     1     -42.399 -47.554  14.129  1.00  0.00     0.210 C 
ENDBRANCH   1  19
TORSDOF 3
ENDMDL
MODEL 6
REMARK VINA RESULT:      -5.2      3.671      6.207
REMARK  3 active torsions:
REMARK  status: ('A' for Active; 'I' for Inactive)
REMARK    1  A    between atoms: O_2  and  C_3 
REMARK    2  A    between atoms: C_10  and  N_11 
REMARK       I    between atoms: N_11  and  C_12 
REMARK       I    between atoms: C_12  and  N_14 
REMARK    3  A    between atoms: N_14  and  C_15 
ROOT
HETATM    1  C   UNL     1     -41.004 -49.986  12.660  1.00  0.00     0.112 A 
HETATM    2  C   UNL     1     -39.941 -50.449  13.443  1.00  0.00     0.042 A 
HETATM    3  C   UNL     1     -38.652 -50.522  12.913  1.00  0.00     0.027 A 
HETATM    4  C   UNL     1     -38.451 -50.130  11.606  1.00  0.00     0.007 A 
HETATM    5  C   UNL     1     -37.109 -50.175  10.948  1.00  0.00     0.068 C 
HETATM    6  N   UNL     1     -39.455 -49.652  10.848  1.00  0.00    -0.344 N 
ATOM      7  HN  UNL     1     -39.274 -49.355   9.889  1.00  0.00     0.167 HD
HETATM    8  C   UNL     1     -40.707 -49.564  11.358  1.00  0.00     0.143 A 
ENDROOT
BRANCH   8   9
HETATM    9  N   UNL     1     -41.718 -49.064  10.521  1.00  0.00    -0.292 N 
HETATM   10  C   UNL     1     -41.993 -47.741  10.249  1.00  0.00     0.322 C 
HETATM   11  O   UNL     1     -42.898 -47.439   9.473  1.00  0.00    -0.247 OA
HETATM   12  N   UNL     1     -41.158 -46.828  10.841  1.00  0.00    -0.338 N 
HETATM   13  H   UNL     1     -40.464 -47.247  11.454  1.00  0.00     0.164 HD
HETATM   14  H   UNL     1     -42.272 -49.736  10.006  1.00  0.00     0.172 HD
BRANCH  12  15
HETATM   15  C   UNL     1     -40.977 -45.467  10.473  1.00  0.00     0.090 A 
HETATM   16  C   UNL     1     -39.581 -45.009  10.100  1.00  0.00     0.032 A 
HETATM   17  C   UNL     1     -40.243 -44.466  11.334  1.00  0.00     0.006 A 
HETATM   18  C   UNL     1     -39.687 -44.801  12.675  1.00  0.00     0.012 C 
ENDBRANCH  12  15
ENDBRANCH   8   9
BRANCH   1  19
HETATM   19  O   UNL     1     -42.301 -49.933  13.101  1.00  0.00    -0.352 OA
HETATM   20  C   UNL     1     -42.945 -51.207  13.189  1.00  0.00     0.210 C 
ENDBRANCH   1  19
TORSDOF 3
ENDMDL
MODEL 7
REMARK VINA RESULT:      -5.2      3.731      5.543
REMARK  3 active torsions:
REMARK  status: ('A' for Active; 'I' for Inactive)
REMARK    1  A    between atoms: O_2  and  C_3 
REMARK    2  A    between atoms: C_10  and  N_11 
REMARK       I    between atoms: N_11  and  C_12 
REMARK       I    between atoms: C_12  and  N_14 
REMARK    3  A    between atoms: N_14  and  C_15 
ROOT
HETATM    1  C   UNL     1     -41.071 -46.935  10.810  1.00  0.00     0.112 A 
HETATM    2  C   UNL     1     -41.842 -45.801  10.535  1.00  0.00     0.042 A 
HETATM    3  C   UNL     1     -43.058 -45.919   9.862  1.00  0.00     0.027 A 
HETATM    4  C   UNL     1     -43.481 -47.175   9.476  1.00  0.00     0.007 A 
HETATM    5  C   UNL     1     -44.768 -47.404   8.749  1.00  0.00     0.068 C 
HETATM    6  N   UNL     1     -42.769 -48.280   9.762  1.00  0.00    -0.344 N 
ATOM      7  HN  UNL     1     -43.114 -49.197   9.478  1.00  0.00     0.167 HD
HETATM    8  C   UNL     1     -41.594 -48.176  10.426  1.00  0.00     0.143 A 
ENDROOT
BRANCH   8   9
HETATM    9  N   UNL     1     -40.887 -49.361  10.692  1.00  0.00    -0.292 N 
HETATM   10  C   UNL     1     -41.191 -50.314  11.640  1.00  0.00     0.322 C 
HETATM   11  O   UNL     1     -40.499 -51.324  11.752  1.00  0.00    -0.247 OA
HETATM   12  N   UNL     1     -42.326 -50.081  12.374  1.00  0.00    -0.338 N 
HETATM   13  H   UNL     1     -42.778 -49.197  12.156  1.00  0.00     0.164 HD
HETATM   14  H   UNL     1     -40.107 -49.585  10.088  1.00  0.00     0.172 HD
BRANCH  12  15
HETATM   15  C   UNL     1     -43.060 -51.025  13.142  1.00  0.00     0.090 A 
HETATM   16  C   UNL     1     -44.538 -50.771  13.362  1.00  0.00     0.032 A 
HETATM   17  C   UNL     1     -43.590 -50.736  14.526  1.00  0.00     0.006 A 
HETATM   18  C   UNL     1     -43.346 -49.449  15.237  1.00  0.00     0.012 C 
ENDBRANCH  12  15
ENDBRANCH   8   9
BRANCH   1  19
HETATM   19  O   UNL     1     -39.845 -46.885  11.425  1.00  0.00    -0.352 OA
HETATM   20  C   UNL     1     -39.899 -46.567  12.818  1.00  0.00     0.210 C 
ENDBRANCH   1  19
TORSDOF 3
ENDMDL
MODEL 8
REMARK VINA RESULT:      -5.1      2.481      4.221
REMARK  3 active torsions:
REMARK  status: ('A' for Active; 'I' for Inactive)
REMARK    1  A    between atoms: O_2  and  C_3 
REMARK    2  A    between atoms: C_10  and  N_11 
REMARK       I    between atoms: N_11  and  C_12 
REMARK       I    between atoms: C_12  and  N_14 
REMARK    3  A    between atoms: N_14  and  C_15 
ROOT
HETATM    1  C   UNL     1     -39.659 -48.904  11.743  1.00  0.00     0.112 A 
HETATM    2  C   UNL     1     -39.780 -47.516  11.619  1.00  0.00     0.042 A 
HETATM    3  C   UNL     1     -40.867 -46.959  10.946  1.00  0.00     0.027 A 
HETATM    4  C   UNL     1     -41.816 -47.804  10.408  1.00  0.00     0.007 A 
HETATM    5  C   UNL     1     -43.015 -47.302   9.667  1.00  0.00     0.068 C 
HETATM    6  N   UNL     1     -41.734 -49.140  10.546  1.00  0.00    -0.344 N 
ATOM      7  HN  UNL     1     -42.458 -49.739  10.152  1.00  0.00     0.167 HD
HETATM    8  C   UNL     1     -40.689 -49.689  11.209  1.00  0.00     0.143 A 
ENDROOT
BRANCH   8   9
HETATM    9  N   UNL     1     -40.649 -51.089  11.318  1.00  0.00    -0.292 N 
HETATM   10  C   UNL     1     -41.432 -51.882  12.128  1.00  0.00     0.322 C 
HETATM   11  O   UNL     1     -41.311 -53.106  12.108  1.00  0.00    -0.247 OA
HETATM   12  N   UNL     1     -42.370 -51.220  12.880  1.00  0.00    -0.338 N 
HETATM   13  H   UNL     1     -42.333 -50.210  12.779  1.00  0.00     0.164 HD
HETATM   14  H   UNL     1     -40.028 -51.588  10.694  1.00  0.00     0.172 HD
BRANCH  12  15
HETATM   15  C   UNL     1     -43.515 -51.779  13.509  1.00  0.00     0.090 A 
HETATM   16  C   UNL     1     -44.835 -51.049  13.365  1.00  0.00     0.032 A 
HETATM   17  C   UNL     1     -44.184 -51.160  14.714  1.00  0.00     0.006 A 
HETATM   18  C   UNL     1     -43.672 -49.933  15.387  1.00  0.00     0.012 C 
ENDBRANCH  12  15
ENDBRANCH   8   9
BRANCH   1  19
HETATM   19  O   UNL     1     -38.593 -49.520  12.350  1.00  0.00    -0.352 OA
HETATM   20  C   UNL     1     -37.487 -49.771  11.479  1.00  0.00     0.210 C 
ENDBRANCH   1  19
TORSDOF 3
ENDMDL
MODEL 9
REMARK VINA RESULT:      -5.1      2.379      4.995
REMARK  3 active torsions:
REMARK  status: ('A' for Active; 'I' for Inactive)
REMARK    1  A    between atoms: O_2  and  C_3 
REMARK    2  A    between atoms: C_10  and  N_11 
REMARK       I    between atoms: N_11  and  C_12 
REMARK       I    between atoms: C_12  and  N_14 
REMARK    3  A    between atoms: N_14  and  C_15 
ROOT
HETATM    1  C   UNL     1     -41.075 -53.366  12.973  1.00  0.00     0.112 A 
HETATM    2  C   UNL     1     -41.852 -54.268  13.708  1.00  0.00     0.042 A 
HETATM    3  C   UNL     1     -43.245 -54.204  13.660  1.00  0.00     0.027 A 
HETATM    4  C   UNL     1     -43.836 -53.235  12.876  1.00  0.00     0.007 A 
HETATM    5  C   UNL     1     -45.319 -53.083  12.763  1.00  0.00     0.068 C 
HETATM    6  N   UNL     1     -43.105 -52.380  12.137  1.00  0.00    -0.344 N 
ATOM      7  HN  UNL     1     -43.569 -51.684  11.555  1.00  0.00     0.167 HD
HETATM    8  C   UNL     1     -41.753 -52.443  12.166  1.00  0.00     0.143 A 
ENDROOT
BRANCH   8   9
HETATM    9  N   UNL     1     -41.039 -51.523  11.381  1.00  0.00    -0.292 N 
HETATM   10  C   UNL     1     -40.294 -50.453  11.826  1.00  0.00     0.322 C 
HETATM   11  O   UNL     1     -39.694 -49.735  11.027  1.00  0.00    -0.247 OA
HETATM   12  N   UNL     1     -40.226 -50.302  13.187  1.00  0.00    -0.338 N 
HETATM   13  H   UNL     1     -40.783 -50.980  13.701  1.00  0.00     0.164 HD
HETATM   14  H   UNL     1     -41.006 -51.689  10.383  1.00  0.00     0.172 HD
BRANCH  12  15
HETATM   15  C   UNL     1     -39.278 -49.538  13.920  1.00  0.00     0.090 A 
HETATM   16  C   UNL     1     -37.943 -50.179  14.243  1.00  0.00     0.032 A 
HETATM   17  C   UNL     1     -38.898 -49.838  15.351  1.00  0.00     0.006 A 
HETATM   18  C   UNL     1     -39.524 -50.933  16.145  1.00  0.00     0.012 C 
ENDBRANCH  12  15
ENDBRANCH   8   9
BRANCH   1  19
HETATM   19  O   UNL     1     -39.704 -53.344  13.011  1.00  0.00    -0.352 OA
HETATM   20  C   UNL     1     -39.135 -54.034  14.126  1.00  0.00     0.210 C 
ENDBRANCH   1  19
TORSDOF 3
ENDMDL
