MODEL 1
REMARK VINA RESULT:      -5.4      0.000      0.000
REMARK  2 active torsions:
REMARK  status: ('A' for Active; 'I' for Inactive)
REMARK    1  A    between atoms: C_4  and  C_5 
REMARK    2  A    between atoms: C_8  and  C_12 
ROOT
HETATM    1  C   UNL     2     -44.591 -47.380   9.390  1.00  0.00     0.147 A 
HETATM    2  N   UNL     2     -44.148 -47.135  10.632  1.00  0.00    -0.327 N 
ATOM      3  HN  UNL     2     -44.665 -46.778  11.435  1.00  0.00     0.169 HD
HETATM    4  C   UNL     2     -42.849 -47.480  10.552  1.00  0.00     0.109 A 
HETATM    5  N   UNL     2     -42.531 -47.917   9.316  1.00  0.00    -0.247 N 
ATOM      6  HN  UNL     2     -41.620 -48.238   8.991  1.00  0.00     0.196 HD
HETATM    7  O   UNL     2     -43.630 -47.845   8.627  1.00  0.00    -0.223 OA
ENDROOT
BRANCH   4   8
HETATM    8  C   UNL     2     -41.884 -47.338  11.704  1.00  0.00     0.083 C 
HETATM    9  C   UNL     2     -42.124 -46.005  12.437  1.00  0.00     0.016 C 
HETATM   10  C   UNL     2     -41.782 -44.826  11.518  1.00  0.00     0.031 C 
HETATM   11  C   UNL     2     -40.334 -44.956  11.029  1.00  0.00     0.269 C 
HETATM   12  N   UNL     2     -40.129 -46.243  10.343  1.00  0.00     0.084 N 
HETATM   13  C   UNL     2     -40.414 -47.378  11.236  1.00  0.00     0.281 C 
HETATM   14  H   UNL     2     -39.132 -46.302  10.033  1.00  0.00     0.315 HD
ENDBRANCH   4   8
BRANCH   1  15
HETATM   15  C   UNL     2     -45.993 -47.137   8.942  1.00  0.00     0.082 C 
HETATM   16  C   UNL     2     -46.774 -48.442   8.902  1.00  0.00     0.013 C 
ENDBRANCH   1  15
TORSDOF 2
ENDMDL
MODEL 2
REMARK VINA RESULT:      -5.2      6.117      6.700
REMARK  2 active torsions:
REMARK  status: ('A' for Active; 'I' for Inactive)
REMARK    1  A    between atoms: C_4  and  C_5 
REMARK    2  A    between atoms: C_8  and  C_12 
ROOT
HETATM    1  C   UNL     2     -45.276 -52.496  13.103  1.00  0.00     0.147 A 
HETATM    2  N   UNL     2     -44.200 -52.431  13.900  1.00  0.00    -0.327 N 
ATOM      3  HN  UNL     2     -44.033 -51.820  14.699  1.00  0.00     0.169 HD
HETATM    4  C   UNL     2     -43.394 -53.377  13.381  1.00  0.00     0.109 A 
HETATM    5  N   UNL     2     -43.968 -53.985  12.323  1.00  0.00    -0.247 N 
ATOM      6  HN  UNL     2     -43.574 -54.732  11.752  1.00  0.00     0.196 HD
HETATM    7  O   UNL     2     -45.129 -53.419  12.181  1.00  0.00    -0.223 OA
ENDROOT
BRANCH   4   8
HETATM    8  C   UNL     2     -42.010 -53.666  13.910  1.00  0.00     0.083 C 
HETATM    9  C   UNL     2     -41.406 -52.395  14.536  1.00  0.00     0.016 C 
HETATM   10  C   UNL     2     -41.178 -51.329  13.457  1.00  0.00     0.031 C 
HETATM   11  C   UNL     2     -40.284 -51.900  12.348  1.00  0.00     0.269 C 
HETATM   12  N   UNL     2     -40.879 -53.119  11.776  1.00  0.00     0.084 N 
HETATM   13  C   UNL     2     -41.059 -54.161  12.801  1.00  0.00     0.281 C 
HETATM   14  H   UNL     2     -40.241 -53.486  11.033  1.00  0.00     0.315 HD
ENDBRANCH   4   8
BRANCH   1  15
HETATM   15  C   UNL     2     -46.473 -51.617  13.247  1.00  0.00     0.082 C 
HETATM   16  C   UNL     2     -46.824 -51.431  14.716  1.00  0.00     0.013 C 
ENDBRANCH   1  15
TORSDOF 2
ENDMDL
MODEL 3
REMARK VINA RESULT:      -5.2      1.574      2.249
REMARK  2 active torsions:
REMARK  status: ('A' for Active; 'I' for Inactive)
REMARK    1  A    between atoms: C_4  and  C_5 
REMARK    2  A    between atoms: C_8  and  C_12 
ROOT
HETATM    1  C   UNL     2     -45.476 -47.369   9.179  1.00  0.00     0.147 A 
HETATM    2  N   UNL     2     -44.316 -47.757   9.730  1.00  0.00    -0.327 N 
ATOM      3  HN  UNL     2     -44.045 -48.681  10.065  1.00  0.00     0.169 HD
HETATM    4  C   UNL     2     -43.597 -46.618   9.729  1.00  0.00     0.109 A 
HETATM    5  N   UNL     2     -44.297 -45.596   9.196  1.00  0.00    -0.247 N 
ATOM      6  HN  UNL     2     -43.986 -44.632   9.076  1.00  0.00     0.196 HD
HETATM    7  O   UNL     2     -45.449 -46.095   8.865  1.00  0.00    -0.223 OA
ENDROOT
BRANCH   4   8
HETATM    8  C   UNL     2     -42.205 -46.519  10.303  1.00  0.00     0.083 C 
HETATM    9  C   UNL     2     -42.042 -47.504  11.476  1.00  0.00     0.016 C 
HETATM   10  C   UNL     2     -42.955 -47.096  12.640  1.00  0.00     0.031 C 
HETATM   11  C   UNL     2     -42.644 -45.653  13.058  1.00  0.00     0.269 C 
HETATM   12  N   UNL     2     -42.796 -44.736  11.917  1.00  0.00     0.084 N 
HETATM   13  C   UNL     2     -41.890 -45.097  10.814  1.00  0.00     0.281 C 
HETATM   14  H   UNL     2     -42.567 -43.765  12.234  1.00  0.00     0.315 HD
ENDBRANCH   4   8
BRANCH   1  15
HETATM   15  C   UNL     2     -46.643 -48.275   8.972  1.00  0.00     0.082 C 
HETATM   16  C   UNL     2     -46.490 -49.051   7.672  1.00  0.00     0.013 C 
ENDBRANCH   1  15
TORSDOF 2
ENDMDL
MODEL 4
REMARK VINA RESULT:      -5.2      6.215      6.918
REMARK  2 active torsions:
REMARK  status: ('A' for Active; 'I' for Inactive)
REMARK    1  A    between atoms: C_4  and  C_5 
REMARK    2  A    between atoms: C_8  and  C_12 
ROOT
HETATM    1  C   UNL     2     -45.228 -52.386  12.731  1.00  0.00     0.147 A 
HETATM    2  N   UNL     2     -44.009 -51.830  12.807  1.00  0.00    -0.327 N 
ATOM      3  HN  UNL     2     -43.761 -50.865  13.023  1.00  0.00     0.169 HD
HETATM    4  C   UNL     2     -43.198 -52.867  12.527  1.00  0.00     0.109 A 
HETATM    5  N   UNL     2     -43.901 -53.995  12.299  1.00  0.00    -0.247 N 
ATOM      6  HN  UNL     2     -43.531 -54.916  12.067  1.00  0.00     0.196 HD
HETATM    7  O   UNL     2     -45.149 -53.662  12.436  1.00  0.00    -0.223 OA
ENDROOT
BRANCH   4   8
HETATM    8  C   UNL     2     -41.696 -52.741  12.440  1.00  0.00     0.083 C 
HETATM    9  C   UNL     2     -41.026 -54.046  12.910  1.00  0.00     0.016 C 
HETATM   10  C   UNL     2     -41.295 -54.272  14.404  1.00  0.00     0.031 C 
HETATM   11  C   UNL     2     -40.806 -53.057  15.204  1.00  0.00     0.269 C 
HETATM   12  N   UNL     2     -41.453 -51.824  14.727  1.00  0.00     0.084 N 
HETATM   13  C   UNL     2     -41.161 -51.581  13.304  1.00  0.00     0.281 C 
HETATM   14  H   UNL     2     -41.090 -51.018  15.287  1.00  0.00     0.315 HD
ENDBRANCH   4   8
BRANCH   1  15
HETATM   15  C   UNL     2     -46.500 -51.635  12.941  1.00  0.00     0.082 C 
HETATM   16  C   UNL     2     -46.742 -51.403  14.425  1.00  0.00     0.013 C 
ENDBRANCH   1  15
TORSDOF 2
ENDMDL
MODEL 5
REMARK VINA RESULT:      -4.6      6.734      8.282
REMARK  2 active torsions:
REMARK  status: ('A' for Active; 'I' for Inactive)
REMARK    1  A    between atoms: C_4  and  C_5 
REMARK    2  A    between atoms: C_8  and  C_12 
ROOT
HETATM    1  C   UNL     2     -41.620 -53.761  13.151  1.00  0.00     0.147 A 
HETATM    2  N   UNL     2     -42.783 -54.198  13.656  1.00  0.00    -0.327 N 
ATOM      3  HN  UNL     2     -42.941 -54.835  14.437  1.00  0.00     0.169 HD
HETATM    4  C   UNL     2     -43.690 -53.583  12.875  1.00  0.00     0.109 A 
HETATM    5  N   UNL     2     -43.094 -52.807  11.946  1.00  0.00    -0.247 N 
ATOM      6  HN  UNL     2     -43.549 -52.237  11.234  1.00  0.00     0.196 HD
HETATM    7  O   UNL     2     -41.818 -52.939  12.147  1.00  0.00    -0.223 OA
ENDROOT
BRANCH   4   8
HETATM    8  C   UNL     2     -45.179 -53.791  13.014  1.00  0.00     0.083 C 
HETATM    9  C   UNL     2     -45.936 -52.525  12.570  1.00  0.00     0.016 C 
HETATM   10  C   UNL     2     -45.631 -51.363  13.525  1.00  0.00     0.031 C 
HETATM   11  C   UNL     2     -45.988 -51.769  14.961  1.00  0.00     0.269 C 
HETATM   12  N   UNL     2     -45.261 -52.987  15.355  1.00  0.00     0.084 N 
HETATM   13  C   UNL     2     -45.584 -54.116  14.467  1.00  0.00     0.281 C 
HETATM   14  H   UNL     2     -45.535 -53.240  16.332  1.00  0.00     0.315 HD
ENDBRANCH   4   8
BRANCH   1  15
HETATM   15  C   UNL     2     -40.281 -54.176  13.663  1.00  0.00     0.082 C 
HETATM   16  C   UNL     2     -39.457 -52.957  14.048  1.00  0.00     0.013 C 
ENDBRANCH   1  15
TORSDOF 2
ENDMDL
MODEL 6
REMARK VINA RESULT:      -4.5      1.654      2.770
REMARK  2 active torsions:
REMARK  status: ('A' for Active; 'I' for Inactive)
REMARK    1  A    between atoms: C_4  and  C_5 
REMARK    2  A    between atoms: C_8  and  C_12 
ROOT
HETATM    1  C   UNL     2     -44.043 -46.437   9.455  1.00  0.00     0.147 A 
HETATM    2  N   UNL     2     -43.886 -46.950  10.684  1.00  0.00    -0.327 N 
ATOM      3  HN  UNL     2     -44.594 -47.333  11.310  1.00  0.00     0.169 HD
HETATM    4  C   UNL     2     -42.560 -46.831  10.884  1.00  0.00     0.109 A 
HETATM    5  N   UNL     2     -41.950 -46.277   9.816  1.00  0.00    -0.247 N 
ATOM      6  HN  UNL     2     -40.956 -46.078   9.709  1.00  0.00     0.196 HD
HETATM    7  O   UNL     2     -42.893 -46.049   8.953  1.00  0.00    -0.223 OA
ENDROOT
BRANCH   4   8
HETATM    8  C   UNL     2     -41.878 -47.233  12.169  1.00  0.00     0.083 C 
HETATM    9  C   UNL     2     -40.532 -47.916  11.864  1.00  0.00     0.016 C 
HETATM   10  C   UNL     2     -40.765 -49.246  11.134  1.00  0.00     0.031 C 
HETATM   11  C   UNL     2     -41.683 -50.142  11.976  1.00  0.00     0.269 C 
HETATM   12  N   UNL     2     -42.956 -49.461  12.263  1.00  0.00     0.084 N 
HETATM   13  C   UNL     2     -42.740 -48.206  13.002  1.00  0.00     0.281 C 
HETATM   14  H   UNL     2     -43.552 -50.095  12.845  1.00  0.00     0.315 HD
ENDBRANCH   4   8
BRANCH   1  15
HETATM   15  C   UNL     2     -45.359 -46.315   8.764  1.00  0.00     0.082 C 
HETATM   16  C   UNL     2     -46.281 -47.456   9.169  1.00  0.00     0.013 C 
ENDBRANCH   1  15
TORSDOF 2
ENDMDL
MODEL 7
REMARK VINA RESULT:      -4.4      7.344      8.266
REMARK  2 active torsions:
REMARK  status: ('A' for Active; 'I' for Inactive)
REMARK    1  A    between atoms: C_4  and  C_5 
REMARK    2  A    between atoms: C_8  and  C_12 
ROOT
HETATM    1  C   UNL     2     -47.046 -51.867  15.412  1.00  0.00     0.147 A 
HETATM    2  N   UNL     2     -46.460 -53.062  15.240  1.00  0.00    -0.327 N 
ATOM      3  HN  UNL     2     -46.386 -53.836  15.899  1.00  0.00     0.169 HD
HETATM    4  C   UNL     2     -45.995 -52.981  13.979  1.00  0.00     0.109 A 
HETATM    5  N   UNL     2     -46.295 -51.791  13.420  1.00  0.00    -0.247 N 
ATOM      6  HN  UNL     2     -46.061 -51.475  12.479  1.00  0.00     0.196 HD
HETATM    7  O   UNL     2     -46.945 -51.130  14.330  1.00  0.00    -0.223 OA
ENDROOT
BRANCH   4   8
HETATM    8  C   UNL     2     -45.201 -54.081  13.319  1.00  0.00     0.083 C 
HETATM    9  C   UNL     2     -44.523 -54.961  14.386  1.00  0.00     0.016 C 
HETATM   10  C   UNL     2     -43.470 -54.148  15.151  1.00  0.00     0.031 C 
HETATM   11  C   UNL     2     -42.453 -53.563  14.162  1.00  0.00     0.269 C 
HETATM   12  N   UNL     2     -43.128 -52.738  13.147  1.00  0.00     0.084 N 
HETATM   13  C   UNL     2     -44.109 -53.525  12.381  1.00  0.00     0.281 C 
HETATM   14  H   UNL     2     -42.409 -52.364  12.486  1.00  0.00     0.315 HD
ENDBRANCH   4   8
BRANCH   1  15
HETATM   15  C   UNL     2     -47.707 -51.437  16.678  1.00  0.00     0.082 C 
HETATM   16  C   UNL     2     -46.763 -50.579  17.507  1.00  0.00     0.013 C 
ENDBRANCH   1  15
TORSDOF 2
ENDMDL
MODEL 8
REMARK VINA RESULT:      -4.3      7.593      8.954
REMARK  2 active torsions:
REMARK  status: ('A' for Active; 'I' for Inactive)
REMARK    1  A    between atoms: C_4  and  C_5 
REMARK    2  A    between atoms: C_8  and  C_12 
ROOT
HETATM    1  C   UNL     2     -42.755 -54.727  15.244  1.00  0.00     0.147 A 
HETATM    2  N   UNL     2     -42.774 -53.550  14.601  1.00  0.00    -0.327 N 
ATOM      3  HN  UNL     2     -42.110 -52.779  14.663  1.00  0.00     0.169 HD
HETATM    4  C   UNL     2     -43.891 -53.642  13.855  1.00  0.00     0.109 A 
HETATM    5  N   UNL     2     -44.509 -54.827  14.040  1.00  0.00    -0.247 N 
ATOM      6  HN  UNL     2     -45.369 -55.149  13.597  1.00  0.00     0.196 HD
HETATM    7  O   UNL     2     -43.780 -55.472  14.900  1.00  0.00    -0.223 OA
ENDROOT
BRANCH   4   8
HETATM    8  C   UNL     2     -44.388 -52.526  12.969  1.00  0.00     0.083 C 
HETATM    9  C   UNL     2     -44.327 -51.184  13.722  1.00  0.00     0.016 C 
HETATM   10  C   UNL     2     -45.311 -51.191  14.900  1.00  0.00     0.031 C 
HETATM   11  C   UNL     2     -46.725 -51.496  14.388  1.00  0.00     0.269 C 
HETATM   12  N   UNL     2     -46.752 -52.777  13.663  1.00  0.00     0.084 N 
HETATM   13  C   UNL     2     -45.841 -52.759  12.506  1.00  0.00     0.281 C 
HETATM   14  H   UNL     2     -47.726 -52.948  13.321  1.00  0.00     0.315 HD
ENDBRANCH   4   8
BRANCH   1  15
HETATM   15  C   UNL     2     -41.708 -55.121  16.230  1.00  0.00     0.082 C 
HETATM   16  C   UNL     2     -41.967 -56.528  16.749  1.00  0.00     0.013 C 
ENDBRANCH   1  15
TORSDOF 2
ENDMDL
MODEL 9
REMARK VINA RESULT:      -4.3      6.434      7.803
REMARK  2 active torsions:
REMARK  status: ('A' for Active; 'I' for Inactive)
REMARK    1  A    between atoms: C_4  and  C_5 
REMARK    2  A    between atoms: C_8  and  C_12 
ROOT
HETATM    1  C   UNL     2     -42.581 -52.421  12.486  1.00  0.00     0.147 A 
HETATM    2  N   UNL     2     -43.842 -51.967  12.537  1.00  0.00    -0.327 N 
ATOM      3  HN  UNL     2     -44.203 -51.053  12.265  1.00  0.00     0.169 HD
HETATM    4  C   UNL     2     -44.513 -53.022  13.038  1.00  0.00     0.109 A 
HETATM    5  N   UNL     2     -43.687 -54.064  13.270  1.00  0.00    -0.247 N 
ATOM      6  HN  UNL     2     -43.939 -54.978  13.646  1.00  0.00     0.196 HD
HETATM    7  O   UNL     2     -42.505 -53.659  12.916  1.00  0.00    -0.223 OA
ENDROOT
BRANCH   4   8
HETATM    8  C   UNL     2     -45.992 -52.996  13.335  1.00  0.00     0.083 C 
HETATM    9  C   UNL     2     -46.424 -51.580  13.758  1.00  0.00     0.016 C 
HETATM   10  C   UNL     2     -45.769 -51.203  15.094  1.00  0.00     0.031 C 
HETATM   11  C   UNL     2     -46.125 -52.251  16.156  1.00  0.00     0.269 C 
HETATM   12  N   UNL     2     -45.713 -53.596  15.721  1.00  0.00     0.084 N 
HETATM   13  C   UNL     2     -46.373 -53.978  14.462  1.00  0.00     0.281 C 
HETATM   14  H   UNL     2     -45.979 -54.284  16.463  1.00  0.00     0.315 HD
ENDBRANCH   4   8
BRANCH   1  15
HETATM   15  C   UNL     2     -41.422 -51.610  12.014  1.00  0.00     0.082 C 
HETATM   16  C   UNL     2     -41.746 -50.125  12.088  1.00  0.00     0.013 C 
ENDBRANCH   1  15
TORSDOF 2
ENDMDL
