MODEL 1
REMARK VINA RESULT:      -7.1      0.000      0.000
REMARK  6 active torsions:
REMARK  status: ('A' for Active; 'I' for Inactive)
REMARK    1  A    between atoms: C_1  and  C_11 
REMARK    2  A    between atoms: N_4  and  C_7 
REMARK    3  A    between atoms: N_5  and  C_19 
REMARK    4  A    between atoms: C_19  and  C_20 
REMARK    5  A    between atoms: C_20  and  C_26 
REMARK    6  A    between atoms: C_26  and  O_27 
ROOT
HETATM    1  C   UNL     1     -42.452 -49.570  12.326  1.00  0.00     0.117 A 
HETATM    2  N   UNL     1     -42.165 -51.333  13.634  1.00  0.00    -0.326 N 
HETATM    3  C   UNL     1     -41.608 -50.655  12.573  1.00  0.00     0.140 A 
HETATM    4  C   UNL     1     -42.063 -48.653  11.300  1.00  0.00     0.114 A 
HETATM    5  N   UNL     1     -43.527 -49.615  13.198  1.00  0.00    -0.346 N 
ATOM      6  HN  UNL     1     -44.313 -48.965  13.244  1.00  0.00     0.167 HD
HETATM    7  C   UNL     1     -43.324 -50.672  13.958  1.00  0.00     0.185 A 
HETATM    8  N   UNL     1     -40.470 -50.968  11.933  1.00  0.00    -0.336 N 
ATOM      9  HN  UNL     1     -39.887 -51.778  12.145  1.00  0.00     0.168 HD
HETATM   10  N   UNL     1     -40.913 -48.965  10.633  1.00  0.00    -0.341 N 
ATOM     11  HN  UNL     1     -40.588 -48.365   9.876  1.00  0.00     0.167 HD
HETATM   12  C   UNL     1     -40.206 -50.062  10.970  1.00  0.00     0.183 A 
ENDROOT
BRANCH   2  13
HETATM   13  C   UNL     1     -41.515 -52.358  14.443  1.00  0.00     0.143 C 
BRANCH  13  14
HETATM   14  C   UNL     1     -41.605 -53.850  13.977  1.00  0.00     0.001 C 
HETATM   15  C   UNL     1     -42.913 -54.150  13.211  1.00  0.00     0.039 C 
HETATM   16  C   UNL     1     -44.135 -54.162  14.124  1.00  0.00     0.168 C 
HETATM   17  O   UNL     1     -43.978 -55.140  15.146  1.00  0.00    -0.391 OA
HETATM   18  C   UNL     1     -42.871 -54.877  16.001  1.00  0.00     0.168 C 
HETATM   19  C   UNL     1     -41.563 -54.794  15.221  1.00  0.00     0.039 C 
BRANCH  14  20
HETATM   20  C   UNL     1     -40.396 -54.209  13.083  1.00  0.00     0.175 C 
BRANCH  20  21
HETATM   21  O   UNL     1     -40.630 -53.829  11.732  1.00  0.00    -0.400 OA
HETATM   22  H   UNL     1     -40.655 -54.650  11.198  1.00  0.00     0.209 HD
ENDBRANCH  20  21
ENDBRANCH  14  20
ENDBRANCH  13  14
ENDBRANCH   2  13
BRANCH   4  23
HETATM   23  N   UNL     1     -42.770 -47.481  10.937  1.00  0.00    -0.266 NA
HETATM   24  C   UNL     1     -42.064 -46.583   9.985  1.00  0.00     0.116 C 
HETATM   25  C   UNL     1     -41.445 -45.518  10.848  1.00  0.00     0.075 A 
HETATM   26  C   UNL     1     -42.152 -45.588  12.183  1.00  0.00     0.018 A 
HETATM   27  C   UNL     1     -42.268 -44.338  11.359  1.00  0.00     0.027 A 
HETATM   28  C   UNL     1     -43.193 -46.679  12.100  1.00  0.00     0.102 C 
BRANCH  25  29
HETATM   29  C   UNL     1     -39.977 -45.314  10.689  1.00  0.00     0.397 C 
HETATM   30  F   UNL     1     -39.688 -44.703   9.514  1.00  0.00    -0.170 F 
HETATM   31  F   UNL     1     -39.422 -44.582  11.678  1.00  0.00    -0.170 F 
HETATM   32  F   UNL     1     -39.348 -46.516  10.680  1.00  0.00    -0.170 F 
ENDBRANCH  25  29
ENDBRANCH   4  23
TORSDOF 6
ENDMDL
MODEL 2
REMARK VINA RESULT:      -6.7      4.090      7.798
REMARK  6 active torsions:
REMARK  status: ('A' for Active; 'I' for Inactive)
REMARK    1  A    between atoms: C_1  and  C_11 
REMARK    2  A    between atoms: N_4  and  C_7 
REMARK    3  A    between atoms: N_5  and  C_19 
REMARK    4  A    between atoms: C_19  and  C_20 
REMARK    5  A    between atoms: C_20  and  C_26 
REMARK    6  A    between atoms: C_26  and  O_27 
ROOT
HETATM    1  C   UNL     1     -41.660 -50.873  12.763  1.00  0.00     0.117 A 
HETATM    2  N   UNL     1     -40.721 -48.915  12.334  1.00  0.00    -0.326 N 
HETATM    3  C   UNL     1     -41.268 -49.668  13.348  1.00  0.00     0.140 A 
HETATM    4  C   UNL     1     -42.207 -51.877  13.622  1.00  0.00     0.114 A 
HETATM    5  N   UNL     1     -41.392 -50.834  11.404  1.00  0.00    -0.346 N 
ATOM      6  HN  UNL     1     -41.585 -51.562  10.716  1.00  0.00     0.167 HD
HETATM    7  C   UNL     1     -40.837 -49.659  11.186  1.00  0.00     0.185 A 
HETATM    8  N   UNL     1     -41.372 -49.315  14.640  1.00  0.00    -0.336 N 
ATOM      9  HN  UNL     1     -41.077 -48.416  15.023  1.00  0.00     0.168 HD
HETATM   10  N   UNL     1     -42.329 -51.526  14.936  1.00  0.00    -0.341 N 
ATOM     11  HN  UNL     1     -42.730 -52.187  15.602  1.00  0.00     0.167 HD
HETATM   12  C   UNL     1     -41.923 -50.313  15.360  1.00  0.00     0.183 A 
ENDROOT
BRANCH   2  13
HETATM   13  C   UNL     1     -39.915 -47.709  12.490  1.00  0.00     0.143 C 
BRANCH  13  14
HETATM   14  C   UNL     1     -40.645 -46.331  12.624  1.00  0.00     0.001 C 
HETATM   15  C   UNL     1     -42.019 -46.320  11.917  1.00  0.00     0.039 C 
HETATM   16  C   UNL     1     -41.894 -46.322  10.397  1.00  0.00     0.168 C 
HETATM   17  O   UNL     1     -41.156 -45.185   9.963  1.00  0.00    -0.391 OA
HETATM   18  C   UNL     1     -39.819 -45.170  10.451  1.00  0.00     0.168 C 
HETATM   19  C   UNL     1     -39.775 -45.208  11.975  1.00  0.00     0.039 C 
BRANCH  14  20
HETATM   20  C   UNL     1     -40.836 -45.965  14.114  1.00  0.00     0.175 C 
BRANCH  20  21
HETATM   21  O   UNL     1     -39.946 -46.707  14.940  1.00  0.00    -0.400 OA
HETATM   22  H   UNL     1     -39.034 -46.471  14.671  1.00  0.00     0.209 HD
ENDBRANCH  20  21
ENDBRANCH  14  20
ENDBRANCH  13  14
ENDBRANCH   2  13
BRANCH   4  23
HETATM   23  N   UNL     1     -42.622 -53.167  13.215  1.00  0.00    -0.266 NA
HETATM   24  C   UNL     1     -43.805 -53.199  12.312  1.00  0.00     0.116 C 
HETATM   25  C   UNL     1     -44.970 -53.494  13.217  1.00  0.00     0.075 A 
HETATM   26  C   UNL     1     -44.385 -54.036  14.501  1.00  0.00     0.018 A 
HETATM   27  C   UNL     1     -45.275 -54.918  13.673  1.00  0.00     0.027 A 
HETATM   28  C   UNL     1     -42.883 -54.075  14.347  1.00  0.00     0.102 C 
BRANCH  25  29
HETATM   29  C   UNL     1     -46.108 -52.534  13.156  1.00  0.00     0.397 C 
HETATM   30  F   UNL     1     -46.650 -52.487  11.914  1.00  0.00    -0.170 F 
HETATM   31  F   UNL     1     -47.102 -52.816  14.025  1.00  0.00    -0.170 F 
HETATM   32  F   UNL     1     -45.667 -51.284  13.446  1.00  0.00    -0.170 F 
ENDBRANCH  25  29
ENDBRANCH   4  23
TORSDOF 6
ENDMDL
MODEL 3
REMARK VINA RESULT:      -6.7      4.118      6.854
REMARK  6 active torsions:
REMARK  status: ('A' for Active; 'I' for Inactive)
REMARK    1  A    between atoms: C_1  and  C_11 
REMARK    2  A    between atoms: N_4  and  C_7 
REMARK    3  A    between atoms: N_5  and  C_19 
REMARK    4  A    between atoms: C_19  and  C_20 
REMARK    5  A    between atoms: C_20  and  C_26 
REMARK    6  A    between atoms: C_26  and  O_27 
ROOT
HETATM    1  C   UNL     1     -42.663 -51.815  12.559  1.00  0.00     0.117 A 
HETATM    2  N   UNL     1     -40.957 -50.405  12.501  1.00  0.00    -0.326 N 
HETATM    3  C   UNL     1     -41.272 -51.737  12.651  1.00  0.00     0.140 A 
HETATM    4  C   UNL     1     -43.255 -53.116  12.618  1.00  0.00     0.114 A 
HETATM    5  N   UNL     1     -43.187 -50.543  12.398  1.00  0.00    -0.346 N 
ATOM      6  HN  UNL     1     -44.171 -50.286  12.318  1.00  0.00     0.167 HD
HETATM    7  C   UNL     1     -42.147 -49.733  12.368  1.00  0.00     0.185 A 
HETATM    8  N   UNL     1     -40.406 -52.749  12.823  1.00  0.00    -0.336 N 
ATOM      9  HN  UNL     1     -39.393 -52.642  12.891  1.00  0.00     0.168 HD
HETATM   10  N   UNL     1     -42.387 -54.153  12.804  1.00  0.00    -0.341 N 
ATOM     11  HN  UNL     1     -42.743 -55.105  12.875  1.00  0.00     0.167 HD
HETATM   12  C   UNL     1     -41.061 -53.925  12.894  1.00  0.00     0.183 A 
ENDROOT
BRANCH   2  13
HETATM   13  C   UNL     1     -39.633 -49.853  12.235  1.00  0.00     0.143 C 
BRANCH  13  14
HETATM   14  C   UNL     1     -38.595 -49.800  13.404  1.00  0.00     0.001 C 
HETATM   15  C   UNL     1     -39.257 -49.972  14.790  1.00  0.00     0.039 C 
HETATM   16  C   UNL     1     -40.072 -48.750  15.203  1.00  0.00     0.168 C 
HETATM   17  O   UNL     1     -39.242 -47.594  15.242  1.00  0.00    -0.391 OA
HETATM   18  C   UNL     1     -38.687 -47.266  13.973  1.00  0.00     0.168 C 
HETATM   19  C   UNL     1     -37.867 -48.418  13.401  1.00  0.00     0.039 C 
BRANCH  14  20
HETATM   20  C   UNL     1     -37.516 -50.891  13.217  1.00  0.00     0.175 C 
BRANCH  20  21
HETATM   21  O   UNL     1     -37.603 -51.479  11.925  1.00  0.00    -0.400 OA
HETATM   22  H   UNL     1     -36.819 -51.184  11.417  1.00  0.00     0.209 HD
ENDBRANCH  20  21
ENDBRANCH  14  20
ENDBRANCH  13  14
ENDBRANCH   2  13
BRANCH   4  23
HETATM   23  N   UNL     1     -44.639 -53.392  12.505  1.00  0.00    -0.266 NA
HETATM   24  C   UNL     1     -45.543 -52.276  12.895  1.00  0.00     0.116 C 
HETATM   25  C   UNL     1     -45.954 -52.592  14.307  1.00  0.00     0.075 A 
HETATM   26  C   UNL     1     -45.633 -54.053  14.527  1.00  0.00     0.018 A 
HETATM   27  C   UNL     1     -47.063 -53.600  14.601  1.00  0.00     0.027 A 
HETATM   28  C   UNL     1     -45.050 -54.598  13.245  1.00  0.00     0.102 C 
BRANCH  25  29
HETATM   29  C   UNL     1     -45.715 -51.522  15.316  1.00  0.00     0.397 C 
HETATM   30  F   UNL     1     -46.875 -50.934  15.698  1.00  0.00    -0.170 F 
HETATM   31  F   UNL     1     -45.091 -51.958  16.431  1.00  0.00    -0.170 F 
HETATM   32  F   UNL     1     -44.935 -50.552  14.776  1.00  0.00    -0.170 F 
ENDBRANCH  25  29
ENDBRANCH   4  23
TORSDOF 6
ENDMDL
MODEL 4
REMARK VINA RESULT:      -6.6      3.937      7.628
REMARK  6 active torsions:
REMARK  status: ('A' for Active; 'I' for Inactive)
REMARK    1  A    between atoms: C_1  and  C_11 
REMARK    2  A    between atoms: N_4  and  C_7 
REMARK    3  A    between atoms: N_5  and  C_19 
REMARK    4  A    between atoms: C_19  and  C_20 
REMARK    5  A    between atoms: C_20  and  C_26 
REMARK    6  A    between atoms: C_26  and  O_27 
ROOT
HETATM    1  C   UNL     1     -40.340 -50.097  11.985  1.00  0.00     0.117 A 
HETATM    2  N   UNL     1     -40.389 -47.950  11.448  1.00  0.00    -0.326 N 
HETATM    3  C   UNL     1     -39.700 -48.875  12.200  1.00  0.00     0.140 A 
HETATM    4  C   UNL     1     -39.777 -51.255  12.607  1.00  0.00     0.114 A 
HETATM    5  N   UNL     1     -41.427 -49.908  11.146  1.00  0.00    -0.346 N 
ATOM      6  HN  UNL     1     -42.090 -50.614  10.826  1.00  0.00     0.167 HD
HETATM    7  C   UNL     1     -41.425 -48.624  10.849  1.00  0.00     0.185 A 
HETATM    8  N   UNL     1     -38.619 -48.642  12.961  1.00  0.00    -0.336 N 
ATOM      9  HN  UNL     1     -38.188 -47.727  13.094  1.00  0.00     0.168 HD
HETATM   10  N   UNL     1     -38.683 -51.030  13.393  1.00  0.00    -0.341 N 
ATOM     11  HN  UNL     1     -38.243 -51.808  13.883  1.00  0.00     0.167 HD
HETATM   12  C   UNL     1     -38.182 -49.786  13.524  1.00  0.00     0.183 A 
ENDROOT
BRANCH   2  13
HETATM   13  C   UNL     1     -39.942 -46.603  11.112  1.00  0.00     0.143 C 
BRANCH  13  14
HETATM   14  C   UNL     1     -40.736 -45.384  11.689  1.00  0.00     0.001 C 
HETATM   15  C   UNL     1     -39.872 -44.106  11.777  1.00  0.00     0.039 C 
HETATM   16  C   UNL     1     -38.821 -44.187  12.880  1.00  0.00     0.168 C 
HETATM   17  O   UNL     1     -39.445 -44.396  14.142  1.00  0.00    -0.391 OA
HETATM   18  C   UNL     1     -40.160 -45.625  14.212  1.00  0.00     0.168 C 
HETATM   19  C   UNL     1     -41.234 -45.714  13.132  1.00  0.00     0.039 C 
BRANCH  14  20
HETATM   20  C   UNL     1     -41.985 -45.096  10.824  1.00  0.00     0.175 C 
BRANCH  20  21
HETATM   21  O   UNL     1     -41.756 -45.447   9.464  1.00  0.00    -0.400 OA
HETATM   22  H   UNL     1     -41.193 -46.249   9.462  1.00  0.00     0.209 HD
ENDBRANCH  20  21
ENDBRANCH  14  20
ENDBRANCH  13  14
ENDBRANCH   2  13
BRANCH   4  23
HETATM   23  N   UNL     1     -40.265 -52.577  12.473  1.00  0.00    -0.266 NA
HETATM   24  C   UNL     1     -41.721 -52.691  12.192  1.00  0.00     0.116 C 
HETATM   25  C   UNL     1     -42.349 -52.971  13.531  1.00  0.00     0.075 A 
HETATM   26  C   UNL     1     -41.229 -53.426  14.439  1.00  0.00     0.018 A 
HETATM   27  C   UNL     1     -42.349 -54.378  14.125  1.00  0.00     0.027 A 
HETATM   28  C   UNL     1     -39.951 -53.430  13.634  1.00  0.00     0.102 C 
BRANCH  25  29
HETATM   29  C   UNL     1     -43.443 -52.050  13.949  1.00  0.00     0.397 C 
HETATM   30  F   UNL     1     -44.524 -52.165  13.139  1.00  0.00    -0.170 F 
HETATM   31  F   UNL     1     -43.860 -52.245  15.218  1.00  0.00    -0.170 F 
HETATM   32  F   UNL     1     -43.015 -50.764  13.863  1.00  0.00    -0.170 F 
ENDBRANCH  25  29
ENDBRANCH   4  23
TORSDOF 6
ENDMDL
MODEL 5
REMARK VINA RESULT:      -6.5      4.529      7.116
REMARK  6 active torsions:
REMARK  status: ('A' for Active; 'I' for Inactive)
REMARK    1  A    between atoms: C_1  and  C_11 
REMARK    2  A    between atoms: N_4  and  C_7 
REMARK    3  A    between atoms: N_5  and  C_19 
REMARK    4  A    between atoms: C_19  and  C_20 
REMARK    5  A    between atoms: C_20  and  C_26 
REMARK    6  A    between atoms: C_26  and  O_27 
ROOT
HETATM    1  C   UNL     1     -41.409 -52.428  14.062  1.00  0.00     0.117 A 
HETATM    2  N   UNL     1     -39.658 -51.351  14.885  1.00  0.00    -0.326 N 
HETATM    3  C   UNL     1     -40.590 -51.313  13.872  1.00  0.00     0.140 A 
HETATM    4  C   UNL     1     -42.515 -52.592  13.172  1.00  0.00     0.114 A 
HETATM    5  N   UNL     1     -40.953 -53.154  15.150  1.00  0.00    -0.346 N 
ATOM      6  HN  UNL     1     -41.340 -54.024  15.517  1.00  0.00     0.167 HD
HETATM    7  C   UNL     1     -39.915 -52.487  15.612  1.00  0.00     0.185 A 
HETATM    8  N   UNL     1     -40.696 -50.374  12.918  1.00  0.00    -0.336 N 
ATOM      9  HN  UNL     1     -40.068 -49.577  12.815  1.00  0.00     0.168 HD
HETATM   10  N   UNL     1     -42.629 -51.651  12.189  1.00  0.00    -0.341 N 
ATOM     11  HN  UNL     1     -43.383 -51.718  11.507  1.00  0.00     0.167 HD
HETATM   12  C   UNL     1     -41.748 -50.632  12.116  1.00  0.00     0.183 A 
ENDROOT
BRANCH   2  13
HETATM   13  C   UNL     1     -38.773 -50.264  15.288  1.00  0.00     0.143 C 
BRANCH  13  14
HETATM   14  C   UNL     1     -37.428 -50.066  14.513  1.00  0.00     0.001 C 
HETATM   15  C   UNL     1     -36.196 -50.125  15.445  1.00  0.00     0.039 C 
HETATM   16  C   UNL     1     -36.083 -48.896  16.341  1.00  0.00     0.168 C 
HETATM   17  O   UNL     1     -35.992 -47.716  15.551  1.00  0.00    -0.391 OA
HETATM   18  C   UNL     1     -37.147 -47.493  14.750  1.00  0.00     0.168 C 
HETATM   19  C   UNL     1     -37.422 -48.668  13.816  1.00  0.00     0.039 C 
BRANCH  14  20
HETATM   20  C   UNL     1     -37.280 -51.135  13.406  1.00  0.00     0.175 C 
BRANCH  20  21
HETATM   21  O   UNL     1     -37.661 -50.612  12.139  1.00  0.00    -0.400 OA
HETATM   22  H   UNL     1     -37.658 -49.636  12.213  1.00  0.00     0.209 HD
ENDBRANCH  20  21
ENDBRANCH  14  20
ENDBRANCH  13  14
ENDBRANCH   2  13
BRANCH   4  23
HETATM   23  N   UNL     1     -43.470 -53.636  13.234  1.00  0.00    -0.266 NA
HETATM   24  C   UNL     1     -44.731 -53.390  12.484  1.00  0.00     0.116 C 
HETATM   25  C   UNL     1     -45.708 -52.910  13.522  1.00  0.00     0.075 A 
HETATM   26  C   UNL     1     -45.127 -53.296  14.863  1.00  0.00     0.018 A 
HETATM   27  C   UNL     1     -46.438 -53.893  14.434  1.00  0.00     0.027 A 
HETATM   28  C   UNL     1     -43.822 -54.014  14.615  1.00  0.00     0.102 C 
BRANCH  25  29
HETATM   29  C   UNL     1     -46.375 -51.607  13.243  1.00  0.00     0.397 C 
HETATM   30  F   UNL     1     -47.160 -51.680  12.140  1.00  0.00    -0.170 F 
HETATM   31  F   UNL     1     -47.141 -51.162  14.261  1.00  0.00    -0.170 F 
HETATM   32  F   UNL     1     -45.437 -50.656  13.003  1.00  0.00    -0.170 F 
ENDBRANCH  25  29
ENDBRANCH   4  23
TORSDOF 6
ENDMDL
MODEL 6
REMARK VINA RESULT:      -6.5      4.314      7.814
REMARK  6 active torsions:
REMARK  status: ('A' for Active; 'I' for Inactive)
REMARK    1  A    between atoms: C_1  and  C_11 
REMARK    2  A    between atoms: N_4  and  C_7 
REMARK    3  A    between atoms: N_5  and  C_19 
REMARK    4  A    between atoms: C_19  and  C_20 
REMARK    5  A    between atoms: C_20  and  C_26 
REMARK    6  A    between atoms: C_26  and  O_27 
ROOT
HETATM    1  C   UNL     1     -41.660 -50.868  12.733  1.00  0.00     0.117 A 
HETATM    2  N   UNL     1     -40.722 -48.912  12.289  1.00  0.00    -0.326 N 
HETATM    3  C   UNL     1     -41.285 -49.651  13.305  1.00  0.00     0.140 A 
HETATM    4  C   UNL     1     -42.219 -51.859  13.599  1.00  0.00     0.114 A 
HETATM    5  N   UNL     1     -41.365 -50.850  11.379  1.00  0.00    -0.346 N 
ATOM      6  HN  UNL     1     -41.540 -51.592  10.700  1.00  0.00     0.167 HD
HETATM    7  C   UNL     1     -40.811 -49.677  11.152  1.00  0.00     0.185 A 
HETATM    8  N   UNL     1     -41.417 -49.276  14.588  1.00  0.00    -0.336 N 
ATOM      9  HN  UNL     1     -41.134 -48.369  14.961  1.00  0.00     0.168 HD
HETATM   10  N   UNL     1     -42.369 -51.487  14.904  1.00  0.00    -0.341 N 
ATOM     11  HN  UNL     1     -42.780 -52.137  15.572  1.00  0.00     0.167 HD
HETATM   12  C   UNL     1     -41.978 -50.264  15.314  1.00  0.00     0.183 A 
ENDROOT
BRANCH   2  13
HETATM   13  C   UNL     1     -39.925 -47.699  12.440  1.00  0.00     0.143 C 
BRANCH  13  14
HETATM   14  C   UNL     1     -40.571 -46.326  12.061  1.00  0.00     0.001 C 
HETATM   15  C   UNL     1     -39.575 -45.151  12.187  1.00  0.00     0.039 C 
HETATM   16  C   UNL     1     -39.250 -44.814  13.639  1.00  0.00     0.168 C 
HETATM   17  O   UNL     1     -40.439 -44.474  14.344  1.00  0.00    -0.391 OA
HETATM   18  C   UNL     1     -41.375 -45.544  14.406  1.00  0.00     0.168 C 
HETATM   19  C   UNL     1     -41.772 -46.027  13.014  1.00  0.00     0.039 C 
BRANCH  14  20
HETATM   20  C   UNL     1     -41.126 -46.370  10.618  1.00  0.00     0.175 C 
BRANCH  20  21
HETATM   21  O   UNL     1     -40.583 -45.316   9.831  1.00  0.00    -0.400 OA
HETATM   22  H   UNL     1     -39.608 -45.404   9.860  1.00  0.00     0.209 HD
ENDBRANCH  20  21
ENDBRANCH  14  20
ENDBRANCH  13  14
ENDBRANCH   2  13
BRANCH   4  23
HETATM   23  N   UNL     1     -42.620 -53.159  13.206  1.00  0.00    -0.266 NA
HETATM   24  C   UNL     1     -43.810 -53.214  12.315  1.00  0.00     0.116 C 
HETATM   25  C   UNL     1     -44.962 -53.518  13.233  1.00  0.00     0.075 A 
HETATM   26  C   UNL     1     -44.358 -54.041  14.516  1.00  0.00     0.018 A 
HETATM   27  C   UNL     1     -45.243 -54.943  13.703  1.00  0.00     0.027 A 
HETATM   28  C   UNL     1     -42.857 -54.060  14.348  1.00  0.00     0.102 C 
BRANCH  25  29
HETATM   29  C   UNL     1     -46.115 -52.575  13.175  1.00  0.00     0.397 C 
HETATM   30  F   UNL     1     -46.626 -52.495  11.922  1.00  0.00    -0.170 F 
HETATM   31  F   UNL     1     -47.124 -52.902  14.010  1.00  0.00    -0.170 F 
HETATM   32  F   UNL     1     -45.702 -51.328  13.518  1.00  0.00    -0.170 F 
ENDBRANCH  25  29
ENDBRANCH   4  23
TORSDOF 6
ENDMDL
MODEL 7
REMARK VINA RESULT:      -6.3      2.089      2.379
REMARK  6 active torsions:
REMARK  status: ('A' for Active; 'I' for Inactive)
REMARK    1  A    between atoms: C_1  and  C_11 
REMARK    2  A    between atoms: N_4  and  C_7 
REMARK    3  A    between atoms: N_5  and  C_19 
REMARK    4  A    between atoms: C_19  and  C_20 
REMARK    5  A    between atoms: C_20  and  C_26 
REMARK    6  A    between atoms: C_26  and  O_27 
ROOT
HETATM    1  C   UNL     1     -41.627 -48.486  14.103  1.00  0.00     0.117 A 
HETATM    2  N   UNL     1     -42.283 -50.599  14.179  1.00  0.00    -0.326 N 
HETATM    3  C   UNL     1     -41.165 -49.796  14.236  1.00  0.00     0.140 A 
HETATM    4  C   UNL     1     -40.662 -47.434  14.196  1.00  0.00     0.114 A 
HETATM    5  N   UNL     1     -43.001 -48.497  13.926  1.00  0.00    -0.346 N 
ATOM      6  HN  UNL     1     -43.612 -47.691  13.787  1.00  0.00     0.167 HD
HETATM    7  C   UNL     1     -43.354 -49.765  13.976  1.00  0.00     0.185 A 
HETATM    8  N   UNL     1     -39.897 -50.203  14.410  1.00  0.00    -0.336 N 
ATOM      9  HN  UNL     1     -39.605 -51.177  14.496  1.00  0.00     0.168 HD
HETATM   10  N   UNL     1     -39.367 -47.834  14.362  1.00  0.00    -0.341 N 
ATOM     11  HN  UNL     1     -38.624 -47.137  14.416  1.00  0.00     0.167 HD
HETATM   12  C   UNL     1     -39.064 -49.144  14.456  1.00  0.00     0.183 A 
ENDROOT
BRANCH   2  13
HETATM   13  C   UNL     1     -42.357 -52.006  14.554  1.00  0.00     0.143 C 
BRANCH  13  14
HETATM   14  C   UNL     1     -42.243 -53.089  13.431  1.00  0.00     0.001 C 
HETATM   15  C   UNL     1     -43.193 -52.810  12.244  1.00  0.00     0.039 C 
HETATM   16  C   UNL     1     -44.657 -53.054  12.597  1.00  0.00     0.168 C 
HETATM   17  O   UNL     1     -44.845 -54.402  13.014  1.00  0.00    -0.391 OA
HETATM   18  C   UNL     1     -44.114 -54.726  14.192  1.00  0.00     0.168 C 
HETATM   19  C   UNL     1     -42.617 -54.491  14.010  1.00  0.00     0.039 C 
BRANCH  14  20
HETATM   20  C   UNL     1     -40.790 -53.177  12.911  1.00  0.00     0.175 C 
BRANCH  20  21
HETATM   21  O   UNL     1     -40.620 -54.304  12.059  1.00  0.00    -0.400 OA
HETATM   22  H   UNL     1     -41.504 -54.706  11.929  1.00  0.00     0.209 HD
ENDBRANCH  20  21
ENDBRANCH  14  20
ENDBRANCH  13  14
ENDBRANCH   2  13
BRANCH   4  23
HETATM   23  N   UNL     1     -40.949 -46.050  14.124  1.00  0.00    -0.266 NA
HETATM   24  C   UNL     1     -41.479 -45.579  12.816  1.00  0.00     0.116 C 
HETATM   25  C   UNL     1     -40.284 -45.010  12.100  1.00  0.00     0.075 A 
HETATM   26  C   UNL     1     -39.225 -44.784  13.154  1.00  0.00     0.018 A 
HETATM   27  C   UNL     1     -39.776 -43.603  12.406  1.00  0.00     0.027 A 
HETATM   28  C   UNL     1     -39.799 -45.202  14.487  1.00  0.00     0.102 C 
BRANCH  25  29
HETATM   29  C   UNL     1     -40.009 -45.559  10.742  1.00  0.00     0.397 C 
HETATM   30  F   UNL     1     -41.118 -45.532   9.964  1.00  0.00    -0.170 F 
HETATM   31  F   UNL     1     -39.029 -44.906  10.082  1.00  0.00    -0.170 F 
HETATM   32  F   UNL     1     -39.624 -46.857  10.844  1.00  0.00    -0.170 F 
ENDBRANCH  25  29
ENDBRANCH   4  23
TORSDOF 6
ENDMDL
MODEL 8
REMARK VINA RESULT:      -6.3      4.481      6.863
REMARK  6 active torsions:
REMARK  status: ('A' for Active; 'I' for Inactive)
REMARK    1  A    between atoms: C_1  and  C_11 
REMARK    2  A    between atoms: N_4  and  C_7 
REMARK    3  A    between atoms: N_5  and  C_19 
REMARK    4  A    between atoms: C_19  and  C_20 
REMARK    5  A    between atoms: C_20  and  C_26 
REMARK    6  A    between atoms: C_26  and  O_27 
ROOT
HETATM    1  C   UNL     1     -40.838 -52.639  13.378  1.00  0.00     0.117 A 
HETATM    2  N   UNL     1     -38.849 -51.769  13.811  1.00  0.00    -0.326 N 
HETATM    3  C   UNL     1     -40.023 -51.533  13.131  1.00  0.00     0.140 A 
HETATM    4  C   UNL     1     -42.160 -52.618  12.834  1.00  0.00     0.114 A 
HETATM    5  N   UNL     1     -40.151 -53.552  14.161  1.00  0.00    -0.346 N 
ATOM      6  HN  UNL     1     -40.484 -54.460  14.487  1.00  0.00     0.167 HD
HETATM    7  C   UNL     1     -38.977 -53.003  14.398  1.00  0.00     0.185 A 
HETATM    8  N   UNL     1     -40.322 -50.443  12.406  1.00  0.00    -0.336 N 
ATOM      9  HN  UNL     1     -39.689 -49.658  12.248  1.00  0.00     0.168 HD
HETATM   10  N   UNL     1     -42.473 -51.521  12.084  1.00  0.00    -0.341 N 
ATOM     11  HN  UNL     1     -43.393 -51.449  11.649  1.00  0.00     0.167 HD
HETATM   12  C   UNL     1     -41.574 -50.531  11.915  1.00  0.00     0.183 A 
ENDROOT
BRANCH   2  13
HETATM   13  C   UNL     1     -37.805 -50.792  14.100  1.00  0.00     0.143 C 
BRANCH  13  14
HETATM   14  C   UNL     1     -37.991 -49.838  15.327  1.00  0.00     0.001 C 
HETATM   15  C   UNL     1     -36.688 -49.094  15.698  1.00  0.00     0.039 C 
HETATM   16  C   UNL     1     -35.649 -50.016  16.329  1.00  0.00     0.168 C 
HETATM   17  O   UNL     1     -36.174 -50.617  17.507  1.00  0.00    -0.391 OA
HETATM   18  C   UNL     1     -37.305 -51.443  17.253  1.00  0.00     0.168 C 
HETATM   19  C   UNL     1     -38.431 -50.665  16.577  1.00  0.00     0.039 C 
BRANCH  14  20
HETATM   20  C   UNL     1     -39.104 -48.804  15.042  1.00  0.00     0.175 C 
BRANCH  20  21
HETATM   21  O   UNL     1     -38.925 -48.199  13.767  1.00  0.00    -0.400 OA
HETATM   22  H   UNL     1     -38.075 -48.527  13.406  1.00  0.00     0.209 HD
ENDBRANCH  20  21
ENDBRANCH  14  20
ENDBRANCH  13  14
ENDBRANCH   2  13
BRANCH   4  23
HETATM   23  N   UNL     1     -43.136 -53.629  13.011  1.00  0.00    -0.266 NA
HETATM   24  C   UNL     1     -44.467 -53.339  12.414  1.00  0.00     0.116 C 
HETATM   25  C   UNL     1     -45.298 -52.828  13.560  1.00  0.00     0.075 A 
HETATM   26  C   UNL     1     -44.576 -53.237  14.823  1.00  0.00     0.018 A 
HETATM   27  C   UNL     1     -45.948 -53.788  14.553  1.00  0.00     0.027 A 
HETATM   28  C   UNL     1     -43.335 -53.999  14.424  1.00  0.00     0.102 C 
BRANCH  25  29
HETATM   29  C   UNL     1     -45.949 -51.502  13.360  1.00  0.00     0.397 C 
HETATM   30  F   UNL     1     -46.591 -51.442  12.167  1.00  0.00    -0.170 F 
HETATM   31  F   UNL     1     -46.841 -51.187  14.322  1.00  0.00    -0.170 F 
HETATM   32  F   UNL     1     -45.005 -50.527  13.355  1.00  0.00    -0.170 F 
ENDBRANCH  25  29
ENDBRANCH   4  23
TORSDOF 6
ENDMDL
MODEL 9
REMARK VINA RESULT:      -6.2      2.027      2.487
REMARK  6 active torsions:
REMARK  status: ('A' for Active; 'I' for Inactive)
REMARK    1  A    between atoms: C_1  and  C_11 
REMARK    2  A    between atoms: N_4  and  C_7 
REMARK    3  A    between atoms: N_5  and  C_19 
REMARK    4  A    between atoms: C_19  and  C_20 
REMARK    5  A    between atoms: C_20  and  C_26 
REMARK    6  A    between atoms: C_26  and  O_27 
ROOT
HETATM    1  C   UNL     1     -42.241 -49.825  12.478  1.00  0.00     0.117 A 
HETATM    2  N   UNL     1     -42.726 -51.975  12.690  1.00  0.00    -0.326 N 
HETATM    3  C   UNL     1     -41.722 -51.110  12.315  1.00  0.00     0.140 A 
HETATM    4  C   UNL     1     -41.368 -48.723  12.216  1.00  0.00     0.114 A 
HETATM    5  N   UNL     1     -43.557 -49.910  12.906  1.00  0.00    -0.346 N 
ATOM      6  HN  UNL     1     -44.196 -49.137  13.093  1.00  0.00     0.167 HD
HETATM    7  C   UNL     1     -43.809 -51.198  13.021  1.00  0.00     0.185 A 
HETATM    8  N   UNL     1     -40.489 -51.447  11.904  1.00  0.00    -0.336 N 
ATOM      9  HN  UNL     1     -40.154 -52.405  11.793  1.00  0.00     0.168 HD
HETATM   10  N   UNL     1     -40.115 -49.051  11.786  1.00  0.00    -0.341 N 
ATOM     11  HN  UNL     1     -39.447 -48.315  11.561  1.00  0.00     0.167 HD
HETATM   12  C   UNL     1     -39.755 -50.344  11.656  1.00  0.00     0.183 A 
ENDROOT
BRANCH   2  13
HETATM   13  C   UNL     1     -42.581 -53.399  12.970  1.00  0.00     0.143 C 
BRANCH  13  14
HETATM   14  C   UNL     1     -41.822 -53.835  14.267  1.00  0.00     0.001 C 
HETATM   15  C   UNL     1     -42.533 -54.991  15.007  1.00  0.00     0.039 C 
HETATM   16  C   UNL     1     -43.825 -54.544  15.683  1.00  0.00     0.168 C 
HETATM   17  O   UNL     1     -43.557 -53.508  16.622  1.00  0.00    -0.391 OA
HETATM   18  C   UNL     1     -43.023 -52.335  16.017  1.00  0.00     0.168 C 
HETATM   19  C   UNL     1     -41.734 -52.630  15.257  1.00  0.00     0.039 C 
BRANCH  14  20
HETATM   20  C   UNL     1     -40.375 -54.261  13.928  1.00  0.00     0.175 C 
BRANCH  20  21
HETATM   21  O   UNL     1     -40.181 -54.331  12.520  1.00  0.00    -0.400 OA
HETATM   22  H   UNL     1     -39.858 -53.454  12.227  1.00  0.00     0.209 HD
ENDBRANCH  20  21
ENDBRANCH  14  20
ENDBRANCH  13  14
ENDBRANCH   2  13
BRANCH   4  23
HETATM   23  N   UNL     1     -41.707 -47.356  12.363  1.00  0.00    -0.266 NA
HETATM   24  C   UNL     1     -43.106 -47.005  11.995  1.00  0.00     0.116 C 
HETATM   25  C   UNL     1     -43.011 -46.468  10.593  1.00  0.00     0.075 A 
HETATM   26  C   UNL     1     -41.555 -46.132  10.364  1.00  0.00     0.018 A 
HETATM   27  C   UNL     1     -42.575 -45.030  10.326  1.00  0.00     0.027 A 
HETATM   28  C   UNL     1     -40.799 -46.454  11.631  1.00  0.00     0.102 C 
BRANCH  25  29
HETATM   29  C   UNL     1     -43.888 -47.119   9.579  1.00  0.00     0.397 C 
HETATM   30  F   UNL     1     -44.547 -46.200   8.832  1.00  0.00    -0.170 F 
HETATM   31  F   UNL     1     -43.225 -47.936   8.733  1.00  0.00    -0.170 F 
HETATM   32  F   UNL     1     -44.828 -47.872  10.205  1.00  0.00    -0.170 F 
ENDBRANCH  25  29
ENDBRANCH   4  23
TORSDOF 6
ENDMDL
