MODEL 1
REMARK VINA RESULT:      -6.4      0.000      0.000
REMARK  5 active torsions:
REMARK  status: ('A' for Active; 'I' for Inactive)
REMARK    1  A    between atoms: C_2  and  O_3 
REMARK    2  A    between atoms: O_3  and  C_4 
REMARK    3  A    between atoms: C_10  and  N_11 
REMARK       I    between atoms: N_11  and  C_12 
REMARK       I    between atoms: C_12  and  N_14 
REMARK    4  A    between atoms: N_14  and  C_15 
REMARK    5  A    between atoms: N_19  and  S_21 
ROOT
HETATM    1  N   UNL     1     -40.984 -50.852  11.595  1.00  0.00    -0.305 N 
HETATM    2  C   UNL     1     -41.835 -49.878  12.065  1.00  0.00     0.321 C 
HETATM    3  O   UNL     1     -42.172 -49.741  13.239  1.00  0.00    -0.247 OA
HETATM    4  N   UNL     1     -42.276 -49.039  11.069  1.00  0.00    -0.337 N 
HETATM    5  H   UNL     1     -40.324 -50.548  10.889  1.00  0.00     0.171 HD
HETATM    6  H   UNL     1     -42.461 -49.530  10.203  1.00  0.00     0.164 HD
ENDROOT
BRANCH   1   7
HETATM    7  C   UNL     1     -40.576 -51.947  12.400  1.00  0.00     0.087 A 
HETATM    8  C   UNL     1     -39.415 -51.919  13.179  1.00  0.00     0.169 A 
HETATM    9  N   UNL     1     -38.957 -52.985  13.881  1.00  0.00    -0.345 N 
HETATM   10  C   UNL     1     -39.710 -54.100  13.882  1.00  0.00     0.090 A 
ATOM     11  HN  UNL     1     -38.074 -52.943  14.389  1.00  0.00     0.167 HD
HETATM   12  C   UNL     1     -40.905 -54.209  13.201  1.00  0.00     0.019 A 
HETATM   13  C   UNL     1     -41.332 -53.123  12.437  1.00  0.00     0.035 A 
BRANCH   8  14
HETATM   14  O   UNL     1     -38.752 -50.710  13.367  1.00  0.00    -0.334 OA
BRANCH  14  15
HETATM   15  C   UNL     1     -37.462 -50.791  12.732  1.00  0.00     0.173 C 
HETATM   16  C   UNL     1     -37.441 -50.048  11.411  1.00  0.00     0.034 C 
ENDBRANCH  14  15
ENDBRANCH   8  14
ENDBRANCH   1   7
BRANCH   4  17
HETATM   17  C   UNL     1     -43.193 -47.934  11.400  1.00  0.00     0.100 C 
HETATM   18  C   UNL     1     -44.223 -47.715  10.285  1.00  0.00     0.028 C 
HETATM   19  C   UNL     1     -43.555 -47.180   9.022  1.00  0.00     0.018 C 
HETATM   20  C   UNL     1     -42.779 -45.894   9.291  1.00  0.00     0.107 C 
HETATM   21  N   UNL     1     -41.808 -46.088  10.402  1.00  0.00    -0.209 NA
HETATM   22  C   UNL     1     -42.459 -46.598  11.655  1.00  0.00     0.132 C 
BRANCH  21  23
HETATM   23  S   UNL     1     -40.786 -44.736  10.664  1.00  0.00     0.207 S 
HETATM   24  O   UNL     1     -39.735 -44.762   9.678  1.00  0.00    -0.212 OA
HETATM   25  O   UNL     1     -41.630 -43.564  10.830  1.00  0.00    -0.212 OA
HETATM   26  C   UNL     1     -40.055 -45.154  12.229  1.00  0.00     0.180 C 
ENDBRANCH  21  23
ENDBRANCH   4  17
TORSDOF 5
ENDMDL
MODEL 2
REMARK VINA RESULT:      -6.1      3.473      7.990
REMARK  5 active torsions:
REMARK  status: ('A' for Active; 'I' for Inactive)
REMARK    1  A    between atoms: C_2  and  O_3 
REMARK    2  A    between atoms: O_3  and  C_4 
REMARK    3  A    between atoms: C_10  and  N_11 
REMARK       I    between atoms: N_11  and  C_12 
REMARK       I    between atoms: C_12  and  N_14 
REMARK    4  A    between atoms: N_14  and  C_15 
REMARK    5  A    between atoms: N_19  and  S_21 
ROOT
HETATM    1  N   UNL     1     -42.273 -49.081  11.120  1.00  0.00    -0.305 N 
HETATM    2  C   UNL     1     -42.073 -49.497  12.417  1.00  0.00     0.321 C 
HETATM    3  O   UNL     1     -42.160 -48.778  13.410  1.00  0.00    -0.247 OA
HETATM    4  N   UNL     1     -41.770 -50.836  12.501  1.00  0.00    -0.337 N 
HETATM    5  H   UNL     1     -42.778 -49.731  10.530  1.00  0.00     0.171 HD
HETATM    6  H   UNL     1     -41.168 -51.144  11.748  1.00  0.00     0.164 HD
ENDROOT
BRANCH   1   7
HETATM    7  C   UNL     1     -42.387 -47.709  10.779  1.00  0.00     0.087 A 
HETATM    8  C   UNL     1     -43.564 -47.155  10.270  1.00  0.00     0.169 A 
HETATM    9  N   UNL     1     -43.668 -45.869   9.850  1.00  0.00    -0.345 N 
HETATM   10  C   UNL     1     -42.594 -45.074  10.009  1.00  0.00     0.090 A 
ATOM     11  HN  UNL     1     -44.527 -45.518   9.428  1.00  0.00     0.167 HD
HETATM   12  C   UNL     1     -41.406 -45.506  10.562  1.00  0.00     0.019 A 
HETATM   13  C   UNL     1     -41.299 -46.845  10.935  1.00  0.00     0.035 A 
BRANCH   8  14
HETATM   14  O   UNL     1     -44.739 -47.899  10.310  1.00  0.00    -0.334 OA
BRANCH  14  15
HETATM   15  C   UNL     1     -45.651 -47.370   9.328  1.00  0.00     0.173 C 
HETATM   16  C   UNL     1     -46.636 -48.421   8.856  1.00  0.00     0.034 C 
ENDBRANCH  14  15
ENDBRANCH   8  14
ENDBRANCH   1   7
BRANCH   4  17
HETATM   17  C   UNL     1     -41.532 -51.448  13.819  1.00  0.00     0.100 C 
HETATM   18  C   UNL     1     -40.351 -52.425  13.771  1.00  0.00     0.028 C 
HETATM   19  C   UNL     1     -40.691 -53.652  12.930  1.00  0.00     0.018 C 
HETATM   20  C   UNL     1     -41.947 -54.357  13.437  1.00  0.00     0.107 C 
HETATM   21  N   UNL     1     -43.086 -53.403  13.528  1.00  0.00    -0.209 NA
HETATM   22  C   UNL     1     -42.765 -52.200  14.368  1.00  0.00     0.132 C 
BRANCH  21  23
HETATM   23  S   UNL     1     -44.574 -54.148  13.940  1.00  0.00     0.207 S 
HETATM   24  O   UNL     1     -45.188 -54.639  12.731  1.00  0.00    -0.212 OA
HETATM   25  O   UNL     1     -44.333 -55.030  15.071  1.00  0.00    -0.212 OA
HETATM   26  C   UNL     1     -45.522 -52.747  14.485  1.00  0.00     0.180 C 
ENDBRANCH  21  23
ENDBRANCH   4  17
TORSDOF 5
ENDMDL
MODEL 3
REMARK VINA RESULT:      -6.1      3.019      4.403
REMARK  5 active torsions:
REMARK  status: ('A' for Active; 'I' for Inactive)
REMARK    1  A    between atoms: C_2  and  O_3 
REMARK    2  A    between atoms: O_3  and  C_4 
REMARK    3  A    between atoms: C_10  and  N_11 
REMARK       I    between atoms: N_11  and  C_12 
REMARK       I    between atoms: C_12  and  N_14 
REMARK    4  A    between atoms: N_14  and  C_15 
REMARK    5  A    between atoms: N_19  and  S_21 
ROOT
HETATM    1  N   UNL     1     -42.765 -51.040  13.528  1.00  0.00    -0.305 N 
HETATM    2  C   UNL     1     -41.954 -50.619  12.498  1.00  0.00     0.321 C 
HETATM    3  O   UNL     1     -41.304 -51.360  11.763  1.00  0.00    -0.247 OA
HETATM    4  N   UNL     1     -41.948 -49.252  12.356  1.00  0.00    -0.337 N 
HETATM    5  H   UNL     1     -43.640 -50.537  13.623  1.00  0.00     0.171 HD
HETATM    6  H   UNL     1     -41.963 -48.770  13.246  1.00  0.00     0.164 HD
ENDROOT
BRANCH   1   7
HETATM    7  C   UNL     1     -42.761 -52.381  13.989  1.00  0.00     0.087 A 
HETATM    8  C   UNL     1     -43.701 -53.326  13.567  1.00  0.00     0.169 A 
HETATM    9  N   UNL     1     -43.773 -54.586  14.065  1.00  0.00    -0.345 N 
HETATM   10  C   UNL     1     -42.836 -54.958  14.955  1.00  0.00     0.090 A 
ATOM     11  HN  UNL     1     -44.511 -55.227  13.774  1.00  0.00     0.167 HD
HETATM   12  C   UNL     1     -41.827 -54.123  15.388  1.00  0.00     0.019 A 
HETATM   13  C   UNL     1     -41.801 -52.814  14.909  1.00  0.00     0.035 A 
BRANCH   8  14
HETATM   14  O   UNL     1     -44.527 -53.027  12.489  1.00  0.00    -0.334 OA
BRANCH  14  15
HETATM   15  C   UNL     1     -45.892 -53.002  12.950  1.00  0.00     0.173 C 
HETATM   16  C   UNL     1     -46.414 -51.585  13.074  1.00  0.00     0.034 C 
ENDBRANCH  14  15
ENDBRANCH   8  14
ENDBRANCH   1   7
BRANCH   4  17
HETATM   17  C   UNL     1     -41.135 -48.632  11.295  1.00  0.00     0.100 C 
HETATM   18  C   UNL     1     -40.384 -47.401  11.818  1.00  0.00     0.028 C 
HETATM   19  C   UNL     1     -41.354 -46.271  12.149  1.00  0.00     0.018 C 
HETATM   20  C   UNL     1     -42.221 -45.897  10.950  1.00  0.00     0.107 C 
HETATM   21  N   UNL     1     -42.917 -47.096  10.410  1.00  0.00    -0.209 NA
HETATM   22  C   UNL     1     -41.969 -48.208  10.065  1.00  0.00     0.132 C 
BRANCH  21  23
HETATM   23  S   UNL     1     -44.033 -46.736   9.158  1.00  0.00     0.207 S 
HETATM   24  O   UNL     1     -45.334 -47.210   9.558  1.00  0.00    -0.212 OA
HETATM   25  O   UNL     1     -43.827 -45.353   8.762  1.00  0.00    -0.212 OA
HETATM   26  C   UNL     1     -43.454 -47.806   7.862  1.00  0.00     0.180 C 
ENDBRANCH  21  23
ENDBRANCH   4  17
TORSDOF 5
ENDMDL
MODEL 4
REMARK VINA RESULT:      -6.0      3.409      4.774
REMARK  5 active torsions:
REMARK  status: ('A' for Active; 'I' for Inactive)
REMARK    1  A    between atoms: C_2  and  O_3 
REMARK    2  A    between atoms: O_3  and  C_4 
REMARK    3  A    between atoms: C_10  and  N_11 
REMARK       I    between atoms: N_11  and  C_12 
REMARK       I    between atoms: C_12  and  N_14 
REMARK    4  A    between atoms: N_14  and  C_15 
REMARK    5  A    between atoms: N_19  and  S_21 
ROOT
HETATM    1  N   UNL     1     -43.114 -51.926  12.543  1.00  0.00    -0.305 N 
HETATM    2  C   UNL     1     -43.319 -50.646  13.005  1.00  0.00     0.321 C 
HETATM    3  O   UNL     1     -43.888 -50.357  14.055  1.00  0.00    -0.247 OA
HETATM    4  N   UNL     1     -42.802 -49.692  12.161  1.00  0.00    -0.337 N 
HETATM    5  H   UNL     1     -42.210 -52.094  12.117  1.00  0.00     0.171 HD
HETATM    6  H   UNL     1     -42.929 -49.928  11.185  1.00  0.00     0.164 HD
ENDROOT
BRANCH   1   7
HETATM    7  C   UNL     1     -43.742 -53.051  13.138  1.00  0.00     0.087 A 
HETATM    8  C   UNL     1     -45.051 -53.433  12.831  1.00  0.00     0.169 A 
HETATM    9  N   UNL     1     -45.703 -54.446  13.455  1.00  0.00    -0.345 N 
HETATM   10  C   UNL     1     -45.015 -55.163  14.362  1.00  0.00     0.090 A 
ATOM     11  HN  UNL     1     -46.679 -54.655  13.245  1.00  0.00     0.167 HD
HETATM   12  C   UNL     1     -43.699 -54.910  14.689  1.00  0.00     0.019 A 
HETATM   13  C   UNL     1     -43.062 -53.829  14.080  1.00  0.00     0.035 A 
BRANCH   8  14
HETATM   14  O   UNL     1     -45.693 -52.849  11.744  1.00  0.00    -0.334 OA
BRANCH  14  15
HETATM   15  C   UNL     1     -46.701 -51.946  12.236  1.00  0.00     0.173 C 
HETATM   16  C   UNL     1     -47.540 -51.375  11.110  1.00  0.00     0.034 C 
ENDBRANCH  14  15
ENDBRANCH   8  14
ENDBRANCH   1   7
BRANCH   4  17
HETATM   17  C   UNL     1     -42.929 -48.266  12.507  1.00  0.00     0.100 C 
HETATM   18  C   UNL     1     -42.989 -47.392  11.248  1.00  0.00     0.028 C 
HETATM   19  C   UNL     1     -41.651 -47.402  10.513  1.00  0.00     0.018 C 
HETATM   20  C   UNL     1     -40.504 -46.958  11.416  1.00  0.00     0.107 C 
HETATM   21  N   UNL     1     -40.469 -47.774  12.662  1.00  0.00    -0.209 NA
HETATM   22  C   UNL     1     -41.775 -47.757  13.400  1.00  0.00     0.132 C 
BRANCH  21  23
HETATM   23  S   UNL     1     -39.114 -47.444  13.660  1.00  0.00     0.207 S 
HETATM   24  O   UNL     1     -38.087 -48.413  13.368  1.00  0.00    -0.212 OA
HETATM   25  O   UNL     1     -38.843 -46.018  13.587  1.00  0.00    -0.212 OA
HETATM   26  C   UNL     1     -39.767 -47.831  15.267  1.00  0.00     0.180 C 
ENDBRANCH  21  23
ENDBRANCH   4  17
TORSDOF 5
ENDMDL
MODEL 5
REMARK VINA RESULT:      -5.9      3.384      4.456
REMARK  5 active torsions:
REMARK  status: ('A' for Active; 'I' for Inactive)
REMARK    1  A    between atoms: C_2  and  O_3 
REMARK    2  A    between atoms: O_3  and  C_4 
REMARK    3  A    between atoms: C_10  and  N_11 
REMARK       I    between atoms: N_11  and  C_12 
REMARK       I    between atoms: C_12  and  N_14 
REMARK    4  A    between atoms: N_14  and  C_15 
REMARK    5  A    between atoms: N_19  and  S_21 
ROOT
HETATM    1  N   UNL     1     -44.562 -50.730  12.908  1.00  0.00    -0.305 N 
HETATM    2  C   UNL     1     -43.497 -50.155  13.564  1.00  0.00     0.321 C 
HETATM    3  O   UNL     1     -42.970 -50.601  14.581  1.00  0.00    -0.247 OA
HETATM    4  N   UNL     1     -43.058 -49.006  12.951  1.00  0.00    -0.337 N 
HETATM    5  H   UNL     1     -44.509 -50.709  11.896  1.00  0.00     0.171 HD
HETATM    6  H   UNL     1     -43.819 -48.446  12.586  1.00  0.00     0.164 HD
ENDROOT
BRANCH   1   7
HETATM    7  C   UNL     1     -45.308 -51.796  13.473  1.00  0.00     0.087 A 
HETATM    8  C   UNL     1     -45.074 -53.135  13.146  1.00  0.00     0.169 A 
HETATM    9  N   UNL     1     -45.835 -54.162  13.601  1.00  0.00    -0.345 N 
HETATM   10  C   UNL     1     -46.815 -53.870  14.475  1.00  0.00     0.090 A 
ATOM     11  HN  UNL     1     -45.670 -55.119  13.292  1.00  0.00     0.167 HD
HETATM   12  C   UNL     1     -47.085 -52.590  14.913  1.00  0.00     0.019 A 
HETATM   13  C   UNL     1     -46.331 -51.540  14.390  1.00  0.00     0.035 A 
BRANCH   8  14
HETATM   14  O   UNL     1     -43.931 -53.470  12.428  1.00  0.00    -0.334 OA
BRANCH  14  15
HETATM   15  C   UNL     1     -42.964 -54.027  13.339  1.00  0.00     0.173 C 
HETATM   16  C   UNL     1     -41.546 -53.687  12.926  1.00  0.00     0.034 C 
ENDBRANCH  14  15
ENDBRANCH   8  14
ENDBRANCH   1   7
BRANCH   4  17
HETATM   17  C   UNL     1     -41.919 -48.265  13.521  1.00  0.00     0.100 C 
HETATM   18  C   UNL     1     -42.375 -47.329  14.648  1.00  0.00     0.028 C 
HETATM   19  C   UNL     1     -43.228 -46.189  14.100  1.00  0.00     0.018 C 
HETATM   20  C   UNL     1     -42.496 -45.402  13.017  1.00  0.00     0.107 C 
HETATM   21  N   UNL     1     -42.013 -46.311  11.941  1.00  0.00    -0.209 NA
HETATM   22  C   UNL     1     -41.158 -47.426  12.469  1.00  0.00     0.132 C 
BRANCH  21  23
HETATM   23  S   UNL     1     -41.316 -45.486  10.609  1.00  0.00     0.207 S 
HETATM   24  O   UNL     1     -39.936 -45.886  10.497  1.00  0.00    -0.212 OA
HETATM   25  O   UNL     1     -42.227 -45.610   9.482  1.00  0.00    -0.212 OA
HETATM   26  C   UNL     1     -41.337 -43.807  11.192  1.00  0.00     0.180 C 
ENDBRANCH  21  23
ENDBRANCH   4  17
TORSDOF 5
ENDMDL
MODEL 6
REMARK VINA RESULT:      -5.8      4.472      6.958
REMARK  5 active torsions:
REMARK  status: ('A' for Active; 'I' for Inactive)
REMARK    1  A    between atoms: C_2  and  O_3 
REMARK    2  A    between atoms: O_3  and  C_4 
REMARK    3  A    between atoms: C_10  and  N_11 
REMARK       I    between atoms: N_11  and  C_12 
REMARK       I    between atoms: C_12  and  N_14 
REMARK    4  A    between atoms: N_14  and  C_15 
REMARK    5  A    between atoms: N_19  and  S_21 
ROOT
HETATM    1  N   UNL     1     -41.638 -50.468  12.866  1.00  0.00    -0.305 N 
HETATM    2  C   UNL     1     -42.348 -51.620  12.612  1.00  0.00     0.321 C 
HETATM    3  O   UNL     1     -41.863 -52.673  12.205  1.00  0.00    -0.247 OA
HETATM    4  N   UNL     1     -43.690 -51.480  12.876  1.00  0.00    -0.337 N 
HETATM    5  H   UNL     1     -41.920 -49.959  13.696  1.00  0.00     0.171 HD
HETATM    6  H   UNL     1     -44.045 -50.571  12.609  1.00  0.00     0.164 HD
ENDROOT
BRANCH   1   7
HETATM    7  C   UNL     1     -40.285 -50.315  12.469  1.00  0.00     0.087 A 
HETATM    8  C   UNL     1     -39.889 -49.419  11.473  1.00  0.00     0.169 A 
HETATM    9  N   UNL     1     -38.616 -49.323  11.012  1.00  0.00    -0.345 N 
HETATM   10  C   UNL     1     -37.680 -50.083  11.609  1.00  0.00     0.090 A 
ATOM     11  HN  UNL     1     -38.379 -48.698  10.242  1.00  0.00     0.167 HD
HETATM   12  C   UNL     1     -37.955 -50.951  12.645  1.00  0.00     0.019 A 
HETATM   13  C   UNL     1     -39.278 -51.079  13.067  1.00  0.00     0.035 A 
BRANCH   8  14
HETATM   14  O   UNL     1     -40.798 -48.473  11.009  1.00  0.00    -0.334 OA
BRANCH  14  15
HETATM   15  C   UNL     1     -40.502 -47.208  11.631  1.00  0.00     0.173 C 
HETATM   16  C   UNL     1     -40.578 -46.065  10.639  1.00  0.00     0.034 C 
ENDBRANCH  14  15
ENDBRANCH   8  14
ENDBRANCH   1   7
BRANCH   4  17
HETATM   17  C   UNL     1     -44.597 -52.622  12.664  1.00  0.00     0.100 C 
HETATM   18  C   UNL     1     -46.051 -52.155  12.517  1.00  0.00     0.028 C 
HETATM   19  C   UNL     1     -46.580 -51.595  13.833  1.00  0.00     0.018 C 
HETATM   20  C   UNL     1     -46.457 -52.605  14.971  1.00  0.00     0.107 C 
HETATM   21  N   UNL     1     -45.057 -53.096  15.090  1.00  0.00    -0.209 NA
HETATM   22  C   UNL     1     -44.532 -53.664  13.803  1.00  0.00     0.132 C 
BRANCH  21  23
HETATM   23  S   UNL     1     -44.800 -54.116  16.444  1.00  0.00     0.207 S 
HETATM   24  O   UNL     1     -46.081 -54.583  16.912  1.00  0.00    -0.212 OA
HETATM   25  O   UNL     1     -43.739 -55.050  16.103  1.00  0.00    -0.212 OA
HETATM   26  C   UNL     1     -44.189 -52.953  17.641  1.00  0.00     0.180 C 
ENDBRANCH  21  23
ENDBRANCH   4  17
TORSDOF 5
ENDMDL
MODEL 7
REMARK VINA RESULT:      -5.8      3.593      5.371
REMARK  5 active torsions:
REMARK  status: ('A' for Active; 'I' for Inactive)
REMARK    1  A    between atoms: C_2  and  O_3 
REMARK    2  A    between atoms: O_3  and  C_4 
REMARK    3  A    between atoms: C_10  and  N_11 
REMARK       I    between atoms: N_11  and  C_12 
REMARK       I    between atoms: C_12  and  N_14 
REMARK    4  A    between atoms: N_14  and  C_15 
REMARK    5  A    between atoms: N_19  and  S_21 
ROOT
HETATM    1  N   UNL     1     -44.258 -50.871  12.895  1.00  0.00    -0.305 N 
HETATM    2  C   UNL     1     -43.363 -50.139  13.641  1.00  0.00     0.321 C 
HETATM    3  O   UNL     1     -43.118 -50.324  14.832  1.00  0.00    -0.247 OA
HETATM    4  N   UNL     1     -42.741 -49.158  12.906  1.00  0.00    -0.337 N 
HETATM    5  H   UNL     1     -43.960 -51.087  11.951  1.00  0.00     0.171 HD
HETATM    6  H   UNL     1     -43.366 -48.713  12.245  1.00  0.00     0.164 HD
ENDROOT
BRANCH   1   7
HETATM    7  C   UNL     1     -45.162 -51.788  13.490  1.00  0.00     0.087 A 
HETATM    8  C   UNL     1     -45.137 -53.157  13.213  1.00  0.00     0.169 A 
HETATM    9  N   UNL     1     -46.049 -54.037  13.697  1.00  0.00    -0.345 N 
HETATM   10  C   UNL     1     -46.976 -53.566  14.550  1.00  0.00     0.090 A 
ATOM     11  HN  UNL     1     -46.033 -55.019  13.424  1.00  0.00     0.167 HD
HETATM   12  C   UNL     1     -47.047 -52.244  14.940  1.00  0.00     0.019 A 
HETATM   13  C   UNL     1     -46.137 -51.343  14.388  1.00  0.00     0.035 A 
BRANCH   8  14
HETATM   14  O   UNL     1     -44.056 -53.691  12.519  1.00  0.00    -0.334 OA
BRANCH  14  15
HETATM   15  C   UNL     1     -43.094 -54.179  13.473  1.00  0.00     0.173 C 
HETATM   16  C   UNL     1     -41.682 -53.769  13.103  1.00  0.00     0.034 C 
ENDBRANCH  14  15
ENDBRANCH   8  14
ENDBRANCH   1   7
BRANCH   4  17
HETATM   17  C   UNL     1     -41.746 -48.283  13.551  1.00  0.00     0.100 C 
HETATM   18  C   UNL     1     -41.489 -47.024  12.714  1.00  0.00     0.028 C 
HETATM   19  C   UNL     1     -40.778 -47.371  11.409  1.00  0.00     0.018 C 
HETATM   20  C   UNL     1     -39.473 -48.123  11.655  1.00  0.00     0.107 C 
HETATM   21  N   UNL     1     -39.709 -49.323  12.505  1.00  0.00    -0.209 NA
HETATM   22  C   UNL     1     -40.393 -48.988  13.799  1.00  0.00     0.132 C 
BRANCH  21  23
HETATM   23  S   UNL     1     -38.321 -50.309  12.700  1.00  0.00     0.207 S 
HETATM   24  O   UNL     1     -37.559 -49.809  13.816  1.00  0.00    -0.212 OA
HETATM   25  O   UNL     1     -38.749 -51.698  12.645  1.00  0.00    -0.212 OA
HETATM   26  C   UNL     1     -37.412 -49.921  11.221  1.00  0.00     0.180 C 
ENDBRANCH  21  23
ENDBRANCH   4  17
TORSDOF 5
ENDMDL
MODEL 8
REMARK VINA RESULT:      -5.7      4.235      7.407
REMARK  5 active torsions:
REMARK  status: ('A' for Active; 'I' for Inactive)
REMARK    1  A    between atoms: C_2  and  O_3 
REMARK    2  A    between atoms: O_3  and  C_4 
REMARK    3  A    between atoms: C_10  and  N_11 
REMARK       I    between atoms: N_11  and  C_12 
REMARK       I    between atoms: C_12  and  N_14 
REMARK    4  A    between atoms: N_14  and  C_15 
REMARK    5  A    between atoms: N_19  and  S_21 
ROOT
HETATM    1  N   UNL     1     -43.192 -48.369  12.362  1.00  0.00    -0.305 N 
HETATM    2  C   UNL     1     -42.942 -49.613  12.894  1.00  0.00     0.321 C 
HETATM    3  O   UNL     1     -41.846 -50.005  13.289  1.00  0.00    -0.247 OA
HETATM    4  N   UNL     1     -44.070 -50.397  12.955  1.00  0.00    -0.337 N 
HETATM    5  H   UNL     1     -44.065 -47.942  12.649  1.00  0.00     0.171 HD
HETATM    6  H   UNL     1     -44.668 -50.278  12.147  1.00  0.00     0.164 HD
ENDROOT
BRANCH   1   7
HETATM    7  C   UNL     1     -42.147 -47.477  12.009  1.00  0.00     0.087 A 
HETATM    8  C   UNL     1     -41.561 -47.466  10.740  1.00  0.00     0.169 A 
HETATM    9  N   UNL     1     -40.500 -46.688  10.411  1.00  0.00    -0.345 N 
HETATM   10  C   UNL     1     -40.045 -45.829  11.341  1.00  0.00     0.090 A 
ATOM     11  HN  UNL     1     -40.063 -46.753   9.492  1.00  0.00     0.167 HD
HETATM   12  C   UNL     1     -40.595 -45.715  12.601  1.00  0.00     0.019 A 
HETATM   13  C   UNL     1     -41.648 -46.562  12.942  1.00  0.00     0.035 A 
BRANCH   8  14
HETATM   14  O   UNL     1     -42.162 -48.180   9.708  1.00  0.00    -0.334 OA
BRANCH  14  15
HETATM   15  C   UNL     1     -43.129 -47.329   9.064  1.00  0.00     0.173 C 
HETATM   16  C   UNL     1     -43.505 -47.849   7.691  1.00  0.00     0.034 C 
ENDBRANCH  14  15
ENDBRANCH   8  14
ENDBRANCH   1   7
BRANCH   4  17
HETATM   17  C   UNL     1     -43.981 -51.761  13.505  1.00  0.00     0.100 C 
HETATM   18  C   UNL     1     -44.758 -52.760  12.639  1.00  0.00     0.028 C 
HETATM   19  C   UNL     1     -46.259 -52.503  12.721  1.00  0.00     0.018 C 
HETATM   20  C   UNL     1     -46.764 -52.541  14.161  1.00  0.00     0.107 C 
HETATM   21  N   UNL     1     -45.984 -51.605  15.017  1.00  0.00    -0.209 NA
HETATM   22  C   UNL     1     -44.507 -51.862  14.955  1.00  0.00     0.132 C 
BRANCH  21  23
HETATM   23  S   UNL     1     -46.590 -51.472  16.616  1.00  0.00     0.207 S 
HETATM   24  O   UNL     1     -46.007 -50.305  17.228  1.00  0.00    -0.212 OA
HETATM   25  O   UNL     1     -48.032 -51.651  16.563  1.00  0.00    -0.212 OA
HETATM   26  C   UNL     1     -45.854 -52.897  17.383  1.00  0.00     0.180 C 
ENDBRANCH  21  23
ENDBRANCH   4  17
TORSDOF 5
ENDMDL
MODEL 9
REMARK VINA RESULT:      -5.5      3.258      4.999
REMARK  5 active torsions:
REMARK  status: ('A' for Active; 'I' for Inactive)
REMARK    1  A    between atoms: C_2  and  O_3 
REMARK    2  A    between atoms: O_3  and  C_4 
REMARK    3  A    between atoms: C_10  and  N_11 
REMARK       I    between atoms: N_11  and  C_12 
REMARK       I    between atoms: C_12  and  N_14 
REMARK    4  A    between atoms: N_14  and  C_15 
REMARK    5  A    between atoms: N_19  and  S_21 
ROOT
HETATM    1  N   UNL     1     -42.951 -51.723  13.872  1.00  0.00    -0.305 N 
HETATM    2  C   UNL     1     -42.017 -51.485  12.889  1.00  0.00     0.321 C 
HETATM    3  O   UNL     1     -41.922 -52.115  11.838  1.00  0.00    -0.247 OA
HETATM    4  N   UNL     1     -41.181 -50.438  13.198  1.00  0.00    -0.337 N 
HETATM    5  H   UNL     1     -43.347 -50.895  14.302  1.00  0.00     0.171 HD
HETATM    6  H   UNL     1     -40.932 -50.418  14.179  1.00  0.00     0.164 HD
ENDROOT
BRANCH   1   7
HETATM    7  C   UNL     1     -43.774 -52.878  13.865  1.00  0.00     0.087 A 
HETATM    8  C   UNL     1     -45.083 -52.868  13.376  1.00  0.00     0.169 A 
HETATM    9  N   UNL     1     -45.918 -53.935  13.445  1.00  0.00    -0.345 N 
HETATM   10  C   UNL     1     -45.422 -55.082  13.942  1.00  0.00     0.090 A 
ATOM     11  HN  UNL     1     -46.886 -53.869  13.132  1.00  0.00     0.167 HD
HETATM   12  C   UNL     1     -44.124 -55.216  14.390  1.00  0.00     0.019 A 
HETATM   13  C   UNL     1     -43.297 -54.094  14.365  1.00  0.00     0.035 A 
BRANCH   8  14
HETATM   14  O   UNL     1     -45.532 -51.764  12.658  1.00  0.00    -0.334 OA
BRANCH  14  15
HETATM   15  C   UNL     1     -46.890 -52.007  12.244  1.00  0.00     0.173 C 
HETATM   16  C   UNL     1     -47.246 -51.217  11.001  1.00  0.00     0.034 C 
ENDBRANCH  14  15
ENDBRANCH   8  14
ENDBRANCH   1   7
BRANCH   4  17
HETATM   17  C   UNL     1     -40.123 -50.045  12.250  1.00  0.00     0.100 C 
HETATM   18  C   UNL     1     -38.859 -49.589  12.988  1.00  0.00     0.028 C 
HETATM   19  C   UNL     1     -39.101 -48.275  13.725  1.00  0.00     0.018 C 
HETATM   20  C   UNL     1     -39.595 -47.179  12.785  1.00  0.00     0.107 C 
HETATM   21  N   UNL     1     -40.797 -47.633  12.033  1.00  0.00    -0.209 NA
HETATM   22  C   UNL     1     -40.563 -48.916  11.291  1.00  0.00     0.132 C 
BRANCH  21  23
HETATM   23  S   UNL     1     -41.508 -46.405  11.070  1.00  0.00     0.207 S 
HETATM   24  O   UNL     1     -42.132 -47.026   9.929  1.00  0.00    -0.212 OA
HETATM   25  O   UNL     1     -42.259 -45.526  11.951  1.00  0.00    -0.212 OA
HETATM   26  C   UNL     1     -40.065 -45.548  10.484  1.00  0.00     0.180 C 
ENDBRANCH  21  23
ENDBRANCH   4  17
TORSDOF 5
ENDMDL
