MODEL 1
REMARK VINA RESULT:      -6.1      0.000      0.000
REMARK  3 active torsions:
REMARK  status: ('A' for Active; 'I' for Inactive)
REMARK       I    between atoms: C_2  and  N_3 
REMARK       I    between atoms: C_2  and  N_7 
REMARK    1  A    between atoms: N_3  and  C_4 
REMARK    2  A    between atoms: N_7  and  C_8 
REMARK    3  A    between atoms: C_11  and  C_15 
REMARK       I    between atoms: C_15  and  N_17 
ROOT
HETATM    1  C   UNL     1     -41.238 -48.902  11.237  1.00  0.00     0.051 A 
HETATM    2  C   UNL     1     -40.202 -48.294  11.946  1.00  0.00     0.033 A 
HETATM    3  C   UNL     1     -39.923 -46.941  11.757  1.00  0.00     0.037 A 
HETATM    4  C   UNL     1     -40.691 -46.230  10.847  1.00  0.00     0.100 A 
HETATM    5  N   UNL     1     -41.721 -46.778  10.148  1.00  0.00    -0.359 N 
ATOM      6  HN  UNL     1     -42.282 -46.228   9.498  1.00  0.00     0.165 HD
HETATM    7  C   UNL     1     -41.963 -48.095  10.361  1.00  0.00     0.118 A 
ENDROOT
BRANCH   1   8
HETATM    8  N   UNL     1     -41.599 -50.264  11.381  1.00  0.00    -0.308 N 
HETATM    9  C   UNL     1     -42.369 -50.790  12.395  1.00  0.00     0.321 C 
HETATM   10  O   UNL     1     -42.780 -50.178  13.374  1.00  0.00    -0.247 OA
HETATM   11  N   UNL     1     -42.630 -52.136  12.211  1.00  0.00    -0.338 N 
HETATM   12  H   UNL     1     -42.372 -52.584  11.346  1.00  0.00     0.164 HD
HETATM   13  H   UNL     1     -41.155 -50.923  10.762  1.00  0.00     0.170 HD
BRANCH  11  14
HETATM   14  C   UNL     1     -43.398 -52.872  13.168  1.00  0.00     0.086 A 
HETATM   15  C   UNL     1     -42.922 -54.188  13.710  1.00  0.00     0.027 A 
HETATM   16  C   UNL     1     -44.106 -54.142  12.788  1.00  0.00     0.027 A 
ENDBRANCH  11  14
ENDBRANCH   1   8
BRANCH   4  17
HETATM   17  C   UNL     1     -40.379 -44.783  10.624  1.00  0.00     0.270 C 
HETATM   18  O   UNL     1     -39.686 -44.489   9.650  1.00  0.00    -0.266 OA
HETATM   19  N   UNL     1     -40.886 -43.832  11.507  1.00  0.00    -0.347 N 
HETATM   20  C   UNL     1     -40.492 -42.435  11.362  1.00  0.00     0.126 C 
HETATM   21  C   UNL     1     -41.999 -44.064  12.427  1.00  0.00     0.126 C 
HETATM   22  C   UNL     1     -40.182 -41.806  12.721  1.00  0.00     0.020 C 
HETATM   23  C   UNL     1     -41.275 -42.077  13.758  1.00  0.00     0.003 C 
HETATM   24  C   UNL     1     -41.635 -43.560  13.815  1.00  0.00     0.020 C 
ENDBRANCH   4  17
TORSDOF 3
ENDMDL
MODEL 2
REMARK VINA RESULT:      -5.8      3.682      8.929
REMARK  3 active torsions:
REMARK  status: ('A' for Active; 'I' for Inactive)
REMARK       I    between atoms: C_2  and  N_3 
REMARK       I    between atoms: C_2  and  N_7 
REMARK    1  A    between atoms: N_3  and  C_4 
REMARK    2  A    between atoms: N_7  and  C_8 
REMARK    3  A    between atoms: C_11  and  C_15 
REMARK       I    between atoms: C_15  and  N_17 
ROOT
HETATM    1  C   UNL     1     -40.439 -51.435  12.043  1.00  0.00     0.051 A 
HETATM    2  C   UNL     1     -39.457 -51.293  13.023  1.00  0.00     0.033 A 
HETATM    3  C   UNL     1     -39.189 -52.340  13.904  1.00  0.00     0.037 A 
HETATM    4  C   UNL     1     -39.926 -53.507  13.784  1.00  0.00     0.100 A 
HETATM    5  N   UNL     1     -40.881 -53.696  12.833  1.00  0.00    -0.359 N 
ATOM      6  HN  UNL     1     -41.396 -54.572  12.755  1.00  0.00     0.165 HD
HETATM    7  C   UNL     1     -41.110 -52.656  11.994  1.00  0.00     0.118 A 
ENDROOT
BRANCH   1   8
HETATM    8  N   UNL     1     -40.763 -50.430  11.099  1.00  0.00    -0.308 N 
HETATM    9  C   UNL     1     -41.584 -49.347  11.325  1.00  0.00     0.321 C 
HETATM   10  O   UNL     1     -42.234 -49.141  12.345  1.00  0.00    -0.247 OA
HETATM   11  N   UNL     1     -41.632 -48.489  10.243  1.00  0.00    -0.338 N 
HETATM   12  H   UNL     1     -41.006 -48.627   9.464  1.00  0.00     0.164 HD
HETATM   13  H   UNL     1     -40.468 -50.583  10.148  1.00  0.00     0.170 HD
BRANCH  11  14
HETATM   14  C   UNL     1     -42.448 -47.314  10.272  1.00  0.00     0.086 A 
HETATM   15  C   UNL     1     -43.914 -47.369   9.953  1.00  0.00     0.027 A 
HETATM   16  C   UNL     1     -42.966 -46.693   9.004  1.00  0.00     0.027 A 
ENDBRANCH  11  14
ENDBRANCH   1   8
BRANCH   4  17
HETATM   17  C   UNL     1     -39.657 -54.625  14.743  1.00  0.00     0.270 C 
HETATM   18  O   UNL     1     -38.688 -55.352  14.521  1.00  0.00    -0.266 OA
HETATM   19  N   UNL     1     -40.495 -54.795  15.843  1.00  0.00    -0.347 N 
HETATM   20  C   UNL     1     -40.308 -55.950  16.717  1.00  0.00     0.126 C 
HETATM   21  C   UNL     1     -41.398 -53.771  16.365  1.00  0.00     0.126 C 
HETATM   22  C   UNL     1     -41.650 -56.582  17.089  1.00  0.00     0.020 C 
HETATM   23  C   UNL     1     -42.672 -55.550  17.572  1.00  0.00     0.003 C 
HETATM   24  C   UNL     1     -42.775 -54.370  16.606  1.00  0.00     0.020 C 
ENDBRANCH   4  17
TORSDOF 3
ENDMDL
MODEL 3
REMARK VINA RESULT:      -5.6      2.265      8.564
REMARK  3 active torsions:
REMARK  status: ('A' for Active; 'I' for Inactive)
REMARK       I    between atoms: C_2  and  N_3 
REMARK       I    between atoms: C_2  and  N_7 
REMARK    1  A    between atoms: N_3  and  C_4 
REMARK    2  A    between atoms: N_7  and  C_8 
REMARK    3  A    between atoms: C_11  and  C_15 
REMARK       I    between atoms: C_15  and  N_17 
ROOT
HETATM    1  C   UNL     1     -40.324 -50.036  12.125  1.00  0.00     0.051 A 
HETATM    2  C   UNL     1     -40.021 -50.410  13.434  1.00  0.00     0.033 A 
HETATM    3  C   UNL     1     -40.554 -51.582  13.970  1.00  0.00     0.037 A 
HETATM    4  C   UNL     1     -41.392 -52.348  13.175  1.00  0.00     0.100 A 
HETATM    5  N   UNL     1     -41.702 -52.030  11.889  1.00  0.00    -0.359 N 
ATOM      6  HN  UNL     1     -42.307 -52.621  11.320  1.00  0.00     0.165 HD
HETATM    7  C   UNL     1     -41.162 -50.886  11.404  1.00  0.00     0.118 A 
ENDROOT
BRANCH   1   8
HETATM    8  N   UNL     1     -39.814 -48.873  11.499  1.00  0.00    -0.308 N 
HETATM    9  C   UNL     1     -40.516 -47.712  11.262  1.00  0.00     0.321 C 
HETATM   10  O   UNL     1     -41.712 -47.542  11.470  1.00  0.00    -0.247 OA
HETATM   11  N   UNL     1     -39.720 -46.718  10.722  1.00  0.00    -0.338 N 
HETATM   12  H   UNL     1     -38.722 -46.850  10.663  1.00  0.00     0.164 HD
HETATM   13  H   UNL     1     -38.899 -48.942  11.082  1.00  0.00     0.170 HD
BRANCH  11  14
HETATM   14  C   UNL     1     -40.268 -45.441  10.383  1.00  0.00     0.086 A 
HETATM   15  C   UNL     1     -39.439 -44.384   9.714  1.00  0.00     0.027 A 
HETATM   16  C   UNL     1     -39.880 -44.201  11.138  1.00  0.00     0.027 A 
ENDBRANCH  11  14
ENDBRANCH   1   8
BRANCH   4  17
HETATM   17  C   UNL     1     -41.986 -53.595  13.755  1.00  0.00     0.270 C 
HETATM   18  O   UNL     1     -41.253 -54.576  13.878  1.00  0.00    -0.266 OA
HETATM   19  N   UNL     1     -43.325 -53.598  14.139  1.00  0.00    -0.347 N 
HETATM   20  C   UNL     1     -43.939 -54.840  14.596  1.00  0.00     0.126 C 
HETATM   21  C   UNL     1     -44.123 -52.395  14.376  1.00  0.00     0.126 C 
HETATM   22  C   UNL     1     -45.336 -55.017  13.997  1.00  0.00     0.020 C 
HETATM   23  C   UNL     1     -46.201 -53.763  14.144  1.00  0.00     0.003 C 
HETATM   24  C   UNL     1     -45.462 -52.515  13.665  1.00  0.00     0.020 C 
ENDBRANCH   4  17
TORSDOF 3
ENDMDL
MODEL 4
REMARK VINA RESULT:      -5.5      7.725      9.532
REMARK  3 active torsions:
REMARK  status: ('A' for Active; 'I' for Inactive)
REMARK       I    between atoms: C_2  and  N_3 
REMARK       I    between atoms: C_2  and  N_7 
REMARK    1  A    between atoms: N_3  and  C_4 
REMARK    2  A    between atoms: N_7  and  C_8 
REMARK    3  A    between atoms: C_11  and  C_15 
REMARK       I    between atoms: C_15  and  N_17 
ROOT
HETATM    1  C   UNL     1     -40.633 -54.716  16.342  1.00  0.00     0.051 A 
HETATM    2  C   UNL     1     -41.650 -55.660  16.199  1.00  0.00     0.033 A 
HETATM    3  C   UNL     1     -42.741 -55.395  15.372  1.00  0.00     0.037 A 
HETATM    4  C   UNL     1     -42.789 -54.176  14.715  1.00  0.00     0.100 A 
HETATM    5  N   UNL     1     -41.812 -53.234  14.812  1.00  0.00    -0.359 N 
ATOM      6  HN  UNL     1     -41.864 -52.352  14.302  1.00  0.00     0.165 HD
HETATM    7  C   UNL     1     -40.767 -53.530  15.622  1.00  0.00     0.118 A 
ENDROOT
BRANCH   1   8
HETATM    8  N   UNL     1     -39.484 -54.911  17.146  1.00  0.00    -0.308 N 
HETATM    9  C   UNL     1     -38.301 -55.485  16.735  1.00  0.00     0.321 C 
HETATM   10  O   UNL     1     -38.097 -56.000  15.641  1.00  0.00    -0.247 OA
HETATM   11  N   UNL     1     -37.330 -55.449  17.718  1.00  0.00    -0.338 N 
HETATM   12  H   UNL     1     -37.491 -54.926  18.564  1.00  0.00     0.164 HD
HETATM   13  H   UNL     1     -39.578 -54.727  18.132  1.00  0.00     0.170 HD
BRANCH  11  14
HETATM   14  C   UNL     1     -36.035 -56.016  17.493  1.00  0.00     0.086 A 
HETATM   15  C   UNL     1     -35.500 -57.118  18.360  1.00  0.00     0.027 A 
HETATM   16  C   UNL     1     -34.893 -55.747  18.432  1.00  0.00     0.027 A 
ENDBRANCH  11  14
ENDBRANCH   1   8
BRANCH   4  17
HETATM   17  C   UNL     1     -43.971 -53.878  13.845  1.00  0.00     0.270 C 
HETATM   18  O   UNL     1     -43.910 -54.208  12.660  1.00  0.00    -0.266 OA
HETATM   19  N   UNL     1     -45.087 -53.256  14.401  1.00  0.00    -0.347 N 
HETATM   20  C   UNL     1     -46.194 -52.860  13.536  1.00  0.00     0.126 C 
HETATM   21  C   UNL     1     -45.373 -53.192  15.833  1.00  0.00     0.126 C 
HETATM   22  C   UNL     1     -46.706 -51.465  13.901  1.00  0.00     0.020 C 
HETATM   23  C   UNL     1     -46.953 -51.304  15.403  1.00  0.00     0.003 C 
HETATM   24  C   UNL     1     -45.751 -51.770  16.221  1.00  0.00     0.020 C 
ENDBRANCH   4  17
TORSDOF 3
ENDMDL
MODEL 5
REMARK VINA RESULT:      -5.5      1.768      8.187
REMARK  3 active torsions:
REMARK  status: ('A' for Active; 'I' for Inactive)
REMARK       I    between atoms: C_2  and  N_3 
REMARK       I    between atoms: C_2  and  N_7 
REMARK    1  A    between atoms: N_3  and  C_4 
REMARK    2  A    between atoms: N_7  and  C_8 
REMARK    3  A    between atoms: C_11  and  C_15 
REMARK       I    between atoms: C_15  and  N_17 
ROOT
HETATM    1  C   UNL     1     -40.375 -48.033  11.947  1.00  0.00     0.051 A 
HETATM    2  C   UNL     1     -39.645 -48.825  12.834  1.00  0.00     0.033 A 
HETATM    3  C   UNL     1     -39.953 -50.177  12.983  1.00  0.00     0.037 A 
HETATM    4  C   UNL     1     -41.000 -50.700  12.242  1.00  0.00     0.100 A 
HETATM    5  N   UNL     1     -41.727 -49.969  11.353  1.00  0.00    -0.359 N 
ATOM      6  HN  UNL     1     -42.481 -50.384  10.806  1.00  0.00     0.165 HD
HETATM    7  C   UNL     1     -41.395 -48.661  11.234  1.00  0.00     0.118 A 
ENDROOT
BRANCH   1   8
HETATM    8  N   UNL     1     -40.118 -46.660  11.722  1.00  0.00    -0.308 N 
HETATM    9  C   UNL     1     -40.726 -45.609  12.374  1.00  0.00     0.321 C 
HETATM   10  O   UNL     1     -41.647 -45.701  13.177  1.00  0.00    -0.247 OA
HETATM   11  N   UNL     1     -40.197 -44.385  12.006  1.00  0.00    -0.338 N 
HETATM   12  H   UNL     1     -39.371 -44.349  11.428  1.00  0.00     0.164 HD
HETATM   13  H   UNL     1     -39.532 -46.426  10.937  1.00  0.00     0.170 HD
BRANCH  11  14
HETATM   14  C   UNL     1     -40.709 -43.168  12.556  1.00  0.00     0.086 A 
HETATM   15  C   UNL     1     -40.663 -41.880  11.788  1.00  0.00     0.027 A 
HETATM   16  C   UNL     1     -39.790 -42.064  12.996  1.00  0.00     0.027 A 
ENDBRANCH  11  14
ENDBRANCH   1   8
BRANCH   4  17
HETATM   17  C   UNL     1     -41.350 -52.145  12.417  1.00  0.00     0.270 C 
HETATM   18  O   UNL     1     -40.548 -52.984  12.005  1.00  0.00    -0.266 OA
HETATM   19  N   UNL     1     -42.548 -52.486  13.042  1.00  0.00    -0.347 N 
HETATM   20  C   UNL     1     -42.948 -53.888  13.113  1.00  0.00     0.126 C 
HETATM   21  C   UNL     1     -43.336 -51.580  13.875  1.00  0.00     0.126 C 
HETATM   22  C   UNL     1     -44.436 -54.053  12.797  1.00  0.00     0.020 C 
HETATM   23  C   UNL     1     -45.315 -53.077  13.582  1.00  0.00     0.003 C 
HETATM   24  C   UNL     1     -44.800 -51.643  13.468  1.00  0.00     0.020 C 
ENDBRANCH   4  17
TORSDOF 3
ENDMDL
MODEL 6
REMARK VINA RESULT:      -5.4      2.541      8.479
REMARK  3 active torsions:
REMARK  status: ('A' for Active; 'I' for Inactive)
REMARK       I    between atoms: C_2  and  N_3 
REMARK       I    between atoms: C_2  and  N_7 
REMARK    1  A    between atoms: N_3  and  C_4 
REMARK    2  A    between atoms: N_7  and  C_8 
REMARK    3  A    between atoms: C_11  and  C_15 
REMARK       I    between atoms: C_15  and  N_17 
ROOT
HETATM    1  C   UNL     1     -40.461 -44.275  11.522  1.00  0.00     0.051 A 
HETATM    2  C   UNL     1     -40.805 -44.940  12.699  1.00  0.00     0.033 A 
HETATM    3  C   UNL     1     -40.973 -46.324  12.699  1.00  0.00     0.037 A 
HETATM    4  C   UNL     1     -40.799 -47.010  11.507  1.00  0.00     0.100 A 
HETATM    5  N   UNL     1     -40.446 -46.405  10.341  1.00  0.00    -0.359 N 
ATOM      6  HN  UNL     1     -40.305 -46.936   9.481  1.00  0.00     0.165 HD
HETATM    7  C   UNL     1     -40.289 -45.059  10.382  1.00  0.00     0.118 A 
ENDROOT
BRANCH   1   8
HETATM    8  N   UNL     1     -40.255 -42.877  11.438  1.00  0.00    -0.308 N 
HETATM    9  C   UNL     1     -41.244 -41.920  11.383  1.00  0.00     0.321 C 
HETATM   10  O   UNL     1     -42.448 -42.136  11.304  1.00  0.00    -0.247 OA
HETATM   11  N   UNL     1     -40.733 -40.635  11.402  1.00  0.00    -0.338 N 
HETATM   12  H   UNL     1     -39.750 -40.488  11.577  1.00  0.00     0.164 HD
HETATM   13  H   UNL     1     -39.311 -42.562  11.281  1.00  0.00     0.170 HD
BRANCH  11  14
HETATM   14  C   UNL     1     -41.599 -39.498  11.331  1.00  0.00     0.086 A 
HETATM   15  C   UNL     1     -41.834 -38.772  10.039  1.00  0.00     0.027 A 
HETATM   16  C   UNL     1     -41.051 -38.112  11.137  1.00  0.00     0.027 A 
ENDBRANCH  11  14
ENDBRANCH   1   8
BRANCH   4  17
HETATM   17  C   UNL     1     -41.001 -48.493  11.498  1.00  0.00     0.270 C 
HETATM   18  O   UNL     1     -42.110 -48.919  11.176  1.00  0.00    -0.266 OA
HETATM   19  N   UNL     1     -39.939 -49.328  11.840  1.00  0.00    -0.347 N 
HETATM   20  C   UNL     1     -40.162 -50.767  11.944  1.00  0.00     0.126 C 
HETATM   21  C   UNL     1     -38.535 -48.921  11.853  1.00  0.00     0.126 C 
HETATM   22  C   UNL     1     -39.466 -51.343  13.179  1.00  0.00     0.020 C 
HETATM   23  C   UNL     1     -38.008 -50.892  13.296  1.00  0.00     0.003 C 
HETATM   24  C   UNL     1     -37.877 -49.378  13.147  1.00  0.00     0.020 C 
ENDBRANCH   4  17
TORSDOF 3
ENDMDL
MODEL 7
REMARK VINA RESULT:      -5.3      4.623      7.007
REMARK  3 active torsions:
REMARK  status: ('A' for Active; 'I' for Inactive)
REMARK       I    between atoms: C_2  and  N_3 
REMARK       I    between atoms: C_2  and  N_7 
REMARK    1  A    between atoms: N_3  and  C_4 
REMARK    2  A    between atoms: N_7  and  C_8 
REMARK    3  A    between atoms: C_11  and  C_15 
REMARK       I    between atoms: C_15  and  N_17 
ROOT
HETATM    1  C   UNL     1     -39.437 -48.766  12.309  1.00  0.00     0.051 A 
HETATM    2  C   UNL     1     -38.376 -49.660  12.176  1.00  0.00     0.033 A 
HETATM    3  C   UNL     1     -37.801 -50.240  13.307  1.00  0.00     0.037 A 
HETATM    4  C   UNL     1     -38.304 -49.895  14.552  1.00  0.00     0.100 A 
HETATM    5  N   UNL     1     -39.349 -49.041  14.727  1.00  0.00    -0.359 N 
ATOM      6  HN  UNL     1     -39.712 -48.818  15.654  1.00  0.00     0.165 HD
HETATM    7  C   UNL     1     -39.882 -48.501  13.604  1.00  0.00     0.118 A 
ENDROOT
BRANCH   1   8
HETATM    8  N   UNL     1     -40.088 -48.147  11.215  1.00  0.00    -0.308 N 
HETATM    9  C   UNL     1     -41.415 -48.296  10.878  1.00  0.00     0.321 C 
HETATM   10  O   UNL     1     -42.210 -49.059  11.416  1.00  0.00    -0.247 OA
HETATM   11  N   UNL     1     -41.782 -47.490   9.816  1.00  0.00    -0.338 N 
HETATM   12  H   UNL     1     -41.138 -46.797   9.465  1.00  0.00     0.164 HD
HETATM   13  H   UNL     1     -39.507 -47.654  10.555  1.00  0.00     0.170 HD
BRANCH  11  14
HETATM   14  C   UNL     1     -43.116 -47.516   9.300  1.00  0.00     0.086 A 
HETATM   15  C   UNL     1     -43.389 -47.732   7.840  1.00  0.00     0.027 A 
HETATM   16  C   UNL     1     -43.649 -46.389   8.460  1.00  0.00     0.027 A 
ENDBRANCH  11  14
ENDBRANCH   1   8
BRANCH   4  17
HETATM   17  C   UNL     1     -37.675 -50.496  15.770  1.00  0.00     0.270 C 
HETATM   18  O   UNL     1     -37.950 -51.665  16.041  1.00  0.00    -0.266 OA
HETATM   19  N   UNL     1     -36.803 -49.726  16.537  1.00  0.00    -0.347 N 
HETATM   20  C   UNL     1     -36.277 -50.267  17.787  1.00  0.00     0.126 C 
HETATM   21  C   UNL     1     -36.149 -48.503  16.074  1.00  0.00     0.126 C 
HETATM   22  C   UNL     1     -36.300 -49.214  18.896  1.00  0.00     0.020 C 
HETATM   23  C   UNL     1     -35.698 -47.879  18.451  1.00  0.00     0.003 C 
HETATM   24  C   UNL     1     -36.291 -47.412  17.123  1.00  0.00     0.020 C 
ENDBRANCH   4  17
TORSDOF 3
ENDMDL
MODEL 8
REMARK VINA RESULT:      -5.2      6.008      8.994
REMARK  3 active torsions:
REMARK  status: ('A' for Active; 'I' for Inactive)
REMARK       I    between atoms: C_2  and  N_3 
REMARK       I    between atoms: C_2  and  N_7 
REMARK    1  A    between atoms: N_3  and  C_4 
REMARK    2  A    between atoms: N_7  and  C_8 
REMARK    3  A    between atoms: C_11  and  C_15 
REMARK       I    between atoms: C_15  and  N_17 
ROOT
HETATM    1  C   UNL     1     -39.243 -55.522  16.643  1.00  0.00     0.051 A 
HETATM    2  C   UNL     1     -40.400 -54.744  16.615  1.00  0.00     0.033 A 
HETATM    3  C   UNL     1     -40.662 -53.916  15.524  1.00  0.00     0.037 A 
HETATM    4  C   UNL     1     -39.744 -53.882  14.486  1.00  0.00     0.100 A 
HETATM    5  N   UNL     1     -38.611 -54.636  14.464  1.00  0.00    -0.359 N 
ATOM      6  HN  UNL     1     -37.961 -54.605  13.679  1.00  0.00     0.165 HD
HETATM    7  C   UNL     1     -38.394 -55.430  15.541  1.00  0.00     0.118 A 
ENDROOT
BRANCH   1   8
HETATM    8  N   UNL     1     -38.909 -56.400  17.701  1.00  0.00    -0.308 N 
HETATM    9  C   UNL     1     -39.239 -57.736  17.774  1.00  0.00     0.321 C 
HETATM   10  O   UNL     1     -39.950 -58.343  16.981  1.00  0.00    -0.247 OA
HETATM   11  N   UNL     1     -38.690 -58.353  18.883  1.00  0.00    -0.338 N 
HETATM   12  H   UNL     1     -38.024 -57.858  19.455  1.00  0.00     0.164 HD
HETATM   13  H   UNL     1     -38.504 -55.990  18.527  1.00  0.00     0.170 HD
BRANCH  11  14
HETATM   14  C   UNL     1     -38.934 -59.738  19.149  1.00  0.00     0.086 A 
HETATM   15  C   UNL     1     -39.906 -60.174  20.207  1.00  0.00     0.027 A 
HETATM   16  C   UNL     1     -38.433 -60.389  20.408  1.00  0.00     0.027 A 
ENDBRANCH  11  14
ENDBRANCH   1   8
BRANCH   4  17
HETATM   17  C   UNL     1     -40.010 -52.976  13.324  1.00  0.00     0.270 C 
HETATM   18  O   UNL     1     -40.677 -53.421  12.390  1.00  0.00    -0.266 OA
HETATM   19  N   UNL     1     -39.509 -51.676  13.345  1.00  0.00    -0.347 N 
HETATM   20  C   UNL     1     -39.666 -50.827  12.168  1.00  0.00     0.126 C 
HETATM   21  C   UNL     1     -39.058 -50.979  14.548  1.00  0.00     0.126 C 
HETATM   22  C   UNL     1     -38.379 -50.056  11.870  1.00  0.00     0.020 C 
HETATM   23  C   UNL     1     -37.808 -49.363  13.110  1.00  0.00     0.003 C 
HETATM   24  C   UNL     1     -37.709 -50.325  14.292  1.00  0.00     0.020 C 
ENDBRANCH   4  17
TORSDOF 3
ENDMDL
MODEL 9
REMARK VINA RESULT:      -5.2     15.980     18.675
REMARK  3 active torsions:
REMARK  status: ('A' for Active; 'I' for Inactive)
REMARK       I    between atoms: C_2  and  N_3 
REMARK       I    between atoms: C_2  and  N_7 
REMARK    1  A    between atoms: N_3  and  C_4 
REMARK    2  A    between atoms: N_7  and  C_8 
REMARK    3  A    between atoms: C_11  and  C_15 
REMARK       I    between atoms: C_15  and  N_17 
ROOT
HETATM    1  C   UNL     1     -50.015 -52.872  -0.834  1.00  0.00     0.051 A 
HETATM    2  C   UNL     1     -50.991 -53.615  -1.497  1.00  0.00     0.033 A 
HETATM    3  C   UNL     1     -50.631 -54.735  -2.247  1.00  0.00     0.037 A 
HETATM    4  C   UNL     1     -49.290 -55.076  -2.319  1.00  0.00     0.100 A 
HETATM    5  N   UNL     1     -48.307 -54.390  -1.675  1.00  0.00    -0.359 N 
ATOM      6  HN  UNL     1     -47.329 -54.674  -1.730  1.00  0.00     0.165 HD
HETATM    7  C   UNL     1     -48.697 -53.310  -0.955  1.00  0.00     0.118 A 
ENDROOT
BRANCH   1   8
HETATM    8  N   UNL     1     -50.295 -51.734  -0.040  1.00  0.00    -0.308 N 
HETATM    9  C   UNL     1     -50.056 -50.424  -0.396  1.00  0.00     0.321 C 
HETATM   10  O   UNL     1     -49.480 -50.051  -1.412  1.00  0.00    -0.247 OA
HETATM   11  N   UNL     1     -50.525 -49.529   0.548  1.00  0.00    -0.338 N 
HETATM   12  H   UNL     1     -51.087 -49.859   1.317  1.00  0.00     0.164 HD
HETATM   13  H   UNL     1     -50.578 -51.898   0.913  1.00  0.00     0.170 HD
BRANCH  11  14
HETATM   14  C   UNL     1     -50.353 -48.120   0.373  1.00  0.00     0.086 A 
HETATM   15  C   UNL     1     -49.112 -47.416   0.839  1.00  0.00     0.027 A 
HETATM   16  C   UNL     1     -50.419 -47.176   1.540  1.00  0.00     0.027 A 
ENDBRANCH  11  14
ENDBRANCH   1   8
BRANCH   4  17
HETATM   17  C   UNL     1     -48.897 -56.263  -3.142  1.00  0.00     0.270 C 
HETATM   18  O   UNL     1     -49.127 -57.382  -2.682  1.00  0.00    -0.266 OA
HETATM   19  N   UNL     1     -48.304 -56.064  -4.387  1.00  0.00    -0.347 N 
HETATM   20  C   UNL     1     -47.815 -57.213  -5.142  1.00  0.00     0.126 C 
HETATM   21  C   UNL     1     -48.356 -54.812  -5.140  1.00  0.00     0.126 C 
HETATM   22  C   UNL     1     -46.447 -56.923  -5.762  1.00  0.00     0.020 C 
HETATM   23  C   UNL     1     -46.410 -55.584  -6.503  1.00  0.00     0.003 C 
HETATM   24  C   UNL     1     -46.966 -54.452  -5.642  1.00  0.00     0.020 C 
ENDBRANCH   4  17
TORSDOF 3
ENDMDL
