MODEL 1
REMARK VINA RESULT:      -5.2      0.000      0.000
REMARK  6 active torsions:
REMARK  status: ('A' for Active; 'I' for Inactive)
REMARK    1  A    between atoms: C_2  and  C_3 
REMARK    2  A    between atoms: C_2  and  N_10 
REMARK    3  A    between atoms: C_3  and  N_4 
REMARK    4  A    between atoms: N_10  and  C_11 
REMARK    5  A    between atoms: C_11  and  C_12 
REMARK    6  A    between atoms: C_12  and  N_13 
ROOT
HETATM    1  N   UNL     1     -42.867 -54.062  12.941  1.00  0.00     0.090 N 
HETATM    2  H   UNL     1     -42.569 -54.907  12.451  1.00  0.00     0.316 HD
ENDROOT
BRANCH   1   3
HETATM    3  C   UNL     1     -41.699 -53.171  13.131  1.00  0.00     0.236 C 
HETATM    4  C   UNL     1     -40.485 -53.936  13.677  1.00  0.00     0.044 C 
BRANCH   3   5
HETATM    5  C   UNL     1     -41.369 -52.479  11.791  1.00  0.00     0.183 C 
BRANCH   5   6
HETATM    6  N   UNL     1     -41.102 -51.057  11.933  1.00  0.00    -0.302 N 
HETATM    7  C   UNL     1     -41.284 -50.298  13.054  1.00  0.00     0.111 A 
HETATM    8  C   UNL     1     -40.840 -49.035  12.735  1.00  0.00     0.037 A 
HETATM    9  C   UNL     1     -40.427 -49.132  11.393  1.00  0.00     0.108 A 
HETATM   10  N   UNL     1     -40.589 -50.361  10.898  1.00  0.00    -0.310 N 
ATOM     11  HN  UNL     1     -40.374 -50.696   9.959  1.00  0.00     0.186 HD
ENDBRANCH   5   6
ENDBRANCH   3   5
ENDBRANCH   1   3
BRANCH   1  12
HETATM   12  C   UNL     1     -43.540 -54.458  14.187  1.00  0.00     0.290 C 
BRANCH  12  13
HETATM   13  C   UNL     1     -45.039 -54.789  14.073  1.00  0.00     0.155 C 
BRANCH  13  14
HETATM   14  N   UNL     1     -45.931 -53.642  14.199  1.00  0.00    -0.350 N 
HETATM   15  C   UNL     1     -46.249 -53.080  15.484  1.00  0.00     0.126 C 
HETATM   16  C   UNL     1     -46.947 -51.768  15.184  1.00  0.00     0.029 C 
HETATM   17  C   UNL     1     -46.584 -51.435  13.745  1.00  0.00     0.104 C 
HETATM   18  C   UNL     1     -46.092 -52.734  13.165  1.00  0.00     0.219 C 
HETATM   19  O   UNL     1     -45.811 -52.909  11.990  1.00  0.00    -0.273 OA
ENDBRANCH  13  14
ENDBRANCH  12  13
ENDBRANCH   1  12
TORSDOF 6
ENDMDL
MODEL 2
REMARK VINA RESULT:      -5.2      1.733      2.539
REMARK  6 active torsions:
REMARK  status: ('A' for Active; 'I' for Inactive)
REMARK    1  A    between atoms: C_2  and  C_3 
REMARK    2  A    between atoms: C_2  and  N_10 
REMARK    3  A    between atoms: C_3  and  N_4 
REMARK    4  A    between atoms: N_10  and  C_11 
REMARK    5  A    between atoms: C_11  and  C_12 
REMARK    6  A    between atoms: C_12  and  N_13 
ROOT
HETATM    1  N   UNL     1     -43.451 -53.495  12.190  1.00  0.00     0.090 N 
HETATM    2  H   UNL     1     -42.895 -54.052  11.540  1.00  0.00     0.316 HD
ENDROOT
BRANCH   1   3
HETATM    3  C   UNL     1     -42.743 -52.225  12.474  1.00  0.00     0.236 C 
HETATM    4  C   UNL     1     -42.783 -51.875  13.968  1.00  0.00     0.044 C 
BRANCH   3   5
HETATM    5  C   UNL     1     -41.290 -52.333  11.963  1.00  0.00     0.183 C 
BRANCH   5   6
HETATM    6  N   UNL     1     -40.392 -52.958  12.919  1.00  0.00    -0.302 N 
HETATM    7  C   UNL     1     -39.585 -52.323  13.820  1.00  0.00     0.111 A 
HETATM    8  C   UNL     1     -38.972 -53.317  14.548  1.00  0.00     0.037 A 
HETATM    9  C   UNL     1     -39.461 -54.516  13.996  1.00  0.00     0.108 A 
HETATM   10  N   UNL     1     -40.324 -54.302  13.000  1.00  0.00    -0.310 N 
ATOM     11  HN  UNL     1     -40.816 -54.993  12.434  1.00  0.00     0.186 HD
ENDBRANCH   5   6
ENDBRANCH   3   5
ENDBRANCH   1   3
BRANCH   1  12
HETATM   12  C   UNL     1     -43.735 -54.313  13.380  1.00  0.00     0.290 C 
BRANCH  12  13
HETATM   13  C   UNL     1     -45.210 -54.689  13.608  1.00  0.00     0.155 C 
BRANCH  13  14
HETATM   14  N   UNL     1     -46.062 -53.590  14.044  1.00  0.00    -0.350 N 
HETATM   15  C   UNL     1     -46.136 -53.204  15.429  1.00  0.00     0.126 C 
HETATM   16  C   UNL     1     -46.877 -51.882  15.436  1.00  0.00     0.029 C 
HETATM   17  C   UNL     1     -46.788 -51.358  14.011  1.00  0.00     0.104 C 
HETATM   18  C   UNL     1     -46.413 -52.560  13.185  1.00  0.00     0.219 C 
HETATM   19  O   UNL     1     -46.355 -52.576  11.966  1.00  0.00    -0.273 OA
ENDBRANCH  13  14
ENDBRANCH  12  13
ENDBRANCH   1  12
TORSDOF 6
ENDMDL
MODEL 3
REMARK VINA RESULT:      -5.2      1.688      1.977
REMARK  6 active torsions:
REMARK  status: ('A' for Active; 'I' for Inactive)
REMARK    1  A    between atoms: C_2  and  C_3 
REMARK    2  A    between atoms: C_2  and  N_10 
REMARK    3  A    between atoms: C_3  and  N_4 
REMARK    4  A    between atoms: N_10  and  C_11 
REMARK    5  A    between atoms: C_11  and  C_12 
REMARK    6  A    between atoms: C_12  and  N_13 
ROOT
HETATM    1  N   UNL     1     -42.789 -52.687  11.816  1.00  0.00     0.090 N 
HETATM    2  H   UNL     1     -42.395 -53.145  10.993  1.00  0.00     0.316 HD
ENDROOT
BRANCH   1   3
HETATM    3  C   UNL     1     -41.920 -51.552  12.205  1.00  0.00     0.236 C 
HETATM    4  C   UNL     1     -42.670 -50.535  13.075  1.00  0.00     0.044 C 
BRANCH   3   5
HETATM    5  C   UNL     1     -40.671 -52.098  12.930  1.00  0.00     0.183 C 
BRANCH   5   6
HETATM    6  N   UNL     1     -39.487 -51.281  12.724  1.00  0.00    -0.302 N 
HETATM    7  C   UNL     1     -38.443 -51.118  13.591  1.00  0.00     0.111 A 
HETATM    8  C   UNL     1     -37.534 -50.314  12.944  1.00  0.00     0.037 A 
HETATM    9  C   UNL     1     -38.130 -50.030  11.701  1.00  0.00     0.108 A 
HETATM   10  N   UNL     1     -39.322 -50.614  11.564  1.00  0.00    -0.310 N 
ATOM     11  HN  UNL     1     -39.959 -50.568  10.769  1.00  0.00     0.186 HD
ENDBRANCH   5   6
ENDBRANCH   3   5
ENDBRANCH   1   3
BRANCH   1  12
HETATM   12  C   UNL     1     -42.977 -53.698  12.868  1.00  0.00     0.290 C 
BRANCH  12  13
HETATM   13  C   UNL     1     -44.403 -54.256  13.025  1.00  0.00     0.155 C 
BRANCH  13  14
HETATM   14  N   UNL     1     -45.354 -53.342  13.645  1.00  0.00    -0.350 N 
HETATM   15  C   UNL     1     -45.156 -52.852  14.984  1.00  0.00     0.126 C 
HETATM   16  C   UNL     1     -46.170 -51.738  15.155  1.00  0.00     0.029 C 
HETATM   17  C   UNL     1     -46.586 -51.347  13.746  1.00  0.00     0.104 C 
HETATM   18  C   UNL     1     -46.157 -52.506  12.885  1.00  0.00     0.219 C 
HETATM   19  O   UNL     1     -46.417 -52.626  11.698  1.00  0.00    -0.273 OA
ENDBRANCH  13  14
ENDBRANCH  12  13
ENDBRANCH   1  12
TORSDOF 6
ENDMDL
MODEL 4
REMARK VINA RESULT:      -5.1      2.684      3.762
REMARK  6 active torsions:
REMARK  status: ('A' for Active; 'I' for Inactive)
REMARK    1  A    between atoms: C_2  and  C_3 
REMARK    2  A    between atoms: C_2  and  N_10 
REMARK    3  A    between atoms: C_3  and  N_4 
REMARK    4  A    between atoms: N_10  and  C_11 
REMARK    5  A    between atoms: C_11  and  C_12 
REMARK    6  A    between atoms: C_12  and  N_13 
ROOT
HETATM    1  N   UNL     1     -42.329 -50.467  11.974  1.00  0.00     0.090 N 
HETATM    2  H   UNL     1     -41.469 -50.570  11.435  1.00  0.00     0.316 HD
ENDROOT
BRANCH   1   3
HETATM    3  C   UNL     1     -42.708 -49.035  12.019  1.00  0.00     0.236 C 
HETATM    4  C   UNL     1     -42.585 -48.460  13.436  1.00  0.00     0.044 C 
BRANCH   3   5
HETATM    5  C   UNL     1     -41.833 -48.250  11.017  1.00  0.00     0.183 C 
BRANCH   5   6
HETATM    6  N   UNL     1     -42.606 -47.594   9.976  1.00  0.00    -0.302 N 
HETATM    7  C   UNL     1     -43.184 -46.358  10.041  1.00  0.00     0.111 A 
HETATM    8  C   UNL     1     -43.749 -46.137   8.806  1.00  0.00     0.037 A 
HETATM    9  C   UNL     1     -43.474 -47.307   8.074  1.00  0.00     0.108 A 
HETATM   10  N   UNL     1     -42.781 -48.200   8.784  1.00  0.00    -0.310 N 
ATOM     11  HN  UNL     1     -42.459 -49.123   8.493  1.00  0.00     0.186 HD
ENDBRANCH   5   6
ENDBRANCH   3   5
ENDBRANCH   1   3
BRANCH   1  12
HETATM   12  C   UNL     1     -42.131 -51.085  13.294  1.00  0.00     0.290 C 
BRANCH  12  13
HETATM   13  C   UNL     1     -42.903 -52.391  13.555  1.00  0.00     0.155 C 
BRANCH  13  14
HETATM   14  N   UNL     1     -44.291 -52.210  13.961  1.00  0.00    -0.350 N 
HETATM   15  C   UNL     1     -44.653 -51.279  14.997  1.00  0.00     0.126 C 
HETATM   16  C   UNL     1     -46.163 -51.171  14.928  1.00  0.00     0.029 C 
HETATM   17  C   UNL     1     -46.546 -51.702  13.555  1.00  0.00     0.104 C 
HETATM   18  C   UNL     1     -45.340 -52.477  13.094  1.00  0.00     0.219 C 
HETATM   19  O   UNL     1     -45.293 -53.154  12.080  1.00  0.00    -0.273 OA
ENDBRANCH  13  14
ENDBRANCH  12  13
ENDBRANCH   1  12
TORSDOF 6
ENDMDL
MODEL 5
REMARK VINA RESULT:      -5.1      2.024      2.660
REMARK  6 active torsions:
REMARK  status: ('A' for Active; 'I' for Inactive)
REMARK    1  A    between atoms: C_2  and  C_3 
REMARK    2  A    between atoms: C_2  and  N_10 
REMARK    3  A    between atoms: C_3  and  N_4 
REMARK    4  A    between atoms: N_10  and  C_11 
REMARK    5  A    between atoms: C_11  and  C_12 
REMARK    6  A    between atoms: C_12  and  N_13 
ROOT
HETATM    1  N   UNL     1     -41.975 -51.646  11.803  1.00  0.00     0.090 N 
HETATM    2  H   UNL     1     -41.307 -52.006  11.121  1.00  0.00     0.316 HD
ENDROOT
BRANCH   1   3
HETATM    3  C   UNL     1     -41.348 -50.540  12.564  1.00  0.00     0.236 C 
HETATM    4  C   UNL     1     -40.216 -51.046  13.469  1.00  0.00     0.044 C 
BRANCH   3   5
HETATM    5  C   UNL     1     -40.839 -49.471  11.573  1.00  0.00     0.183 C 
BRANCH   5   6
HETATM    6  N   UNL     1     -41.911 -48.702  10.962  1.00  0.00    -0.302 N 
HETATM    7  C   UNL     1     -43.029 -48.221  11.582  1.00  0.00     0.111 A 
HETATM    8  C   UNL     1     -43.716 -47.508  10.627  1.00  0.00     0.037 A 
HETATM    9  C   UNL     1     -42.939 -47.635   9.460  1.00  0.00     0.108 A 
HETATM   10  N   UNL     1     -41.840 -48.366   9.659  1.00  0.00    -0.310 N 
ATOM     11  HN  UNL     1     -41.116 -48.612   8.983  1.00  0.00     0.186 HD
ENDBRANCH   5   6
ENDBRANCH   3   5
ENDBRANCH   1   3
BRANCH   1  12
HETATM   12  C   UNL     1     -42.445 -52.766  12.633  1.00  0.00     0.290 C 
BRANCH  12  13
HETATM   13  C   UNL     1     -43.888 -53.239  12.380  1.00  0.00     0.155 C 
BRANCH  13  14
HETATM   14  N   UNL     1     -44.859 -52.805  13.377  1.00  0.00    -0.350 N 
HETATM   15  C   UNL     1     -45.273 -51.430  13.470  1.00  0.00     0.126 C 
HETATM   16  C   UNL     1     -46.467 -51.435  14.404  1.00  0.00     0.029 C 
HETATM   17  C   UNL     1     -46.951 -52.876  14.437  1.00  0.00     0.104 C 
HETATM   18  C   UNL     1     -45.795 -53.680  13.906  1.00  0.00     0.219 C 
HETATM   19  O   UNL     1     -45.748 -54.900  13.881  1.00  0.00    -0.273 OA
ENDBRANCH  13  14
ENDBRANCH  12  13
ENDBRANCH   1  12
TORSDOF 6
ENDMDL
MODEL 6
REMARK VINA RESULT:      -5.1      1.356      1.740
REMARK  6 active torsions:
REMARK  status: ('A' for Active; 'I' for Inactive)
REMARK    1  A    between atoms: C_2  and  C_3 
REMARK    2  A    between atoms: C_2  and  N_10 
REMARK    3  A    between atoms: C_3  and  N_4 
REMARK    4  A    between atoms: N_10  and  C_11 
REMARK    5  A    between atoms: C_11  and  C_12 
REMARK    6  A    between atoms: C_12  and  N_13 
ROOT
HETATM    1  N   UNL     1     -42.602 -52.720  12.004  1.00  0.00     0.090 N 
HETATM    2  H   UNL     1     -41.770 -53.065  11.523  1.00  0.00     0.316 HD
ENDROOT
BRANCH   1   3
HETATM    3  C   UNL     1     -42.352 -51.341  12.483  1.00  0.00     0.236 C 
HETATM    4  C   UNL     1     -42.320 -51.270  14.016  1.00  0.00     0.044 C 
BRANCH   3   5
HETATM    5  C   UNL     1     -41.031 -50.826  11.871  1.00  0.00     0.183 C 
BRANCH   5   6
HETATM    6  N   UNL     1     -41.082 -49.421  11.501  1.00  0.00    -0.302 N 
HETATM    7  C   UNL     1     -40.103 -48.488  11.695  1.00  0.00     0.111 A 
HETATM    8  C   UNL     1     -40.571 -47.323  11.132  1.00  0.00     0.037 A 
HETATM    9  C   UNL     1     -41.849 -47.654  10.641  1.00  0.00     0.108 A 
HETATM   10  N   UNL     1     -42.166 -48.930  10.868  1.00  0.00    -0.310 N 
ATOM     11  HN  UNL     1     -43.026 -49.419  10.620  1.00  0.00     0.186 HD
ENDBRANCH   5   6
ENDBRANCH   3   5
ENDBRANCH   1   3
BRANCH   1  12
HETATM   12  C   UNL     1     -42.961 -53.677  13.062  1.00  0.00     0.290 C 
BRANCH  12  13
HETATM   13  C   UNL     1     -44.395 -54.236  13.013  1.00  0.00     0.155 C 
BRANCH  13  14
HETATM   14  N   UNL     1     -45.403 -53.391  13.641  1.00  0.00    -0.350 N 
HETATM   15  C   UNL     1     -45.312 -53.022  15.029  1.00  0.00     0.126 C 
HETATM   16  C   UNL     1     -46.353 -51.938  15.223  1.00  0.00     0.029 C 
HETATM   17  C   UNL     1     -46.672 -51.425  13.827  1.00  0.00     0.104 C 
HETATM   18  C   UNL     1     -46.162 -52.498  12.901  1.00  0.00     0.219 C 
HETATM   19  O   UNL     1     -46.332 -52.512  11.692  1.00  0.00    -0.273 OA
ENDBRANCH  13  14
ENDBRANCH  12  13
ENDBRANCH   1  12
TORSDOF 6
ENDMDL
MODEL 7
REMARK VINA RESULT:      -5.0      2.601      4.308
REMARK  6 active torsions:
REMARK  status: ('A' for Active; 'I' for Inactive)
REMARK    1  A    between atoms: C_2  and  C_3 
REMARK    2  A    between atoms: C_2  and  N_10 
REMARK    3  A    between atoms: C_3  and  N_4 
REMARK    4  A    between atoms: N_10  and  C_11 
REMARK    5  A    between atoms: C_11  and  C_12 
REMARK    6  A    between atoms: C_12  and  N_13 
ROOT
HETATM    1  N   UNL     1     -41.540 -50.270  12.127  1.00  0.00     0.090 N 
HETATM    2  H   UNL     1     -40.698 -50.032  12.654  1.00  0.00     0.316 HD
ENDROOT
BRANCH   1   3
HETATM    3  C   UNL     1     -42.328 -49.040  11.884  1.00  0.00     0.236 C 
HETATM    4  C   UNL     1     -42.555 -48.247  13.179  1.00  0.00     0.044 C 
BRANCH   3   5
HETATM    5  C   UNL     1     -41.611 -48.182  10.820  1.00  0.00     0.183 C 
BRANCH   5   6
HETATM    6  N   UNL     1     -42.523 -47.575   9.864  1.00  0.00    -0.302 N 
HETATM    7  C   UNL     1     -43.157 -46.372   9.989  1.00  0.00     0.111 A 
HETATM    8  C   UNL     1     -43.860 -46.190   8.821  1.00  0.00     0.037 A 
HETATM    9  C   UNL     1     -43.599 -47.348   8.064  1.00  0.00     0.108 A 
HETATM   10  N   UNL     1     -42.788 -48.197   8.698  1.00  0.00    -0.310 N 
ATOM     11  HN  UNL     1     -42.448 -49.103   8.376  1.00  0.00     0.186 HD
ENDBRANCH   5   6
ENDBRANCH   3   5
ENDBRANCH   1   3
BRANCH   1  12
HETATM   12  C   UNL     1     -42.264 -51.323  12.856  1.00  0.00     0.290 C 
BRANCH  12  13
HETATM   13  C   UNL     1     -42.299 -52.709  12.188  1.00  0.00     0.155 C 
BRANCH  13  14
HETATM   14  N   UNL     1     -42.882 -53.768  13.002  1.00  0.00    -0.350 N 
HETATM   15  C   UNL     1     -42.195 -54.291  14.154  1.00  0.00     0.126 C 
HETATM   16  C   UNL     1     -43.219 -55.141  14.878  1.00  0.00     0.029 C 
HETATM   17  C   UNL     1     -44.571 -54.692  14.345  1.00  0.00     0.104 C 
HETATM   18  C   UNL     1     -44.253 -53.959  13.068  1.00  0.00     0.219 C 
HETATM   19  O   UNL     1     -45.087 -53.540  12.280  1.00  0.00    -0.273 OA
ENDBRANCH  13  14
ENDBRANCH  12  13
ENDBRANCH   1  12
TORSDOF 6
ENDMDL
MODEL 8
REMARK VINA RESULT:      -4.7      2.579      6.334
REMARK  6 active torsions:
REMARK  status: ('A' for Active; 'I' for Inactive)
REMARK    1  A    between atoms: C_2  and  C_3 
REMARK    2  A    between atoms: C_2  and  N_10 
REMARK    3  A    between atoms: C_3  and  N_4 
REMARK    4  A    between atoms: N_10  and  C_11 
REMARK    5  A    between atoms: C_11  and  C_12 
REMARK    6  A    between atoms: C_12  and  N_13 
ROOT
HETATM    1  N   UNL     1     -42.077 -51.967  13.795  1.00  0.00     0.090 N 
HETATM    2  H   UNL     1     -41.196 -52.144  14.279  1.00  0.00     0.316 HD
ENDROOT
BRANCH   1   3
HETATM    3  C   UNL     1     -42.446 -53.161  13.000  1.00  0.00     0.236 C 
HETATM    4  C   UNL     1     -41.305 -54.187  12.956  1.00  0.00     0.044 C 
BRANCH   3   5
HETATM    5  C   UNL     1     -43.734 -53.779  13.584  1.00  0.00     0.183 C 
BRANCH   5   6
HETATM    6  N   UNL     1     -44.883 -52.894  13.498  1.00  0.00    -0.302 N 
HETATM    7  C   UNL     1     -45.567 -52.335  14.540  1.00  0.00     0.111 A 
HETATM    8  C   UNL     1     -46.528 -51.528  13.976  1.00  0.00     0.037 A 
HETATM    9  C   UNL     1     -46.353 -51.684  12.588  1.00  0.00     0.108 A 
HETATM   10  N   UNL     1     -45.355 -52.519  12.291  1.00  0.00    -0.310 N 
ATOM     11  HN  UNL     1     -45.026 -52.805  11.370  1.00  0.00     0.186 HD
ENDBRANCH   5   6
ENDBRANCH   3   5
ENDBRANCH   1   3
BRANCH   1  12
HETATM   12  C   UNL     1     -41.938 -50.731  13.009  1.00  0.00     0.290 C 
BRANCH  12  13
HETATM   13  C   UNL     1     -40.704 -49.865  13.320  1.00  0.00     0.155 C 
BRANCH  13  14
HETATM   14  N   UNL     1     -39.476 -50.289  12.661  1.00  0.00    -0.350 N 
HETATM   15  C   UNL     1     -38.816 -49.449  11.696  1.00  0.00     0.126 C 
HETATM   16  C   UNL     1     -37.464 -50.094  11.463  1.00  0.00     0.029 C 
HETATM   17  C   UNL     1     -37.246 -51.020  12.650  1.00  0.00     0.104 C 
HETATM   18  C   UNL     1     -38.615 -51.201  13.250  1.00  0.00     0.219 C 
HETATM   19  O   UNL     1     -38.879 -51.971  14.160  1.00  0.00    -0.273 OA
ENDBRANCH  13  14
ENDBRANCH  12  13
ENDBRANCH   1  12
TORSDOF 6
ENDMDL
MODEL 9
REMARK VINA RESULT:      -4.7      4.598      6.289
REMARK  6 active torsions:
REMARK  status: ('A' for Active; 'I' for Inactive)
REMARK    1  A    between atoms: C_2  and  C_3 
REMARK    2  A    between atoms: C_2  and  N_10 
REMARK    3  A    between atoms: C_3  and  N_4 
REMARK    4  A    between atoms: N_10  and  C_11 
REMARK    5  A    between atoms: C_11  and  C_12 
REMARK    6  A    between atoms: C_12  and  N_13 
ROOT
HETATM    1  N   UNL     1     -40.577 -50.339  10.911  1.00  0.00     0.090 N 
HETATM    2  H   UNL     1     -39.558 -50.405  10.944  1.00  0.00     0.316 HD
ENDROOT
BRANCH   1   3
HETATM    3  C   UNL     1     -40.980 -48.925  11.088  1.00  0.00     0.236 C 
HETATM    4  C   UNL     1     -42.272 -48.802  11.908  1.00  0.00     0.044 C 
BRANCH   3   5
HETATM    5  C   UNL     1     -39.820 -48.149  11.749  1.00  0.00     0.183 C 
BRANCH   5   6
HETATM    6  N   UNL     1     -39.897 -46.713  11.535  1.00  0.00    -0.302 N 
HETATM    7  C   UNL     1     -39.830 -45.738  12.489  1.00  0.00     0.111 A 
HETATM    8  C   UNL     1     -39.884 -44.541  11.814  1.00  0.00     0.037 A 
HETATM    9  C   UNL     1     -40.002 -44.901  10.459  1.00  0.00     0.108 A 
HETATM   10  N   UNL     1     -40.015 -46.225  10.284  1.00  0.00    -0.310 N 
ATOM     11  HN  UNL     1     -40.095 -46.744   9.410  1.00  0.00     0.186 HD
ENDBRANCH   5   6
ENDBRANCH   3   5
ENDBRANCH   1   3
BRANCH   1  12
HETATM   12  C   UNL     1     -41.137 -51.262  11.911  1.00  0.00     0.290 C 
BRANCH  12  13
HETATM   13  C   UNL     1     -40.129 -51.905  12.880  1.00  0.00     0.155 C 
BRANCH  13  14
HETATM   14  N   UNL     1     -39.261 -50.963  13.575  1.00  0.00    -0.350 N 
HETATM   15  C   UNL     1     -39.662 -50.351  14.815  1.00  0.00     0.126 C 
HETATM   16  C   UNL     1     -38.412 -49.683  15.353  1.00  0.00     0.029 C 
HETATM   17  C   UNL     1     -37.253 -50.335  14.615  1.00  0.00     0.104 C 
HETATM   18  C   UNL     1     -37.885 -50.993  13.417  1.00  0.00     0.219 C 
HETATM   19  O   UNL     1     -37.267 -51.529  12.510  1.00  0.00    -0.273 OA
ENDBRANCH  13  14
ENDBRANCH  12  13
ENDBRANCH   1  12
TORSDOF 6
ENDMDL
