MODEL 1
REMARK VINA RESULT:      -5.5      0.000      0.000
REMARK  6 active torsions:
REMARK  status: ('A' for Active; 'I' for Inactive)
REMARK    1  A    between atoms: O_1  and  C_2 
REMARK    2  A    between atoms: C_2  and  C_3 
REMARK    3  A    between atoms: C_3  and  C_4 
REMARK    4  A    between atoms: C_4  and  N_5 
REMARK    5  A    between atoms: C_4  and  C_16 
REMARK       I    between atoms: N_5  and  C_6 
REMARK       I    between atoms: C_6  and  N_8 
REMARK    6  A    between atoms: N_8  and  C_9 
ROOT
HETATM    1  N   UNL     1     -40.433 -49.321  10.758  1.00  0.00    -0.338 N 
HETATM    2  C   UNL     1     -41.542 -48.503  10.837  1.00  0.00     0.321 C 
HETATM    3  O   UNL     1     -41.974 -48.091  11.905  1.00  0.00    -0.247 OA
HETATM    4  N   UNL     1     -42.032 -48.181   9.591  1.00  0.00    -0.308 N 
HETATM    5  H   UNL     1     -40.422 -49.988  10.000  1.00  0.00     0.164 HD
HETATM    6  H   UNL     1     -41.388 -48.305   8.823  1.00  0.00     0.170 HD
ENDROOT
BRANCH   1   7
HETATM    7  C   UNL     1     -39.762 -49.719  11.986  1.00  0.00     0.092 C 
BRANCH   7   8
HETATM    8  C   UNL     1     -38.292 -49.288  11.991  1.00  0.00     0.051 C 
BRANCH   8   9
HETATM    9  C   UNL     1     -37.384 -50.325  11.341  1.00  0.00     0.166 C 
BRANCH   9  10
HETATM   10  O   UNL     1     -37.384 -50.116   9.933  1.00  0.00    -0.401 OA
HETATM   11  H   UNL     1     -37.528 -49.165   9.788  1.00  0.00     0.209 HD
ENDBRANCH   9  10
ENDBRANCH   8   9
ENDBRANCH   7   8
BRANCH   7  12
HETATM   12  C   UNL     1     -39.904 -51.200  12.266  1.00  0.00     0.008 A 
HETATM   13  C   UNL     1     -41.144 -51.982  11.897  1.00  0.00     0.007 A 
HETATM   14  C   UNL     1     -40.795 -51.784  13.343  1.00  0.00     0.007 A 
ENDBRANCH   7  12
ENDBRANCH   1   7
BRANCH   4  15
HETATM   15  C   UNL     1     -43.179 -47.387   9.357  1.00  0.00     0.051 A 
HETATM   16  C   UNL     1     -44.442 -47.914   9.091  1.00  0.00     0.032 A 
HETATM   17  C   UNL     1     -45.530 -47.065   8.904  1.00  0.00     0.019 A 
HETATM   18  C   UNL     1     -45.318 -45.699   8.975  1.00  0.00     0.088 A 
HETATM   19  N   UNL     1     -44.110 -45.141   9.203  1.00  0.00    -0.373 N 
HETATM   20  C   UNL     1     -43.073 -45.996   9.384  1.00  0.00     0.117 A 
ATOM     21  HN  UNL     1     -43.984 -44.129   9.236  1.00  0.00     0.164 HD
ENDBRANCH   4  15
TORSDOF 6
ENDMDL
MODEL 2
REMARK VINA RESULT:      -5.4      3.262      6.048
REMARK  6 active torsions:
REMARK  status: ('A' for Active; 'I' for Inactive)
REMARK    1  A    between atoms: O_1  and  C_2 
REMARK    2  A    between atoms: C_2  and  C_3 
REMARK    3  A    between atoms: C_3  and  C_4 
REMARK    4  A    between atoms: C_4  and  N_5 
REMARK    5  A    between atoms: C_4  and  C_16 
REMARK       I    between atoms: N_5  and  C_6 
REMARK       I    between atoms: C_6  and  N_8 
REMARK    6  A    between atoms: N_8  and  C_9 
ROOT
HETATM    1  N   UNL     1     -41.100 -50.921  11.386  1.00  0.00    -0.338 N 
HETATM    2  C   UNL     1     -42.005 -51.393  12.315  1.00  0.00     0.321 C 
HETATM    3  O   UNL     1     -42.277 -50.773  13.333  1.00  0.00    -0.247 OA
HETATM    4  N   UNL     1     -42.579 -52.580  11.916  1.00  0.00    -0.308 N 
HETATM    5  H   UNL     1     -40.570 -51.619  10.883  1.00  0.00     0.164 HD
HETATM    6  H   UNL     1     -42.516 -52.785  10.930  1.00  0.00     0.170 HD
ENDROOT
BRANCH   1   7
HETATM    7  C   UNL     1     -40.436 -49.650  11.631  1.00  0.00     0.092 C 
BRANCH   7   8
HETATM    8  C   UNL     1     -41.002 -48.538  10.742  1.00  0.00     0.051 C 
BRANCH   8   9
HETATM    9  C   UNL     1     -42.149 -47.791  11.411  1.00  0.00     0.166 C 
BRANCH   9  10
HETATM   10  O   UNL     1     -43.323 -48.591  11.336  1.00  0.00    -0.401 OA
HETATM   11  H   UNL     1     -43.730 -48.581  12.219  1.00  0.00     0.209 HD
ENDBRANCH   9  10
ENDBRANCH   8   9
ENDBRANCH   7   8
BRANCH   7  12
HETATM   12  C   UNL     1     -38.932 -49.751  11.500  1.00  0.00     0.008 A 
HETATM   13  C   UNL     1     -38.107 -50.718  12.318  1.00  0.00     0.007 A 
HETATM   14  C   UNL     1     -37.948 -49.241  12.533  1.00  0.00     0.007 A 
ENDBRANCH   7  12
ENDBRANCH   1   7
BRANCH   4  15
HETATM   15  C   UNL     1     -43.516 -53.318  12.678  1.00  0.00     0.051 A 
HETATM   16  C   UNL     1     -43.158 -54.270  13.630  1.00  0.00     0.032 A 
HETATM   17  C   UNL     1     -44.141 -54.932  14.362  1.00  0.00     0.019 A 
HETATM   18  C   UNL     1     -45.467 -54.628  14.108  1.00  0.00     0.088 A 
HETATM   19  N   UNL     1     -45.863 -53.734  13.177  1.00  0.00    -0.373 N 
HETATM   20  C   UNL     1     -44.881 -53.105  12.485  1.00  0.00     0.117 A 
ATOM     21  HN  UNL     1     -46.850 -53.541  13.003  1.00  0.00     0.164 HD
ENDBRANCH   4  15
TORSDOF 6
ENDMDL
MODEL 3
REMARK VINA RESULT:      -5.4      2.343      6.579
REMARK  6 active torsions:
REMARK  status: ('A' for Active; 'I' for Inactive)
REMARK    1  A    between atoms: O_1  and  C_2 
REMARK    2  A    between atoms: C_2  and  C_3 
REMARK    3  A    between atoms: C_3  and  C_4 
REMARK    4  A    between atoms: C_4  and  N_5 
REMARK    5  A    between atoms: C_4  and  C_16 
REMARK       I    between atoms: N_5  and  C_6 
REMARK       I    between atoms: C_6  and  N_8 
REMARK    6  A    between atoms: N_8  and  C_9 
ROOT
HETATM    1  N   UNL     1     -41.558 -48.513  10.382  1.00  0.00    -0.338 N 
HETATM    2  C   UNL     1     -41.554 -49.454  11.392  1.00  0.00     0.321 C 
HETATM    3  O   UNL     1     -42.276 -49.358  12.375  1.00  0.00    -0.247 OA
HETATM    4  N   UNL     1     -40.705 -50.502  11.115  1.00  0.00    -0.308 N 
HETATM    5  H   UNL     1     -40.681 -48.367   9.903  1.00  0.00     0.164 HD
HETATM    6  H   UNL     1     -40.449 -50.611  10.144  1.00  0.00     0.170 HD
ENDROOT
BRANCH   1   7
HETATM    7  C   UNL     1     -42.440 -47.361  10.495  1.00  0.00     0.092 C 
BRANCH   7   8
HETATM    8  C   UNL     1     -43.713 -47.541   9.661  1.00  0.00     0.051 C 
BRANCH   8   9
HETATM    9  C   UNL     1     -43.495 -47.193   8.194  1.00  0.00     0.166 C 
BRANCH   9  10
HETATM   10  O   UNL     1     -42.889 -48.305   7.544  1.00  0.00    -0.401 OA
HETATM   11  H   UNL     1     -43.406 -48.479   6.739  1.00  0.00     0.209 HD
ENDBRANCH   9  10
ENDBRANCH   8   9
ENDBRANCH   7   8
BRANCH   7  12
HETATM   12  C   UNL     1     -41.737 -46.064  10.158  1.00  0.00     0.008 A 
HETATM   13  C   UNL     1     -40.323 -45.766  10.600  1.00  0.00     0.007 A 
HETATM   14  C   UNL     1     -41.459 -44.959  11.158  1.00  0.00     0.007 A 
ENDBRANCH   7  12
ENDBRANCH   1   7
BRANCH   4  15
HETATM   15  C   UNL     1     -40.466 -51.596  11.979  1.00  0.00     0.051 A 
HETATM   16  C   UNL     1     -39.626 -51.534  13.089  1.00  0.00     0.032 A 
HETATM   17  C   UNL     1     -39.468 -52.648  13.912  1.00  0.00     0.019 A 
HETATM   18  C   UNL     1     -40.152 -53.806  13.587  1.00  0.00     0.088 A 
HETATM   19  N   UNL     1     -40.954 -53.923  12.507  1.00  0.00    -0.373 N 
HETATM   20  C   UNL     1     -41.088 -52.819  11.731  1.00  0.00     0.117 A 
ATOM     21  HN  UNL     1     -41.434 -54.796  12.288  1.00  0.00     0.164 HD
ENDBRANCH   4  15
TORSDOF 6
ENDMDL
MODEL 4
REMARK VINA RESULT:      -5.3      3.914      6.373
REMARK  6 active torsions:
REMARK  status: ('A' for Active; 'I' for Inactive)
REMARK    1  A    between atoms: O_1  and  C_2 
REMARK    2  A    between atoms: C_2  and  C_3 
REMARK    3  A    between atoms: C_3  and  C_4 
REMARK    4  A    between atoms: C_4  and  N_5 
REMARK    5  A    between atoms: C_4  and  C_16 
REMARK       I    between atoms: N_5  and  C_6 
REMARK       I    between atoms: C_6  and  N_8 
REMARK    6  A    between atoms: N_8  and  C_9 
ROOT
HETATM    1  N   UNL     1     -43.797 -52.622  12.509  1.00  0.00    -0.338 N 
HETATM    2  C   UNL     1     -42.695 -51.872  12.867  1.00  0.00     0.321 C 
HETATM    3  O   UNL     1     -42.430 -51.619  14.034  1.00  0.00    -0.247 OA
HETATM    4  N   UNL     1     -41.937 -51.519  11.773  1.00  0.00    -0.308 N 
HETATM    5  H   UNL     1     -44.225 -52.394  11.624  1.00  0.00     0.164 HD
HETATM    6  H   UNL     1     -42.085 -52.073  10.942  1.00  0.00     0.170 HD
ENDROOT
BRANCH   1   7
HETATM    7  C   UNL     1     -44.681 -53.119  13.553  1.00  0.00     0.092 C 
BRANCH   7   8
HETATM    8  C   UNL     1     -44.564 -54.638  13.715  1.00  0.00     0.051 C 
BRANCH   8   9
HETATM    9  C   UNL     1     -43.584 -55.027  14.815  1.00  0.00     0.166 C 
BRANCH   9  10
HETATM   10  O   UNL     1     -42.266 -54.695  14.393  1.00  0.00    -0.401 OA
HETATM   11  H   UNL     1     -41.767 -55.528  14.340  1.00  0.00     0.209 HD
ENDBRANCH   9  10
ENDBRANCH   8   9
ENDBRANCH   7   8
BRANCH   7  12
HETATM   12  C   UNL     1     -46.118 -52.695  13.339  1.00  0.00     0.008 A 
HETATM   13  C   UNL     1     -46.497 -51.499  12.495  1.00  0.00     0.007 A 
HETATM   14  C   UNL     1     -46.751 -51.473  13.974  1.00  0.00     0.007 A 
ENDBRANCH   7  12
ENDBRANCH   1   7
BRANCH   4  15
HETATM   15  C   UNL     1     -40.769 -50.721  11.826  1.00  0.00     0.051 A 
HETATM   16  C   UNL     1     -39.573 -51.142  12.403  1.00  0.00     0.032 A 
HETATM   17  C   UNL     1     -38.456 -50.309  12.387  1.00  0.00     0.019 A 
HETATM   18  C   UNL     1     -38.575 -49.062  11.799  1.00  0.00     0.088 A 
HETATM   19  N   UNL     1     -39.720 -48.599  11.252  1.00  0.00    -0.373 N 
HETATM   20  C   UNL     1     -40.786 -49.437  11.282  1.00  0.00     0.117 A 
ATOM     21  HN  UNL     1     -39.779 -47.669  10.838  1.00  0.00     0.164 HD
ENDBRANCH   4  15
TORSDOF 6
ENDMDL
MODEL 5
REMARK VINA RESULT:      -5.2      2.943      4.126
REMARK  6 active torsions:
REMARK  status: ('A' for Active; 'I' for Inactive)
REMARK    1  A    between atoms: O_1  and  C_2 
REMARK    2  A    between atoms: C_2  and  C_3 
REMARK    3  A    between atoms: C_3  and  C_4 
REMARK    4  A    between atoms: C_4  and  N_5 
REMARK    5  A    between atoms: C_4  and  C_16 
REMARK       I    between atoms: N_5  and  C_6 
REMARK       I    between atoms: C_6  and  N_8 
REMARK    6  A    between atoms: N_8  and  C_9 
ROOT
HETATM    1  N   UNL     1     -42.548 -51.698  12.035  1.00  0.00    -0.338 N 
HETATM    2  C   UNL     1     -42.623 -50.359  12.362  1.00  0.00     0.321 C 
HETATM    3  O   UNL     1     -43.103 -49.972  13.419  1.00  0.00    -0.247 OA
HETATM    4  N   UNL     1     -42.047 -49.562  11.398  1.00  0.00    -0.308 N 
HETATM    5  H   UNL     1     -42.621 -51.923  11.053  1.00  0.00     0.164 HD
HETATM    6  H   UNL     1     -41.406 -50.028  10.773  1.00  0.00     0.170 HD
ENDROOT
BRANCH   1   7
HETATM    7  C   UNL     1     -43.071 -52.682  12.971  1.00  0.00     0.092 C 
BRANCH   7   8
HETATM    8  C   UNL     1     -42.033 -53.764  13.287  1.00  0.00     0.051 C 
BRANCH   8   9
HETATM    9  C   UNL     1     -40.631 -53.367  12.843  1.00  0.00     0.166 C 
BRANCH   9  10
HETATM   10  O   UNL     1     -40.523 -53.558  11.438  1.00  0.00    -0.401 OA
HETATM   11  H   UNL     1     -39.665 -53.189  11.166  1.00  0.00     0.209 HD
ENDBRANCH   9  10
ENDBRANCH   8   9
ENDBRANCH   7   8
BRANCH   7  12
HETATM   12  C   UNL     1     -44.376 -53.287  12.500  1.00  0.00     0.008 A 
HETATM   13  C   UNL     1     -45.682 -52.528  12.529  1.00  0.00     0.007 A 
HETATM   14  C   UNL     1     -45.498 -53.719  13.423  1.00  0.00     0.007 A 
ENDBRANCH   7  12
ENDBRANCH   1   7
BRANCH   4  15
HETATM   15  C   UNL     1     -42.003 -48.148  11.443  1.00  0.00     0.051 A 
HETATM   16  C   UNL     1     -40.870 -47.421  11.802  1.00  0.00     0.032 A 
HETATM   17  C   UNL     1     -40.898 -46.028  11.789  1.00  0.00     0.019 A 
HETATM   18  C   UNL     1     -42.075 -45.398  11.428  1.00  0.00     0.088 A 
HETATM   19  N   UNL     1     -43.207 -46.058  11.100  1.00  0.00    -0.373 N 
HETATM   20  C   UNL     1     -43.143 -47.413  11.118  1.00  0.00     0.117 A 
ATOM     21  HN  UNL     1     -44.064 -45.564  10.851  1.00  0.00     0.164 HD
ENDBRANCH   4  15
TORSDOF 6
ENDMDL
MODEL 6
REMARK VINA RESULT:      -5.1      3.473      4.711
REMARK  6 active torsions:
REMARK  status: ('A' for Active; 'I' for Inactive)
REMARK    1  A    between atoms: O_1  and  C_2 
REMARK    2  A    between atoms: C_2  and  C_3 
REMARK    3  A    between atoms: C_3  and  C_4 
REMARK    4  A    between atoms: C_4  and  N_5 
REMARK    5  A    between atoms: C_4  and  C_16 
REMARK       I    between atoms: N_5  and  C_6 
REMARK       I    between atoms: C_6  and  N_8 
REMARK    6  A    between atoms: N_8  and  C_9 
ROOT
HETATM    1  N   UNL     1     -44.065 -50.538  12.779  1.00  0.00    -0.338 N 
HETATM    2  C   UNL     1     -43.197 -49.465  12.810  1.00  0.00     0.321 C 
HETATM    3  O   UNL     1     -42.495 -49.223  13.781  1.00  0.00    -0.247 OA
HETATM    4  N   UNL     1     -43.191 -48.776  11.617  1.00  0.00    -0.308 N 
HETATM    5  H   UNL     1     -44.909 -50.416  12.237  1.00  0.00     0.164 HD
HETATM    6  H   UNL     1     -43.549 -49.281  10.820  1.00  0.00     0.170 HD
ENDROOT
BRANCH   1   7
HETATM    7  C   UNL     1     -44.159 -51.403  13.946  1.00  0.00     0.092 C 
BRANCH   7   8
HETATM    8  C   UNL     1     -43.059 -52.470  13.946  1.00  0.00     0.051 C 
BRANCH   8   9
HETATM    9  C   UNL     1     -43.158 -53.399  12.742  1.00  0.00     0.166 C 
BRANCH   9  10
HETATM   10  O   UNL     1     -42.630 -52.731  11.602  1.00  0.00    -0.401 OA
HETATM   11  H   UNL     1     -41.870 -52.206  11.907  1.00  0.00     0.209 HD
ENDBRANCH   9  10
ENDBRANCH   8   9
ENDBRANCH   7   8
BRANCH   7  12
HETATM   12  C   UNL     1     -45.531 -52.023  14.094  1.00  0.00     0.008 A 
HETATM   13  C   UNL     1     -46.741 -51.509  13.347  1.00  0.00     0.007 A 
HETATM   14  C   UNL     1     -46.682 -51.381  14.841  1.00  0.00     0.007 A 
ENDBRANCH   7  12
ENDBRANCH   1   7
BRANCH   4  15
HETATM   15  C   UNL     1     -42.427 -47.612  11.364  1.00  0.00     0.051 A 
HETATM   16  C   UNL     1     -42.852 -46.324  11.684  1.00  0.00     0.032 A 
HETATM   17  C   UNL     1     -42.027 -45.231  11.432  1.00  0.00     0.019 A 
HETATM   18  C   UNL     1     -40.794 -45.459  10.847  1.00  0.00     0.088 A 
HETATM   19  N   UNL     1     -40.350 -46.684  10.493  1.00  0.00    -0.373 N 
HETATM   20  C   UNL     1     -41.177 -47.727  10.757  1.00  0.00     0.117 A 
ATOM     21  HN  UNL     1     -39.441 -46.818  10.051  1.00  0.00     0.164 HD
ENDBRANCH   4  15
TORSDOF 6
ENDMDL
MODEL 7
REMARK VINA RESULT:      -5.0      2.326      3.014
REMARK  6 active torsions:
REMARK  status: ('A' for Active; 'I' for Inactive)
REMARK    1  A    between atoms: O_1  and  C_2 
REMARK    2  A    between atoms: C_2  and  C_3 
REMARK    3  A    between atoms: C_3  and  C_4 
REMARK    4  A    between atoms: C_4  and  N_5 
REMARK    5  A    between atoms: C_4  and  C_16 
REMARK       I    between atoms: N_5  and  C_6 
REMARK       I    between atoms: C_6  and  N_8 
REMARK    6  A    between atoms: N_8  and  C_9 
ROOT
HETATM    1  N   UNL     1     -39.537 -48.564  11.073  1.00  0.00    -0.338 N 
HETATM    2  C   UNL     1     -39.993 -47.365  11.582  1.00  0.00     0.321 C 
HETATM    3  O   UNL     1     -39.936 -47.098  12.774  1.00  0.00    -0.247 OA
HETATM    4  N   UNL     1     -40.443 -46.524  10.588  1.00  0.00    -0.308 N 
HETATM    5  H   UNL     1     -40.022 -48.920  10.263  1.00  0.00     0.164 HD
HETATM    6  H   UNL     1     -40.118 -46.736   9.656  1.00  0.00     0.170 HD
ENDROOT
BRANCH   1   7
HETATM    7  C   UNL     1     -38.981 -49.551  11.987  1.00  0.00     0.092 C 
BRANCH   7   8
HETATM    8  C   UNL     1     -37.555 -49.946  11.592  1.00  0.00     0.051 C 
BRANCH   8   9
HETATM    9  C   UNL     1     -37.102 -51.232  12.272  1.00  0.00     0.166 C 
BRANCH   9  10
HETATM   10  O   UNL     1     -36.581 -52.114  11.285  1.00  0.00    -0.401 OA
HETATM   11  H   UNL     1     -36.333 -51.568  10.519  1.00  0.00     0.209 HD
ENDBRANCH   9  10
ENDBRANCH   8   9
ENDBRANCH   7   8
BRANCH   7  12
HETATM   12  C   UNL     1     -39.871 -50.767  12.131  1.00  0.00     0.008 A 
HETATM   13  C   UNL     1     -41.380 -50.678  12.111  1.00  0.00     0.007 A 
HETATM   14  C   UNL     1     -40.678 -51.092  13.371  1.00  0.00     0.007 A 
ENDBRANCH   7  12
ENDBRANCH   1   7
BRANCH   4  15
HETATM   15  C   UNL     1     -41.000 -45.242  10.808  1.00  0.00     0.051 A 
HETATM   16  C   UNL     1     -40.238 -44.092  11.000  1.00  0.00     0.032 A 
HETATM   17  C   UNL     1     -40.862 -42.859  11.179  1.00  0.00     0.019 A 
HETATM   18  C   UNL     1     -42.245 -42.817  11.175  1.00  0.00     0.088 A 
HETATM   19  N   UNL     1     -43.026 -43.907  11.022  1.00  0.00    -0.373 N 
HETATM   20  C   UNL     1     -42.386 -45.090  10.846  1.00  0.00     0.117 A 
ATOM     21  HN  UNL     1     -44.044 -43.845  11.037  1.00  0.00     0.164 HD
ENDBRANCH   4  15
TORSDOF 6
ENDMDL
MODEL 8
REMARK VINA RESULT:      -4.9      4.642      7.104
REMARK  6 active torsions:
REMARK  status: ('A' for Active; 'I' for Inactive)
REMARK    1  A    between atoms: O_1  and  C_2 
REMARK    2  A    between atoms: C_2  and  C_3 
REMARK    3  A    between atoms: C_3  and  C_4 
REMARK    4  A    between atoms: C_4  and  N_5 
REMARK    5  A    between atoms: C_4  and  C_16 
REMARK       I    between atoms: N_5  and  C_6 
REMARK       I    between atoms: C_6  and  N_8 
REMARK    6  A    between atoms: N_8  and  C_9 
ROOT
HETATM    1  N   UNL     1     -42.364 -53.352  14.546  1.00  0.00    -0.338 N 
HETATM    2  C   UNL     1     -41.227 -53.122  13.799  1.00  0.00     0.321 C 
HETATM    3  O   UNL     1     -40.592 -54.031  13.281  1.00  0.00    -0.247 OA
HETATM    4  N   UNL     1     -40.958 -51.778  13.673  1.00  0.00    -0.308 N 
HETATM    5  H   UNL     1     -42.539 -52.708  15.303  1.00  0.00     0.164 HD
HETATM    6  H   UNL     1     -41.735 -51.159  13.854  1.00  0.00     0.170 HD
ENDROOT
BRANCH   1   7
HETATM    7  C   UNL     1     -42.816 -54.722  14.737  1.00  0.00     0.092 C 
BRANCH   7   8
HETATM    8  C   UNL     1     -44.273 -54.901  14.297  1.00  0.00     0.051 C 
BRANCH   8   9
HETATM    9  C   UNL     1     -44.709 -53.834  13.300  1.00  0.00     0.166 C 
BRANCH   9  10
HETATM   10  O   UNL     1     -44.108 -54.111  12.040  1.00  0.00    -0.401 OA
HETATM   11  H   UNL     1     -43.971 -55.073  11.996  1.00  0.00     0.209 HD
ENDBRANCH   9  10
ENDBRANCH   8   9
ENDBRANCH   7   8
BRANCH   7  12
HETATM   12  C   UNL     1     -42.605 -55.205  16.156  1.00  0.00     0.008 A 
HETATM   13  C   UNL     1     -41.409 -54.797  16.984  1.00  0.00     0.007 A 
HETATM   14  C   UNL     1     -41.564 -56.229  16.563  1.00  0.00     0.007 A 
ENDBRANCH   7  12
ENDBRANCH   1   7
BRANCH   4  15
HETATM   15  C   UNL     1     -39.840 -51.239  12.992  1.00  0.00     0.051 A 
HETATM   16  C   UNL     1     -38.529 -51.354  13.449  1.00  0.00     0.032 A 
HETATM   17  C   UNL     1     -37.478 -50.824  12.704  1.00  0.00     0.019 A 
HETATM   18  C   UNL     1     -37.775 -50.176  11.518  1.00  0.00     0.088 A 
HETATM   19  N   UNL     1     -39.031 -50.015  11.048  1.00  0.00    -0.373 N 
HETATM   20  C   UNL     1     -40.029 -50.546  11.797  1.00  0.00     0.117 A 
ATOM     21  HN  UNL     1     -39.218 -49.520  10.177  1.00  0.00     0.164 HD
ENDBRANCH   4  15
TORSDOF 6
ENDMDL
MODEL 9
REMARK VINA RESULT:      -4.7      3.083      5.187
REMARK  6 active torsions:
REMARK  status: ('A' for Active; 'I' for Inactive)
REMARK    1  A    between atoms: O_1  and  C_2 
REMARK    2  A    between atoms: C_2  and  C_3 
REMARK    3  A    between atoms: C_3  and  C_4 
REMARK    4  A    between atoms: C_4  and  N_5 
REMARK    5  A    between atoms: C_4  and  C_16 
REMARK       I    between atoms: N_5  and  C_6 
REMARK       I    between atoms: C_6  and  N_8 
REMARK    6  A    between atoms: N_8  and  C_9 
ROOT
HETATM    1  N   UNL     1     -43.278 -51.777  12.893  1.00  0.00    -0.338 N 
HETATM    2  C   UNL     1     -42.303 -50.963  12.353  1.00  0.00     0.321 C 
HETATM    3  O   UNL     1     -41.274 -51.411  11.869  1.00  0.00    -0.247 OA
HETATM    4  N   UNL     1     -42.670 -49.636  12.381  1.00  0.00    -0.308 N 
HETATM    5  H   UNL     1     -43.806 -51.393  13.664  1.00  0.00     0.164 HD
HETATM    6  H   UNL     1     -43.658 -49.458  12.488  1.00  0.00     0.170 HD
ENDROOT
BRANCH   1   7
HETATM    7  C   UNL     1     -43.070 -53.217  12.899  1.00  0.00     0.092 C 
BRANCH   7   8
HETATM    8  C   UNL     1     -44.346 -53.973  12.517  1.00  0.00     0.051 C 
BRANCH   8   9
HETATM    9  C   UNL     1     -45.607 -53.216  12.918  1.00  0.00     0.166 C 
BRANCH   9  10
HETATM   10  O   UNL     1     -46.200 -52.662  11.749  1.00  0.00    -0.401 OA
HETATM   11  H   UNL     1     -47.155 -52.837  11.805  1.00  0.00     0.209 HD
ENDBRANCH   9  10
ENDBRANCH   8   9
ENDBRANCH   7   8
BRANCH   7  12
HETATM   12  C   UNL     1     -42.508 -53.711  14.215  1.00  0.00     0.008 A 
HETATM   13  C   UNL     1     -41.487 -52.929  15.009  1.00  0.00     0.007 A 
HETATM   14  C   UNL     1     -41.100 -54.243  14.396  1.00  0.00     0.007 A 
ENDBRANCH   7  12
ENDBRANCH   1   7
BRANCH   4  15
HETATM   15  C   UNL     1     -41.860 -48.567  11.929  1.00  0.00     0.051 A 
HETATM   16  C   UNL     1     -40.891 -47.946  12.715  1.00  0.00     0.032 A 
HETATM   17  C   UNL     1     -40.111 -46.920  12.185  1.00  0.00     0.019 A 
HETATM   18  C   UNL     1     -40.336 -46.532  10.876  1.00  0.00     0.088 A 
HETATM   19  N   UNL     1     -41.281 -47.084  10.085  1.00  0.00    -0.373 N 
HETATM   20  C   UNL     1     -42.019 -48.082  10.631  1.00  0.00     0.117 A 
ATOM     21  HN  UNL     1     -41.431 -46.766   9.128  1.00  0.00     0.164 HD
ENDBRANCH   4  15
TORSDOF 6
ENDMDL
