MODEL 1
REMARK VINA RESULT:      -6.9      0.000      0.000
REMARK  5 active torsions:
REMARK  status: ('A' for Active; 'I' for Inactive)
REMARK    1  A    between atoms: C_2  and  N_3 
REMARK    2  A    between atoms: C_2  and  C_7 
REMARK       I    between atoms: N_3  and  C_4 
REMARK       I    between atoms: C_4  and  N_6 
REMARK       I    between atoms: C_7  and  N_9 
REMARK    3  A    between atoms: N_9  and  C_10 
REMARK    4  A    between atoms: C_10  and  C_11 
REMARK    5  A    between atoms: C_14  and  N_18 
ROOT
HETATM    1  C   UNL     1     -41.875 -49.661  12.104  1.00  0.00    -0.025 A 
HETATM    2  C   UNL     1     -42.977 -49.371  12.897  1.00  0.00     0.014 A 
HETATM    3  C   UNL     1     -43.477 -50.341  13.768  1.00  0.00     0.049 A 
HETATM    4  C   UNL     1     -42.865 -51.593  13.877  1.00  0.00     0.103 A 
HETATM    5  N   UNL     1     -41.794 -51.876  13.106  1.00  0.00    -0.352 N 
ATOM      6  HN  UNL     1     -41.344 -52.790  13.159  1.00  0.00     0.166 HD
HETATM    7  C   UNL     1     -41.325 -50.924  12.256  1.00  0.00     0.098 A 
ENDROOT
BRANCH   1   8
HETATM    8  C   UNL     1     -41.313 -48.654  11.146  1.00  0.00     0.162 C 
BRANCH   8   9
HETATM    9  N   UNL     1     -42.124 -48.519   9.962  1.00  0.00    -0.355 N 
HETATM   10  C   UNL     1     -42.806 -47.355   9.698  1.00  0.00     0.240 C 
HETATM   11  O   UNL     1     -42.659 -46.332  10.364  1.00  0.00    -0.271 OA
HETATM   12  H   UNL     1     -42.410 -49.365   9.463  1.00  0.00     0.162 HD
BRANCH  10  13
HETATM   13  C   UNL     1     -43.775 -47.400   8.494  1.00  0.00     0.174 C 
HETATM   14  C   UNL     1     -43.186 -48.137   7.297  1.00  0.00     0.042 C 
BRANCH  13  15
HETATM   15  N   UNL     1     -45.105 -47.871   8.892  1.00  0.00    -0.330 N 
HETATM   16  C   UNL     1     -46.193 -47.063   8.953  1.00  0.00     0.314 C 
HETATM   17  O   UNL     1     -46.193 -45.855   8.760  1.00  0.00    -0.248 OA
HETATM   18  N   UNL     1     -47.339 -47.741   9.190  1.00  0.00    -0.352 N 
HETATM   19  H   UNL     1     -47.295 -48.532   9.823  1.00  0.00     0.160 HD
HETATM   20  H   UNL     1     -48.147 -47.142   9.314  1.00  0.00     0.160 HD
HETATM   21  H   UNL     1     -45.309 -48.837   8.680  1.00  0.00     0.165 HD
ENDBRANCH  13  15
ENDBRANCH  10  13
ENDBRANCH   8   9
ENDBRANCH   1   8
BRANCH   4  22
HETATM   22  N   UNL     1     -43.374 -52.566  14.717  1.00  0.00    -0.362 N 
HETATM   23  C   UNL     1     -42.529 -53.312  15.660  1.00  0.00     0.156 C 
HETATM   24  C   UNL     1     -42.393 -54.787  15.227  1.00  0.00     0.136 C 
HETATM   25  C   UNL     1     -41.649 -55.587  16.289  1.00  0.00     0.041 C 
HETATM   26  O   UNL     1     -43.684 -55.396  15.051  1.00  0.00    -0.378 OA
HETATM   27  C   UNL     1     -44.428 -54.710  14.023  1.00  0.00     0.136 C 
HETATM   28  C   UNL     1     -45.756 -55.443  13.879  1.00  0.00     0.041 C 
HETATM   29  C   UNL     1     -44.649 -53.228  14.394  1.00  0.00     0.156 C 
ENDBRANCH   4  22
TORSDOF 5
ENDMDL
MODEL 2
REMARK VINA RESULT:      -6.9      1.224      2.306
REMARK  5 active torsions:
REMARK  status: ('A' for Active; 'I' for Inactive)
REMARK    1  A    between atoms: C_2  and  N_3 
REMARK    2  A    between atoms: C_2  and  C_7 
REMARK       I    between atoms: N_3  and  C_4 
REMARK       I    between atoms: C_4  and  N_6 
REMARK       I    between atoms: C_7  and  N_9 
REMARK    3  A    between atoms: N_9  and  C_10 
REMARK    4  A    between atoms: C_10  and  C_11 
REMARK    5  A    between atoms: C_14  and  N_18 
ROOT
HETATM    1  C   UNL     1     -41.641 -49.959  11.917  1.00  0.00    -0.025 A 
HETATM    2  C   UNL     1     -40.812 -51.059  11.746  1.00  0.00     0.014 A 
HETATM    3  C   UNL     1     -41.238 -52.319  12.170  1.00  0.00     0.049 A 
HETATM    4  C   UNL     1     -42.502 -52.496  12.739  1.00  0.00     0.103 A 
HETATM    5  N   UNL     1     -43.309 -51.426  12.907  1.00  0.00    -0.352 N 
ATOM      6  HN  UNL     1     -44.228 -51.533  13.336  1.00  0.00     0.166 HD
HETATM    7  C   UNL     1     -42.876 -50.205  12.497  1.00  0.00     0.098 A 
ENDROOT
BRANCH   1   8
HETATM    8  C   UNL     1     -41.219 -48.586  11.487  1.00  0.00     0.162 C 
BRANCH   8   9
HETATM    9  N   UNL     1     -42.094 -48.040  10.479  1.00  0.00    -0.355 N 
HETATM   10  C   UNL     1     -43.110 -47.176  10.814  1.00  0.00     0.240 C 
HETATM   11  O   UNL     1     -43.245 -46.716  11.945  1.00  0.00    -0.271 OA
HETATM   12  H   UNL     1     -42.135 -48.496   9.564  1.00  0.00     0.162 HD
BRANCH  10  13
HETATM   13  C   UNL     1     -44.081 -46.803   9.670  1.00  0.00     0.174 C 
HETATM   14  C   UNL     1     -43.392 -46.041   8.544  1.00  0.00     0.042 C 
BRANCH  13  15
HETATM   15  N   UNL     1     -44.855 -47.963   9.223  1.00  0.00    -0.330 N 
HETATM   16  C   UNL     1     -46.151 -47.887   8.825  1.00  0.00     0.314 C 
HETATM   17  O   UNL     1     -46.844 -46.880   8.856  1.00  0.00    -0.248 OA
HETATM   18  N   UNL     1     -46.613 -49.048   8.309  1.00  0.00    -0.352 N 
HETATM   19  H   UNL     1     -46.294 -49.911   8.734  1.00  0.00     0.160 HD
HETATM   20  H   UNL     1     -47.599 -49.025   8.079  1.00  0.00     0.160 HD
HETATM   21  H   UNL     1     -44.324 -48.703   8.785  1.00  0.00     0.165 HD
ENDBRANCH  13  15
ENDBRANCH  10  13
ENDBRANCH   8   9
ENDBRANCH   1   8
BRANCH   4  22
HETATM   22  N   UNL     1     -42.917 -53.736  13.188  1.00  0.00    -0.362 N 
HETATM   23  C   UNL     1     -44.320 -54.170  13.120  1.00  0.00     0.156 C 
HETATM   24  C   UNL     1     -44.935 -54.262  14.532  1.00  0.00     0.136 C 
HETATM   25  C   UNL     1     -46.334 -54.860  14.465  1.00  0.00     0.041 C 
HETATM   26  O   UNL     1     -44.144 -55.106  15.387  1.00  0.00    -0.378 OA
HETATM   27  C   UNL     1     -42.812 -54.571  15.529  1.00  0.00     0.136 C 
HETATM   28  C   UNL     1     -42.063 -55.502  16.475  1.00  0.00     0.041 C 
HETATM   29  C   UNL     1     -42.101 -54.481  14.161  1.00  0.00     0.156 C 
ENDBRANCH   4  22
TORSDOF 5
ENDMDL
MODEL 3
REMARK VINA RESULT:      -6.9      1.627      2.570
REMARK  5 active torsions:
REMARK  status: ('A' for Active; 'I' for Inactive)
REMARK    1  A    between atoms: C_2  and  N_3 
REMARK    2  A    between atoms: C_2  and  C_7 
REMARK       I    between atoms: N_3  and  C_4 
REMARK       I    between atoms: C_4  and  N_6 
REMARK       I    between atoms: C_7  and  N_9 
REMARK    3  A    between atoms: N_9  and  C_10 
REMARK    4  A    between atoms: C_10  and  C_11 
REMARK    5  A    between atoms: C_14  and  N_18 
ROOT
HETATM    1  C   UNL     1     -40.796 -49.048  11.822  1.00  0.00    -0.025 A 
HETATM    2  C   UNL     1     -41.235 -49.381  13.096  1.00  0.00     0.014 A 
HETATM    3  C   UNL     1     -41.315 -50.723  13.472  1.00  0.00     0.049 A 
HETATM    4  C   UNL     1     -40.932 -51.739  12.593  1.00  0.00     0.103 A 
HETATM    5  N   UNL     1     -40.506 -51.417  11.352  1.00  0.00    -0.352 N 
ATOM      6  HN  UNL     1     -40.237 -52.145  10.691  1.00  0.00     0.166 HD
HETATM    7  C   UNL     1     -40.441 -50.106  10.999  1.00  0.00     0.098 A 
ENDROOT
BRANCH   1   8
HETATM    8  C   UNL     1     -40.705 -47.620  11.373  1.00  0.00     0.162 C 
BRANCH   8   9
HETATM    9  N   UNL     1     -41.705 -47.297  10.386  1.00  0.00    -0.355 N 
HETATM   10  C   UNL     1     -42.986 -46.960  10.757  1.00  0.00     0.240 C 
HETATM   11  O   UNL     1     -43.313 -46.780  11.927  1.00  0.00    -0.271 OA
HETATM   12  H   UNL     1     -41.546 -47.577   9.414  1.00  0.00     0.162 HD
BRANCH  10  13
HETATM   13  C   UNL     1     -44.003 -46.809   9.603  1.00  0.00     0.174 C 
HETATM   14  C   UNL     1     -43.341 -46.419   8.286  1.00  0.00     0.042 C 
BRANCH  13  15
HETATM   15  N   UNL     1     -44.885 -47.975   9.507  1.00  0.00    -0.330 N 
HETATM   16  C   UNL     1     -46.174 -47.902   9.089  1.00  0.00     0.314 C 
HETATM   17  O   UNL     1     -46.774 -46.873   8.813  1.00  0.00    -0.248 OA
HETATM   18  N   UNL     1     -46.746 -49.117   8.931  1.00  0.00    -0.352 N 
HETATM   19  H   UNL     1     -46.500 -49.842   9.595  1.00  0.00     0.160 HD
HETATM   20  H   UNL     1     -47.729 -49.075   8.693  1.00  0.00     0.160 HD
HETATM   21  H   UNL     1     -44.429 -48.855   9.312  1.00  0.00     0.165 HD
ENDBRANCH  13  15
ENDBRANCH  10  13
ENDBRANCH   8   9
ENDBRANCH   1   8
BRANCH   4  22
HETATM   22  N   UNL     1     -41.037 -53.071  12.949  1.00  0.00    -0.362 N 
HETATM   23  C   UNL     1     -42.332 -53.750  13.088  1.00  0.00     0.156 C 
HETATM   24  C   UNL     1     -42.621 -54.085  14.566  1.00  0.00     0.136 C 
HETATM   25  C   UNL     1     -43.887 -54.924  14.686  1.00  0.00     0.041 C 
HETATM   26  O   UNL     1     -41.544 -54.841  15.145  1.00  0.00    -0.378 OA
HETATM   27  C   UNL     1     -40.317 -54.083  15.105  1.00  0.00     0.136 C 
HETATM   28  C   UNL     1     -39.248 -54.941  15.770  1.00  0.00     0.041 C 
HETATM   29  C   UNL     1     -39.927 -53.737  13.652  1.00  0.00     0.156 C 
ENDBRANCH   4  22
TORSDOF 5
ENDMDL
MODEL 4
REMARK VINA RESULT:      -6.8      2.298      7.406
REMARK  5 active torsions:
REMARK  status: ('A' for Active; 'I' for Inactive)
REMARK    1  A    between atoms: C_2  and  N_3 
REMARK    2  A    between atoms: C_2  and  C_7 
REMARK       I    between atoms: N_3  and  C_4 
REMARK       I    between atoms: C_4  and  N_6 
REMARK       I    between atoms: C_7  and  N_9 
REMARK    3  A    between atoms: N_9  and  C_10 
REMARK    4  A    between atoms: C_10  and  C_11 
REMARK    5  A    between atoms: C_14  and  N_18 
ROOT
HETATM    1  C   UNL     1     -42.200 -50.961  13.658  1.00  0.00    -0.025 A 
HETATM    2  C   UNL     1     -42.487 -49.632  13.942  1.00  0.00     0.014 A 
HETATM    3  C   UNL     1     -42.296 -48.658  12.960  1.00  0.00     0.049 A 
HETATM    4  C   UNL     1     -41.846 -49.004  11.683  1.00  0.00     0.103 A 
HETATM    5  N   UNL     1     -41.565 -50.295  11.406  1.00  0.00    -0.352 N 
ATOM      6  HN  UNL     1     -41.221 -50.565  10.485  1.00  0.00     0.166 HD
HETATM    7  C   UNL     1     -41.748 -51.230  12.376  1.00  0.00     0.098 A 
ENDROOT
BRANCH   1   8
HETATM    8  C   UNL     1     -42.379 -52.037  14.686  1.00  0.00     0.162 C 
BRANCH   8   9
HETATM    9  N   UNL     1     -43.767 -52.372  14.884  1.00  0.00    -0.355 N 
HETATM   10  C   UNL     1     -44.343 -53.431  14.222  1.00  0.00     0.240 C 
HETATM   11  O   UNL     1     -43.694 -54.225  13.545  1.00  0.00    -0.271 OA
HETATM   12  H   UNL     1     -44.388 -51.673  15.300  1.00  0.00     0.162 HD
BRANCH  10  13
HETATM   13  C   UNL     1     -45.873 -53.575  14.386  1.00  0.00     0.174 C 
HETATM   14  C   UNL     1     -46.402 -52.840  15.612  1.00  0.00     0.042 C 
BRANCH  13  15
HETATM   15  N   UNL     1     -46.580 -53.254  13.144  1.00  0.00    -0.330 N 
HETATM   16  C   UNL     1     -46.433 -52.076  12.486  1.00  0.00     0.314 C 
HETATM   17  O   UNL     1     -45.765 -51.127  12.870  1.00  0.00    -0.248 OA
HETATM   18  N   UNL     1     -47.059 -52.061  11.288  1.00  0.00    -0.352 N 
HETATM   19  H   UNL     1     -47.949 -52.539  11.216  1.00  0.00     0.160 HD
HETATM   20  H   UNL     1     -47.020 -51.162  10.821  1.00  0.00     0.160 HD
HETATM   21  H   UNL     1     -46.808 -54.041  12.552  1.00  0.00     0.165 HD
ENDBRANCH  13  15
ENDBRANCH  10  13
ENDBRANCH   8   9
ENDBRANCH   1   8
BRANCH   4  22
HETATM   22  N   UNL     1     -41.628 -48.040  10.716  1.00  0.00    -0.362 N 
HETATM   23  C   UNL     1     -40.602 -46.998  10.860  1.00  0.00     0.156 C 
HETATM   24  C   UNL     1     -41.251 -45.612  11.058  1.00  0.00     0.136 C 
HETATM   25  C   UNL     1     -40.189 -44.520  11.049  1.00  0.00     0.041 C 
HETATM   26  O   UNL     1     -42.180 -45.320   9.999  1.00  0.00    -0.378 OA
HETATM   27  C   UNL     1     -43.242 -46.297   9.979  1.00  0.00     0.136 C 
HETATM   28  C   UNL     1     -44.193 -45.888   8.860  1.00  0.00     0.041 C 
HETATM   29  C   UNL     1     -42.685 -47.717   9.743  1.00  0.00     0.156 C 
ENDBRANCH   4  22
TORSDOF 5
ENDMDL
MODEL 5
REMARK VINA RESULT:      -6.7      2.252      8.127
REMARK  5 active torsions:
REMARK  status: ('A' for Active; 'I' for Inactive)
REMARK    1  A    between atoms: C_2  and  N_3 
REMARK    2  A    between atoms: C_2  and  C_7 
REMARK       I    between atoms: N_3  and  C_4 
REMARK       I    between atoms: C_4  and  N_6 
REMARK       I    between atoms: C_7  and  N_9 
REMARK    3  A    between atoms: N_9  and  C_10 
REMARK    4  A    between atoms: C_10  and  C_11 
REMARK    5  A    between atoms: C_14  and  N_18 
ROOT
HETATM    1  C   UNL     1     -41.173 -51.674  12.176  1.00  0.00    -0.025 A 
HETATM    2  C   UNL     1     -40.231 -50.744  11.755  1.00  0.00     0.014 A 
HETATM    3  C   UNL     1     -40.602 -49.408  11.593  1.00  0.00     0.049 A 
HETATM    4  C   UNL     1     -41.902 -48.984  11.876  1.00  0.00     0.103 A 
HETATM    5  N   UNL     1     -42.820 -49.887  12.285  1.00  0.00    -0.352 N 
ATOM      6  HN  UNL     1     -43.778 -49.599  12.481  1.00  0.00     0.166 HD
HETATM    7  C   UNL     1     -42.445 -51.185  12.429  1.00  0.00     0.098 A 
ENDROOT
BRANCH   1   8
HETATM    8  C   UNL     1     -40.821 -53.120  12.351  1.00  0.00     0.162 C 
BRANCH   8   9
HETATM    9  N   UNL     1     -41.907 -53.877  12.924  1.00  0.00    -0.355 N 
HETATM   10  C   UNL     1     -41.990 -54.085  14.280  1.00  0.00     0.240 C 
HETATM   11  O   UNL     1     -41.241 -53.534  15.084  1.00  0.00    -0.271 OA
HETATM   12  H   UNL     1     -42.461 -54.482  12.312  1.00  0.00     0.162 HD
BRANCH  10  13
HETATM   13  C   UNL     1     -43.099 -55.055  14.746  1.00  0.00     0.174 C 
HETATM   14  C   UNL     1     -42.721 -55.809  16.017  1.00  0.00     0.042 C 
BRANCH  13  15
HETATM   15  N   UNL     1     -44.403 -54.391  14.809  1.00  0.00    -0.330 N 
HETATM   16  C   UNL     1     -45.217 -54.243  13.734  1.00  0.00     0.314 C 
HETATM   17  O   UNL     1     -44.945 -54.572  12.587  1.00  0.00    -0.248 OA
HETATM   18  N   UNL     1     -46.431 -53.743  14.057  1.00  0.00    -0.352 N 
HETATM   19  H   UNL     1     -46.470 -53.039  14.785  1.00  0.00     0.160 HD
HETATM   20  H   UNL     1     -47.020 -53.557  13.254  1.00  0.00     0.160 HD
HETATM   21  H   UNL     1     -44.884 -54.453  15.696  1.00  0.00     0.165 HD
ENDBRANCH  13  15
ENDBRANCH  10  13
ENDBRANCH   8   9
ENDBRANCH   1   8
BRANCH   4  22
HETATM   22  N   UNL     1     -42.282 -47.667  11.690  1.00  0.00    -0.362 N 
HETATM   23  C   UNL     1     -43.461 -47.292  10.898  1.00  0.00     0.156 C 
HETATM   24  C   UNL     1     -43.042 -46.595   9.587  1.00  0.00     0.136 C 
HETATM   25  C   UNL     1     -44.267 -46.070   8.847  1.00  0.00     0.041 C 
HETATM   26  O   UNL     1     -42.182 -45.473   9.849  1.00  0.00    -0.378 OA
HETATM   27  C   UNL     1     -40.977 -45.907  10.512  1.00  0.00     0.136 C 
HETATM   28  C   UNL     1     -40.114 -44.667  10.713  1.00  0.00     0.041 C 
HETATM   29  C   UNL     1     -41.300 -46.584  11.862  1.00  0.00     0.156 C 
ENDBRANCH   4  22
TORSDOF 5
ENDMDL
MODEL 6
REMARK VINA RESULT:      -6.7      2.221      3.498
REMARK  5 active torsions:
REMARK  status: ('A' for Active; 'I' for Inactive)
REMARK    1  A    between atoms: C_2  and  N_3 
REMARK    2  A    between atoms: C_2  and  C_7 
REMARK       I    between atoms: N_3  and  C_4 
REMARK       I    between atoms: C_4  and  N_6 
REMARK       I    between atoms: C_7  and  N_9 
REMARK    3  A    between atoms: N_9  and  C_10 
REMARK    4  A    between atoms: C_10  and  C_11 
REMARK    5  A    between atoms: C_14  and  N_18 
ROOT
HETATM    1  C   UNL     1     -39.516 -50.370  12.283  1.00  0.00    -0.025 A 
HETATM    2  C   UNL     1     -39.163 -51.298  13.254  1.00  0.00     0.014 A 
HETATM    3  C   UNL     1     -40.000 -52.386  13.507  1.00  0.00     0.049 A 
HETATM    4  C   UNL     1     -41.177 -52.573  12.777  1.00  0.00     0.103 A 
HETATM    5  N   UNL     1     -41.521 -51.671  11.833  1.00  0.00    -0.352 N 
ATOM      6  HN  UNL     1     -42.384 -51.782  11.301  1.00  0.00     0.166 HD
HETATM    7  C   UNL     1     -40.700 -50.612  11.604  1.00  0.00     0.098 A 
ENDROOT
BRANCH   1   8
HETATM    8  C   UNL     1     -38.653 -49.180  11.987  1.00  0.00     0.162 C 
BRANCH   8   9
HETATM    9  N   UNL     1     -39.360 -48.170  11.239  1.00  0.00    -0.355 N 
HETATM   10  C   UNL     1     -39.864 -47.051  11.859  1.00  0.00     0.240 C 
HETATM   11  O   UNL     1     -39.627 -46.778  13.034  1.00  0.00    -0.271 OA
HETATM   12  H   UNL     1     -39.721 -48.407  10.312  1.00  0.00     0.162 HD
BRANCH  10  13
HETATM   13  C   UNL     1     -40.748 -46.136  10.981  1.00  0.00     0.174 C 
HETATM   14  C   UNL     1     -40.023 -44.871  10.539  1.00  0.00     0.042 C 
BRANCH  13  15
HETATM   15  N   UNL     1     -41.373 -46.882   9.886  1.00  0.00    -0.330 N 
HETATM   16  C   UNL     1     -42.577 -47.499   9.996  1.00  0.00     0.314 C 
HETATM   17  O   UNL     1     -43.247 -47.572  11.017  1.00  0.00    -0.248 OA
HETATM   18  N   UNL     1     -43.027 -47.990   8.819  1.00  0.00    -0.352 N 
HETATM   19  H   UNL     1     -42.343 -48.387   8.184  1.00  0.00     0.160 HD
HETATM   20  H   UNL     1     -43.887 -48.518   8.902  1.00  0.00     0.160 HD
HETATM   21  H   UNL     1     -41.147 -46.565   8.954  1.00  0.00     0.165 HD
ENDBRANCH  13  15
ENDBRANCH  10  13
ENDBRANCH   8   9
ENDBRANCH   1   8
BRANCH   4  22
HETATM   22  N   UNL     1     -42.023 -53.634  13.044  1.00  0.00    -0.362 N 
HETATM   23  C   UNL     1     -43.455 -53.600  12.716  1.00  0.00     0.156 C 
HETATM   24  C   UNL     1     -44.311 -53.541  13.998  1.00  0.00     0.136 C 
HETATM   25  C   UNL     1     -45.791 -53.664  13.658  1.00  0.00     0.041 C 
HETATM   26  O   UNL     1     -43.980 -54.619  14.891  1.00  0.00    -0.378 OA
HETATM   27  C   UNL     1     -42.596 -54.536  15.290  1.00  0.00     0.136 C 
HETATM   28  C   UNL     1     -42.349 -55.685  16.259  1.00  0.00     0.041 C 
HETATM   29  C   UNL     1     -41.660 -54.629  14.066  1.00  0.00     0.156 C 
ENDBRANCH   4  22
TORSDOF 5
ENDMDL
MODEL 7
REMARK VINA RESULT:      -6.5      2.037      2.825
REMARK  5 active torsions:
REMARK  status: ('A' for Active; 'I' for Inactive)
REMARK    1  A    between atoms: C_2  and  N_3 
REMARK    2  A    between atoms: C_2  and  C_7 
REMARK       I    between atoms: N_3  and  C_4 
REMARK       I    between atoms: C_4  and  N_6 
REMARK       I    between atoms: C_7  and  N_9 
REMARK    3  A    between atoms: N_9  and  C_10 
REMARK    4  A    between atoms: C_10  and  C_11 
REMARK    5  A    between atoms: C_14  and  N_18 
ROOT
HETATM    1  C   UNL     1     -39.925 -50.716  12.707  1.00  0.00    -0.025 A 
HETATM    2  C   UNL     1     -40.974 -51.381  12.086  1.00  0.00     0.014 A 
HETATM    3  C   UNL     1     -41.865 -52.134  12.852  1.00  0.00     0.049 A 
HETATM    4  C   UNL     1     -41.736 -52.207  14.241  1.00  0.00     0.103 A 
HETATM    5  N   UNL     1     -40.715 -51.562  14.846  1.00  0.00    -0.352 N 
ATOM      6  HN  UNL     1     -40.595 -51.616  15.857  1.00  0.00     0.166 HD
HETATM    7  C   UNL     1     -39.851 -50.839  14.086  1.00  0.00     0.098 A 
ENDROOT
BRANCH   1   8
HETATM    8  C   UNL     1     -38.938 -49.905  11.922  1.00  0.00     0.162 C 
BRANCH   8   9
HETATM    9  N   UNL     1     -39.568 -48.819  11.215  1.00  0.00    -0.355 N 
HETATM   10  C   UNL     1     -39.786 -47.606  11.825  1.00  0.00     0.240 C 
HETATM   11  O   UNL     1     -39.341 -47.332  12.937  1.00  0.00    -0.271 OA
HETATM   12  H   UNL     1     -40.093 -49.026  10.361  1.00  0.00     0.162 HD
BRANCH  10  13
HETATM   13  C   UNL     1     -40.625 -46.588  11.020  1.00  0.00     0.174 C 
HETATM   14  C   UNL     1     -39.792 -45.419  10.506  1.00  0.00     0.042 C 
BRANCH  13  15
HETATM   15  N   UNL     1     -41.428 -47.249   9.988  1.00  0.00    -0.330 N 
HETATM   16  C   UNL     1     -42.740 -47.556  10.148  1.00  0.00     0.314 C 
HETATM   17  O   UNL     1     -43.389 -47.391  11.172  1.00  0.00    -0.248 OA
HETATM   18  N   UNL     1     -43.315 -48.018   9.015  1.00  0.00    -0.352 N 
HETATM   19  H   UNL     1     -42.756 -48.611   8.412  1.00  0.00     0.160 HD
HETATM   20  H   UNL     1     -44.273 -48.322   9.141  1.00  0.00     0.160 HD
HETATM   21  H   UNL     1     -41.153 -47.067   9.033  1.00  0.00     0.165 HD
ENDBRANCH  13  15
ENDBRANCH  10  13
ENDBRANCH   8   9
ENDBRANCH   1   8
BRANCH   4  22
HETATM   22  N   UNL     1     -42.598 -52.975  15.001  1.00  0.00    -0.362 N 
HETATM   23  C   UNL     1     -42.125 -53.881  16.057  1.00  0.00     0.156 C 
HETATM   24  C   UNL     1     -42.333 -55.355  15.650  1.00  0.00     0.136 C 
HETATM   25  C   UNL     1     -41.987 -56.281  16.809  1.00  0.00     0.041 C 
HETATM   26  O   UNL     1     -43.704 -55.604  15.292  1.00  0.00    -0.378 OA
HETATM   27  C   UNL     1     -44.086 -54.786  14.167  1.00  0.00     0.136 C 
HETATM   28  C   UNL     1     -45.530 -55.144  13.834  1.00  0.00     0.041 C 
HETATM   29  C   UNL     1     -43.947 -53.285  14.499  1.00  0.00     0.156 C 
ENDBRANCH   4  22
TORSDOF 5
ENDMDL
MODEL 8
REMARK VINA RESULT:      -6.4      2.364      7.857
REMARK  5 active torsions:
REMARK  status: ('A' for Active; 'I' for Inactive)
REMARK    1  A    between atoms: C_2  and  N_3 
REMARK    2  A    between atoms: C_2  and  C_7 
REMARK       I    between atoms: N_3  and  C_4 
REMARK       I    between atoms: C_4  and  N_6 
REMARK       I    between atoms: C_7  and  N_9 
REMARK    3  A    between atoms: N_9  and  C_10 
REMARK    4  A    between atoms: C_10  and  C_11 
REMARK    5  A    between atoms: C_14  and  N_18 
ROOT
HETATM    1  C   UNL     1     -40.243 -51.123  13.146  1.00  0.00    -0.025 A 
HETATM    2  C   UNL     1     -40.375 -49.855  13.698  1.00  0.00     0.014 A 
HETATM    3  C   UNL     1     -40.691 -48.772  12.875  1.00  0.00     0.049 A 
HETATM    4  C   UNL     1     -40.906 -48.948  11.506  1.00  0.00     0.103 A 
HETATM    5  N   UNL     1     -40.777 -50.180  10.968  1.00  0.00    -0.352 N 
ATOM      6  HN  UNL     1     -40.914 -50.325   9.968  1.00  0.00     0.166 HD
HETATM    7  C   UNL     1     -40.461 -51.223  11.780  1.00  0.00     0.098 A 
ENDROOT
BRANCH   1   8
HETATM    8  C   UNL     1     -39.894 -52.311  13.990  1.00  0.00     0.162 C 
BRANCH   8   9
HETATM    9  N   UNL     1     -41.066 -52.971  14.509  1.00  0.00    -0.355 N 
HETATM   10  C   UNL     1     -41.626 -54.043  13.856  1.00  0.00     0.240 C 
HETATM   11  O   UNL     1     -41.094 -54.583  12.888  1.00  0.00    -0.271 OA
HETATM   12  H   UNL     1     -41.636 -52.485  15.206  1.00  0.00     0.162 HD
BRANCH  10  13
HETATM   13  C   UNL     1     -42.974 -54.546  14.420  1.00  0.00     0.174 C 
HETATM   14  C   UNL     1     -42.983 -54.612  15.942  1.00  0.00     0.042 C 
BRANCH  13  15
HETATM   15  N   UNL     1     -44.104 -53.812  13.845  1.00  0.00    -0.330 N 
HETATM   16  C   UNL     1     -45.332 -54.361  13.659  1.00  0.00     0.314 C 
HETATM   17  O   UNL     1     -45.628 -55.527  13.874  1.00  0.00    -0.248 OA
HETATM   18  N   UNL     1     -46.257 -53.458  13.263  1.00  0.00    -0.352 N 
HETATM   19  H   UNL     1     -45.959 -52.728  12.626  1.00  0.00     0.160 HD
HETATM   20  H   UNL     1     -47.158 -53.868  13.048  1.00  0.00     0.160 HD
HETATM   21  H   UNL     1     -44.110 -52.815  14.010  1.00  0.00     0.165 HD
ENDBRANCH  13  15
ENDBRANCH  10  13
ENDBRANCH   8   9
ENDBRANCH   1   8
BRANCH   4  22
HETATM   22  N   UNL     1     -41.191 -47.874  10.683  1.00  0.00    -0.362 N 
HETATM   23  C   UNL     1     -40.719 -46.513  10.971  1.00  0.00     0.156 C 
HETATM   24  C   UNL     1     -41.897 -45.594  11.358  1.00  0.00     0.136 C 
HETATM   25  C   UNL     1     -41.423 -44.153  11.503  1.00  0.00     0.041 C 
HETATM   26  O   UNL     1     -42.921 -45.614  10.349  1.00  0.00    -0.378 OA
HETATM   27  C   UNL     1     -43.446 -46.948  10.191  1.00  0.00     0.136 C 
HETATM   28  C   UNL     1     -44.545 -46.866   9.138  1.00  0.00     0.041 C 
HETATM   29  C   UNL     1     -42.338 -47.934   9.762  1.00  0.00     0.156 C 
ENDBRANCH   4  22
TORSDOF 5
ENDMDL
MODEL 9
REMARK VINA RESULT:      -6.2      2.664      3.706
REMARK  5 active torsions:
REMARK  status: ('A' for Active; 'I' for Inactive)
REMARK    1  A    between atoms: C_2  and  N_3 
REMARK    2  A    between atoms: C_2  and  C_7 
REMARK       I    between atoms: N_3  and  C_4 
REMARK       I    between atoms: C_4  and  N_6 
REMARK       I    between atoms: C_7  and  N_9 
REMARK    3  A    between atoms: N_9  and  C_10 
REMARK    4  A    between atoms: C_10  and  C_11 
REMARK    5  A    between atoms: C_14  and  N_18 
ROOT
HETATM    1  C   UNL     1     -42.745 -51.178  12.932  1.00  0.00    -0.025 A 
HETATM    2  C   UNL     1     -43.412 -50.316  13.793  1.00  0.00     0.014 A 
HETATM    3  C   UNL     1     -44.447 -50.803  14.593  1.00  0.00     0.049 A 
HETATM    4  C   UNL     1     -44.806 -52.153  14.563  1.00  0.00     0.103 A 
HETATM    5  N   UNL     1     -44.159 -52.991  13.725  1.00  0.00    -0.352 N 
ATOM      6  HN  UNL     1     -44.417 -53.977  13.677  1.00  0.00     0.166 HD
HETATM    7  C   UNL     1     -43.159 -52.501  12.946  1.00  0.00     0.098 A 
ENDROOT
BRANCH   1   8
HETATM    8  C   UNL     1     -41.635 -50.696  12.047  1.00  0.00     0.162 C 
BRANCH   8   9
HETATM    9  N   UNL     1     -41.977 -49.473  11.365  1.00  0.00    -0.355 N 
HETATM   10  C   UNL     1     -41.067 -48.450  11.243  1.00  0.00     0.240 C 
HETATM   11  O   UNL     1     -39.889 -48.564  11.575  1.00  0.00    -0.271 OA
HETATM   12  H   UNL     1     -42.965 -49.256  11.210  1.00  0.00     0.162 HD
BRANCH  10  13
HETATM   13  C   UNL     1     -41.611 -47.131  10.647  1.00  0.00     0.174 C 
HETATM   14  C   UNL     1     -40.569 -46.019  10.638  1.00  0.00     0.042 C 
BRANCH  13  15
HETATM   15  N   UNL     1     -42.261 -47.354   9.353  1.00  0.00    -0.330 N 
HETATM   16  C   UNL     1     -43.599 -47.537   9.212  1.00  0.00     0.314 C 
HETATM   17  O   UNL     1     -44.406 -47.609  10.128  1.00  0.00    -0.248 OA
HETATM   18  N   UNL     1     -43.993 -47.567   7.919  1.00  0.00    -0.352 N 
HETATM   19  H   UNL     1     -43.376 -48.015   7.251  1.00  0.00     0.160 HD
HETATM   20  H   UNL     1     -44.976 -47.778   7.800  1.00  0.00     0.160 HD
HETATM   21  H   UNL     1     -41.808 -46.929   8.556  1.00  0.00     0.165 HD
ENDBRANCH  13  15
ENDBRANCH  10  13
ENDBRANCH   8   9
ENDBRANCH   1   8
BRANCH   4  22
HETATM   22  N   UNL     1     -45.850 -52.633  15.331  1.00  0.00    -0.362 N 
HETATM   23  C   UNL     1     -47.024 -51.816  15.666  1.00  0.00     0.156 C 
HETATM   24  C   UNL     1     -47.039 -51.466  17.169  1.00  0.00     0.136 C 
HETATM   25  C   UNL     1     -48.334 -50.754  17.537  1.00  0.00     0.041 C 
HETATM   26  O   UNL     1     -46.953 -52.653  17.977  1.00  0.00    -0.378 OA
HETATM   27  C   UNL     1     -45.722 -53.356  17.708  1.00  0.00     0.136 C 
HETATM   28  C   UNL     1     -45.699 -54.569  18.631  1.00  0.00     0.041 C 
HETATM   29  C   UNL     1     -45.639 -53.783  16.227  1.00  0.00     0.156 C 
ENDBRANCH   4  22
TORSDOF 5
ENDMDL
