MODEL 1
REMARK VINA RESULT:      -6.7      0.000      0.000
REMARK  3 active torsions:
REMARK  status: ('A' for Active; 'I' for Inactive)
REMARK    1  A    between atoms: C_8  and  N_9 
REMARK       I    between atoms: N_9  and  C_10 
REMARK       I    between atoms: C_10  and  N_12 
REMARK    2  A    between atoms: N_12  and  C_13 
REMARK    3  A    between atoms: N_16  and  C_19 
ROOT
HETATM    1  N   UNL     1     -44.591 -51.368  12.887  1.00  0.00    -0.308 N 
HETATM    2  C   UNL     1     -43.255 -51.040  12.991  1.00  0.00     0.321 C 
HETATM    3  O   UNL     1     -42.421 -51.618  13.676  1.00  0.00    -0.247 OA
HETATM    4  N   UNL     1     -42.903 -49.979  12.184  1.00  0.00    -0.338 N 
HETATM    5  H   UNL     1     -45.210 -50.660  12.530  1.00  0.00     0.170 HD
HETATM    6  H   UNL     1     -43.629 -49.350  11.881  1.00  0.00     0.164 HD
ENDROOT
BRANCH   4   7
HETATM    7  C   UNL     1     -41.511 -49.516  12.140  1.00  0.00     0.089 C 
HETATM    8  C   UNL     1     -41.159 -48.650  13.357  1.00  0.00     0.055 C 
HETATM    9  C   UNL     1     -41.742 -47.241  13.236  1.00  0.00     0.275 C 
HETATM   10  N   UNL     1     -41.384 -46.554  11.980  1.00  0.00     0.093 N 
HETATM   11  C   UNL     1     -41.834 -47.377  10.844  1.00  0.00     0.275 C 
HETATM   12  C   UNL     1     -41.224 -48.777  10.834  1.00  0.00     0.055 C 
BRANCH  10  13
HETATM   13  C   UNL     1     -39.958 -46.131  11.899  1.00  0.00     0.223 C 
HETATM   14  C   UNL     1     -39.481 -45.377  13.165  1.00  0.00     0.036 C 
HETATM   15  C   UNL     1     -40.219 -44.051  13.362  1.00  0.00     0.002 C 
HETATM   16  C   UNL     1     -40.079 -43.146  12.139  1.00  0.00     0.000 C 
HETATM   17  C   UNL     1     -40.451 -43.862  10.843  1.00  0.00     0.002 C 
HETATM   18  C   UNL     1     -39.685 -45.179  10.706  1.00  0.00     0.036 C 
ENDBRANCH  10  13
ENDBRANCH   4   7
BRANCH   1  19
HETATM   19  C   UNL     1     -45.176 -52.552  13.411  1.00  0.00     0.044 A 
HETATM   20  C   UNL     1     -46.238 -52.486  14.327  1.00  0.00    -0.020 A 
HETATM   21  C   UNL     1     -46.829 -51.212  14.848  1.00  0.00     0.052 C 
HETATM   22  C   UNL     1     -46.777 -53.698  14.766  1.00  0.00     0.096 A 
HETATM   23  N   UNL     1     -46.347 -54.920  14.388  1.00  0.00    -0.375 N 
HETATM   24  C   UNL     1     -45.329 -54.947  13.512  1.00  0.00     0.090 A 
ATOM     25  HN  UNL     1     -46.771 -55.775  14.749  1.00  0.00     0.164 HD
HETATM   26  C   UNL     1     -44.732 -53.812  12.998  1.00  0.00     0.047 A 
ENDBRANCH   1  19
TORSDOF 3
ENDMDL
MODEL 2
REMARK VINA RESULT:      -5.8      1.886      8.416
REMARK  3 active torsions:
REMARK  status: ('A' for Active; 'I' for Inactive)
REMARK    1  A    between atoms: C_8  and  N_9 
REMARK       I    between atoms: N_9  and  C_10 
REMARK       I    between atoms: C_10  and  N_12 
REMARK    2  A    between atoms: N_12  and  C_13 
REMARK    3  A    between atoms: N_16  and  C_19 
ROOT
HETATM    1  N   UNL     1     -40.881 -48.399  10.955  1.00  0.00    -0.308 N 
HETATM    2  C   UNL     1     -40.823 -49.118  12.131  1.00  0.00     0.321 C 
HETATM    3  O   UNL     1     -40.657 -48.657  13.252  1.00  0.00    -0.247 OA
HETATM    4  N   UNL     1     -41.024 -50.469  11.938  1.00  0.00    -0.338 N 
HETATM    5  H   UNL     1     -40.734 -48.908  10.099  1.00  0.00     0.170 HD
HETATM    6  H   UNL     1     -40.856 -50.849  11.021  1.00  0.00     0.164 HD
ENDROOT
BRANCH   4   7
HETATM    7  C   UNL     1     -41.033 -51.384  13.086  1.00  0.00     0.089 C 
HETATM    8  C   UNL     1     -41.351 -52.824  12.666  1.00  0.00     0.055 C 
HETATM    9  C   UNL     1     -42.841 -53.012  12.372  1.00  0.00     0.275 C 
HETATM   10  N   UNL     1     -43.724 -52.577  13.471  1.00  0.00     0.093 N 
HETATM   11  C   UNL     1     -43.451 -51.160  13.767  1.00  0.00     0.275 C 
HETATM   12  C   UNL     1     -42.000 -50.896  14.164  1.00  0.00     0.055 C 
BRANCH  10  13
HETATM   13  C   UNL     1     -43.697 -53.466  14.666  1.00  0.00     0.223 C 
HETATM   14  C   UNL     1     -44.015 -54.942  14.325  1.00  0.00     0.036 C 
HETATM   15  C   UNL     1     -45.440 -55.123  13.799  1.00  0.00     0.002 C 
HETATM   16  C   UNL     1     -46.474 -54.589  14.789  1.00  0.00     0.000 C 
HETATM   17  C   UNL     1     -46.164 -53.161  15.235  1.00  0.00     0.002 C 
HETATM   18  C   UNL     1     -44.728 -53.046  15.745  1.00  0.00     0.036 C 
ENDBRANCH  10  13
ENDBRANCH   4   7
BRANCH   1  19
HETATM   19  C   UNL     1     -40.948 -46.982  10.877  1.00  0.00     0.044 A 
HETATM   20  C   UNL     1     -42.185 -46.324  10.787  1.00  0.00    -0.020 A 
HETATM   21  C   UNL     1     -43.512 -47.018  10.742  1.00  0.00     0.052 C 
HETATM   22  C   UNL     1     -42.163 -44.928  10.748  1.00  0.00     0.096 A 
HETATM   23  N   UNL     1     -41.047 -44.169  10.776  1.00  0.00    -0.375 N 
HETATM   24  C   UNL     1     -39.880 -44.830  10.861  1.00  0.00     0.090 A 
ATOM     25  HN  UNL     1     -41.087 -43.151  10.735  1.00  0.00     0.164 HD
HETATM   26  C   UNL     1     -39.785 -46.208  10.924  1.00  0.00     0.047 A 
ENDBRANCH   1  19
TORSDOF 3
ENDMDL
MODEL 3
REMARK VINA RESULT:      -5.7     15.531     17.786
REMARK  3 active torsions:
REMARK  status: ('A' for Active; 'I' for Inactive)
REMARK    1  A    between atoms: C_8  and  N_9 
REMARK       I    between atoms: N_9  and  C_10 
REMARK       I    between atoms: C_10  and  N_12 
REMARK    2  A    between atoms: N_12  and  C_13 
REMARK    3  A    between atoms: N_16  and  C_19 
ROOT
HETATM    1  N   UNL     1     -50.713 -48.770  -0.128  1.00  0.00    -0.308 N 
HETATM    2  C   UNL     1     -50.436 -50.062   0.271  1.00  0.00     0.321 C 
HETATM    3  O   UNL     1     -49.992 -50.402   1.359  1.00  0.00    -0.247 OA
HETATM    4  N   UNL     1     -50.760 -50.996  -0.692  1.00  0.00    -0.338 N 
HETATM    5  H   UNL     1     -50.796 -48.603  -1.117  1.00  0.00     0.170 HD
HETATM    6  H   UNL     1     -50.827 -50.690  -1.648  1.00  0.00     0.164 HD
ENDROOT
BRANCH   4   7
HETATM    7  C   UNL     1     -50.565 -52.426  -0.424  1.00  0.00     0.089 C 
HETATM    8  C   UNL     1     -49.243 -52.941  -1.008  1.00  0.00     0.055 C 
HETATM    9  C   UNL     1     -49.328 -53.128  -2.524  1.00  0.00     0.275 C 
HETATM   10  N   UNL     1     -50.459 -53.972  -2.957  1.00  0.00     0.093 N 
HETATM   11  C   UNL     1     -51.712 -53.379  -2.458  1.00  0.00     0.275 C 
HETATM   12  C   UNL     1     -51.751 -53.241  -0.938  1.00  0.00     0.055 C 
BRANCH  10  13
HETATM   13  C   UNL     1     -50.300 -55.418  -2.639  1.00  0.00     0.223 C 
HETATM   14  C   UNL     1     -48.930 -55.985  -3.087  1.00  0.00     0.036 C 
HETATM   15  C   UNL     1     -48.757 -55.950  -4.607  1.00  0.00     0.002 C 
HETATM   16  C   UNL     1     -49.883 -56.701  -5.316  1.00  0.00     0.000 C 
HETATM   17  C   UNL     1     -51.264 -56.247  -4.849  1.00  0.00     0.002 C 
HETATM   18  C   UNL     1     -51.373 -56.301  -3.325  1.00  0.00     0.036 C 
ENDBRANCH  10  13
ENDBRANCH   4   7
BRANCH   1  19
HETATM   19  C   UNL     1     -50.708 -47.640   0.733  1.00  0.00     0.044 A 
HETATM   20  C   UNL     1     -51.888 -47.207   1.360  1.00  0.00    -0.020 A 
HETATM   21  C   UNL     1     -53.229 -47.849   1.176  1.00  0.00     0.052 C 
HETATM   22  C   UNL     1     -51.788 -46.108   2.216  1.00  0.00     0.096 A 
HETATM   23  N   UNL     1     -50.651 -45.428   2.475  1.00  0.00    -0.375 N 
HETATM   24  C   UNL     1     -49.542 -45.868   1.859  1.00  0.00     0.090 A 
ATOM     25  HN  UNL     1     -50.637 -44.624   3.103  1.00  0.00     0.164 HD
HETATM   26  C   UNL     1     -49.520 -46.955   1.006  1.00  0.00     0.047 A 
ENDBRANCH   1  19
TORSDOF 3
ENDMDL
MODEL 4
REMARK VINA RESULT:      -5.7      3.244      8.716
REMARK  3 active torsions:
REMARK  status: ('A' for Active; 'I' for Inactive)
REMARK    1  A    between atoms: C_8  and  N_9 
REMARK       I    between atoms: N_9  and  C_10 
REMARK       I    between atoms: C_10  and  N_12 
REMARK    2  A    between atoms: N_12  and  C_13 
REMARK    3  A    between atoms: N_16  and  C_19 
ROOT
HETATM    1  N   UNL     1     -41.424 -45.653  12.632  1.00  0.00    -0.308 N 
HETATM    2  C   UNL     1     -40.989 -46.750  11.917  1.00  0.00     0.321 C 
HETATM    3  O   UNL     1     -40.740 -46.777  10.719  1.00  0.00    -0.247 OA
HETATM    4  N   UNL     1     -40.803 -47.863  12.710  1.00  0.00    -0.338 N 
HETATM    5  H   UNL     1     -41.858 -45.830  13.523  1.00  0.00     0.170 HD
HETATM    6  H   UNL     1     -41.288 -47.906  13.591  1.00  0.00     0.164 HD
ENDROOT
BRANCH   4   7
HETATM    7  C   UNL     1     -40.308 -49.113  12.121  1.00  0.00     0.089 C 
HETATM    8  C   UNL     1     -41.439 -50.124  11.892  1.00  0.00     0.055 C 
HETATM    9  C   UNL     1     -41.875 -50.790  13.198  1.00  0.00     0.275 C 
HETATM   10  N   UNL     1     -40.766 -51.403  13.954  1.00  0.00     0.093 N 
HETATM   11  C   UNL     1     -39.755 -50.368  14.237  1.00  0.00     0.275 C 
HETATM   12  C   UNL     1     -39.193 -49.713  12.977  1.00  0.00     0.055 C 
BRANCH  10  13
HETATM   13  C   UNL     1     -40.214 -52.640  13.335  1.00  0.00     0.223 C 
HETATM   14  C   UNL     1     -41.291 -53.729  13.106  1.00  0.00     0.036 C 
HETATM   15  C   UNL     1     -41.887 -54.241  14.418  1.00  0.00     0.002 C 
HETATM   16  C   UNL     1     -40.804 -54.777  15.353  1.00  0.00     0.000 C 
HETATM   17  C   UNL     1     -39.665 -53.780  15.550  1.00  0.00     0.002 C 
HETATM   18  C   UNL     1     -39.115 -53.303  14.205  1.00  0.00     0.036 C 
ENDBRANCH  10  13
ENDBRANCH   4   7
BRANCH   1  19
HETATM   19  C   UNL     1     -41.469 -44.326  12.129  1.00  0.00     0.044 A 
HETATM   20  C   UNL     1     -40.372 -43.461  12.279  1.00  0.00    -0.020 A 
HETATM   21  C   UNL     1     -39.098 -43.824  12.979  1.00  0.00     0.052 C 
HETATM   22  C   UNL     1     -40.488 -42.184  11.725  1.00  0.00     0.096 A 
HETATM   23  N   UNL     1     -41.573 -41.717  11.073  1.00  0.00    -0.375 N 
HETATM   24  C   UNL     1     -42.604 -42.569  10.948  1.00  0.00     0.090 A 
ATOM     25  HN  UNL     1     -41.607 -40.770  10.696  1.00  0.00     0.164 HD
HETATM   26  C   UNL     1     -42.593 -43.860  11.440  1.00  0.00     0.047 A 
ENDBRANCH   1  19
TORSDOF 3
ENDMDL
MODEL 5
REMARK VINA RESULT:      -5.5     15.695     18.092
REMARK  3 active torsions:
REMARK  status: ('A' for Active; 'I' for Inactive)
REMARK    1  A    between atoms: C_8  and  N_9 
REMARK       I    between atoms: N_9  and  C_10 
REMARK       I    between atoms: C_10  and  N_12 
REMARK    2  A    between atoms: N_12  and  C_13 
REMARK    3  A    between atoms: N_16  and  C_19 
ROOT
HETATM    1  N   UNL     1     -50.882 -49.205  -0.409  1.00  0.00    -0.308 N 
HETATM    2  C   UNL     1     -50.531 -50.482  -0.021  1.00  0.00     0.321 C 
HETATM    3  O   UNL     1     -49.941 -50.788   1.007  1.00  0.00    -0.247 OA
HETATM    4  N   UNL     1     -50.962 -51.445  -0.909  1.00  0.00    -0.338 N 
HETATM    5  H   UNL     1     -51.097 -49.065  -1.382  1.00  0.00     0.170 HD
HETATM    6  H   UNL     1     -51.160 -51.165  -1.856  1.00  0.00     0.164 HD
ENDROOT
BRANCH   4   7
HETATM    7  C   UNL     1     -50.708 -52.865  -0.637  1.00  0.00     0.089 C 
HETATM    8  C   UNL     1     -49.355 -53.320  -1.198  1.00  0.00     0.055 C 
HETATM    9  C   UNL     1     -49.406 -53.512  -2.715  1.00  0.00     0.275 C 
HETATM   10  N   UNL     1     -50.490 -54.406  -3.166  1.00  0.00     0.093 N 
HETATM   11  C   UNL     1     -51.777 -53.869  -2.689  1.00  0.00     0.275 C 
HETATM   12  C   UNL     1     -51.847 -53.733  -1.169  1.00  0.00     0.055 C 
BRANCH  10  13
HETATM   13  C   UNL     1     -50.272 -55.843  -2.843  1.00  0.00     0.223 C 
HETATM   14  C   UNL     1     -48.883 -56.358  -3.297  1.00  0.00     0.036 C 
HETATM   15  C   UNL     1     -48.720 -56.322  -4.818  1.00  0.00     0.002 C 
HETATM   16  C   UNL     1     -49.819 -57.120  -5.518  1.00  0.00     0.000 C 
HETATM   17  C   UNL     1     -51.215 -56.719  -5.045  1.00  0.00     0.002 C 
HETATM   18  C   UNL     1     -51.313 -56.772  -3.520  1.00  0.00     0.036 C 
ENDBRANCH  10  13
ENDBRANCH   4   7
BRANCH   1  19
HETATM   19  C   UNL     1     -50.784 -48.054   0.417  1.00  0.00     0.044 A 
HETATM   20  C   UNL     1     -49.627 -47.258   0.409  1.00  0.00    -0.020 A 
HETATM   21  C   UNL     1     -48.411 -47.540  -0.420  1.00  0.00     0.052 C 
HETATM   22  C   UNL     1     -49.627 -46.125   1.226  1.00  0.00     0.096 A 
HETATM   23  N   UNL     1     -50.645 -45.748   2.028  1.00  0.00    -0.375 N 
HETATM   24  C   UNL     1     -51.736 -46.532   2.013  1.00  0.00     0.090 A 
ATOM     25  HN  UNL     1     -50.588 -44.915   2.614  1.00  0.00     0.164 HD
HETATM   26  C   UNL     1     -51.852 -47.665   1.231  1.00  0.00     0.047 A 
ENDBRANCH   1  19
TORSDOF 3
ENDMDL
MODEL 6
REMARK VINA RESULT:      -5.5      6.494      9.139
REMARK  3 active torsions:
REMARK  status: ('A' for Active; 'I' for Inactive)
REMARK    1  A    between atoms: C_8  and  N_9 
REMARK       I    between atoms: N_9  and  C_10 
REMARK       I    between atoms: C_10  and  N_12 
REMARK    2  A    between atoms: N_12  and  C_13 
REMARK    3  A    between atoms: N_16  and  C_19 
ROOT
HETATM    1  N   UNL     1     -38.360 -54.594  17.008  1.00  0.00    -0.308 N 
HETATM    2  C   UNL     1     -39.377 -55.279  16.376  1.00  0.00     0.321 C 
HETATM    3  O   UNL     1     -39.510 -56.495  16.333  1.00  0.00    -0.247 OA
HETATM    4  N   UNL     1     -40.310 -54.439  15.804  1.00  0.00    -0.338 N 
HETATM    5  H   UNL     1     -38.211 -53.638  16.730  1.00  0.00     0.170 HD
HETATM    6  H   UNL     1     -40.032 -53.496  15.591  1.00  0.00     0.164 HD
ENDROOT
BRANCH   4   7
HETATM    7  C   UNL     1     -41.482 -54.997  15.119  1.00  0.00     0.089 C 
HETATM    8  C   UNL     1     -41.804 -54.236  13.827  1.00  0.00     0.055 C 
HETATM    9  C   UNL     1     -42.479 -52.894  14.113  1.00  0.00     0.275 C 
HETATM   10  N   UNL     1     -43.674 -52.999  14.973  1.00  0.00     0.093 N 
HETATM   11  C   UNL     1     -43.290 -53.643  16.241  1.00  0.00     0.275 C 
HETATM   12  C   UNL     1     -42.691 -55.035  16.054  1.00  0.00     0.055 C 
BRANCH  10  13
HETATM   13  C   UNL     1     -44.853 -53.618  14.307  1.00  0.00     0.223 C 
HETATM   14  C   UNL     1     -45.214 -52.935  12.965  1.00  0.00     0.036 C 
HETATM   15  C   UNL     1     -45.653 -51.482  13.153  1.00  0.00     0.002 C 
HETATM   16  C   UNL     1     -46.832 -51.374  14.120  1.00  0.00     0.000 C 
HETATM   17  C   UNL     1     -46.572 -52.107  15.433  1.00  0.00     0.002 C 
HETATM   18  C   UNL     1     -46.134 -53.550  15.179  1.00  0.00     0.036 C 
ENDBRANCH  10  13
ENDBRANCH   4   7
BRANCH   1  19
HETATM   19  C   UNL     1     -37.404 -55.185  17.876  1.00  0.00     0.044 A 
HETATM   20  C   UNL     1     -37.541 -55.090  19.270  1.00  0.00    -0.020 A 
HETATM   21  C   UNL     1     -38.652 -54.363  19.964  1.00  0.00     0.052 C 
HETATM   22  C   UNL     1     -36.575 -55.729  20.050  1.00  0.00     0.096 A 
HETATM   23  N   UNL     1     -35.518 -56.416  19.567  1.00  0.00    -0.375 N 
HETATM   24  C   UNL     1     -35.416 -56.488  18.229  1.00  0.00     0.090 A 
ATOM     25  HN  UNL     1     -34.835 -56.856  20.184  1.00  0.00     0.164 HD
HETATM   26  C   UNL     1     -36.323 -55.909  17.362  1.00  0.00     0.047 A 
ENDBRANCH   1  19
TORSDOF 3
ENDMDL
MODEL 7
REMARK VINA RESULT:      -5.5      6.575      9.072
REMARK  3 active torsions:
REMARK  status: ('A' for Active; 'I' for Inactive)
REMARK    1  A    between atoms: C_8  and  N_9 
REMARK       I    between atoms: N_9  and  C_10 
REMARK       I    between atoms: C_10  and  N_12 
REMARK    2  A    between atoms: N_12  and  C_13 
REMARK    3  A    between atoms: N_16  and  C_19 
ROOT
HETATM    1  N   UNL     1     -39.096 -56.085  17.985  1.00  0.00    -0.308 N 
HETATM    2  C   UNL     1     -39.338 -55.628  16.706  1.00  0.00     0.321 C 
HETATM    3  O   UNL     1     -38.791 -56.019  15.684  1.00  0.00    -0.247 OA
HETATM    4  N   UNL     1     -40.333 -54.673  16.662  1.00  0.00    -0.338 N 
HETATM    5  H   UNL     1     -39.392 -55.496  18.746  1.00  0.00     0.170 HD
HETATM    6  H   UNL     1     -40.542 -54.164  17.505  1.00  0.00     0.164 HD
ENDROOT
BRANCH   4   7
HETATM    7  C   UNL     1     -40.748 -54.101  15.375  1.00  0.00     0.089 C 
HETATM    8  C   UNL     1     -41.098 -52.613  15.500  1.00  0.00     0.055 C 
HETATM    9  C   UNL     1     -42.466 -52.405  16.152  1.00  0.00     0.275 C 
HETATM   10  N   UNL     1     -43.558 -53.150  15.496  1.00  0.00     0.093 N 
HETATM   11  C   UNL     1     -43.220 -54.584  15.494  1.00  0.00     0.275 C 
HETATM   12  C   UNL     1     -41.909 -54.894  14.776  1.00  0.00     0.055 C 
BRANCH  10  13
HETATM   13  C   UNL     1     -43.949 -52.614  14.163  1.00  0.00     0.223 C 
HETATM   14  C   UNL     1     -44.379 -51.127  14.214  1.00  0.00     0.036 C 
HETATM   15  C   UNL     1     -45.643 -50.917  15.049  1.00  0.00     0.002 C 
HETATM   16  C   UNL     1     -46.801 -51.771  14.534  1.00  0.00     0.000 C 
HETATM   17  C   UNL     1     -46.412 -53.239  14.376  1.00  0.00     0.002 C 
HETATM   18  C   UNL     1     -45.142 -53.381  13.537  1.00  0.00     0.036 C 
ENDBRANCH  10  13
ENDBRANCH   4   7
BRANCH   1  19
HETATM   19  C   UNL     1     -38.307 -57.223  18.301  1.00  0.00     0.044 A 
HETATM   20  C   UNL     1     -36.954 -57.087  18.651  1.00  0.00    -0.020 A 
HETATM   21  C   UNL     1     -36.220 -55.782  18.703  1.00  0.00     0.052 C 
HETATM   22  C   UNL     1     -36.260 -58.254  18.980  1.00  0.00     0.096 A 
HETATM   23  N   UNL     1     -36.787 -59.497  18.973  1.00  0.00    -0.375 N 
HETATM   24  C   UNL     1     -38.083 -59.592  18.633  1.00  0.00     0.090 A 
ATOM     25  HN  UNL     1     -36.231 -60.318  19.212  1.00  0.00     0.164 HD
HETATM   26  C   UNL     1     -38.870 -58.503  18.307  1.00  0.00     0.047 A 
ENDBRANCH   1  19
TORSDOF 3
ENDMDL
MODEL 8
REMARK VINA RESULT:      -5.4      5.595      8.509
REMARK  3 active torsions:
REMARK  status: ('A' for Active; 'I' for Inactive)
REMARK    1  A    between atoms: C_8  and  N_9 
REMARK       I    between atoms: N_9  and  C_10 
REMARK       I    between atoms: C_10  and  N_12 
REMARK    2  A    between atoms: N_12  and  C_13 
REMARK    3  A    between atoms: N_16  and  C_19 
ROOT
HETATM    1  N   UNL     1     -47.387 -49.032  18.635  1.00  0.00    -0.308 N 
HETATM    2  C   UNL     1     -47.641 -50.190  17.928  1.00  0.00     0.321 C 
HETATM    3  O   UNL     1     -48.702 -50.798  17.898  1.00  0.00    -0.247 OA
HETATM    4  N   UNL     1     -46.558 -50.605  17.182  1.00  0.00    -0.338 N 
HETATM    5  H   UNL     1     -46.422 -48.800  18.803  1.00  0.00     0.170 HD
HETATM    6  H   UNL     1     -45.643 -50.283  17.450  1.00  0.00     0.164 HD
ENDROOT
BRANCH   4   7
HETATM    7  C   UNL     1     -46.661 -51.802  16.338  1.00  0.00     0.089 C 
HETATM    8  C   UNL     1     -45.713 -52.913  16.806  1.00  0.00     0.055 C 
HETATM    9  C   UNL     1     -44.265 -52.628  16.406  1.00  0.00     0.275 C 
HETATM   10  N   UNL     1     -44.086 -52.356  14.967  1.00  0.00     0.093 N 
HETATM   11  C   UNL     1     -44.940 -51.216  14.590  1.00  0.00     0.275 C 
HETATM   12  C   UNL     1     -46.423 -51.454  14.869  1.00  0.00     0.055 C 
BRANCH  10  13
HETATM   13  C   UNL     1     -44.247 -53.552  14.094  1.00  0.00     0.223 C 
HETATM   14  C   UNL     1     -43.372 -54.748  14.546  1.00  0.00     0.036 C 
HETATM   15  C   UNL     1     -41.876 -54.446  14.438  1.00  0.00     0.002 C 
HETATM   16  C   UNL     1     -41.490 -54.031  13.019  1.00  0.00     0.000 C 
HETATM   17  C   UNL     1     -42.378 -52.912  12.481  1.00  0.00     0.002 C 
HETATM   18  C   UNL     1     -43.858 -53.271  12.620  1.00  0.00     0.036 C 
ENDBRANCH  10  13
ENDBRANCH   4   7
BRANCH   1  19
HETATM   19  C   UNL     1     -48.376 -48.252  19.290  1.00  0.00     0.044 A 
HETATM   20  C   UNL     1     -48.763 -48.538  20.610  1.00  0.00    -0.020 A 
HETATM   21  C   UNL     1     -48.213 -49.668  21.426  1.00  0.00     0.052 C 
HETATM   22  C   UNL     1     -49.718 -47.701  21.190  1.00  0.00     0.096 A 
HETATM   23  N   UNL     1     -50.303 -46.650  20.577  1.00  0.00    -0.375 N 
HETATM   24  C   UNL     1     -49.912 -46.404  19.316  1.00  0.00     0.090 A 
ATOM     25  HN  UNL     1     -51.004 -46.076  21.046  1.00  0.00     0.164 HD
HETATM   26  C   UNL     1     -48.963 -47.155  18.650  1.00  0.00     0.047 A 
ENDBRANCH   1  19
TORSDOF 3
ENDMDL
MODEL 9
REMARK VINA RESULT:      -5.4      3.871      8.649
REMARK  3 active torsions:
REMARK  status: ('A' for Active; 'I' for Inactive)
REMARK    1  A    between atoms: C_8  and  N_9 
REMARK       I    between atoms: N_9  and  C_10 
REMARK       I    between atoms: C_10  and  N_12 
REMARK    2  A    between atoms: N_12  and  C_13 
REMARK    3  A    between atoms: N_16  and  C_19 
ROOT
HETATM    1  N   UNL     1     -39.051 -49.527  15.727  1.00  0.00    -0.308 N 
HETATM    2  C   UNL     1     -39.616 -50.086  14.599  1.00  0.00     0.321 C 
HETATM    3  O   UNL     1     -39.040 -50.781  13.773  1.00  0.00    -0.247 OA
HETATM    4  N   UNL     1     -40.966 -49.824  14.494  1.00  0.00    -0.338 N 
HETATM    5  H   UNL     1     -39.546 -48.761  16.155  1.00  0.00     0.170 HD
HETATM    6  H   UNL     1     -41.337 -49.031  14.990  1.00  0.00     0.164 HD
ENDROOT
BRANCH   4   7
HETATM    7  C   UNL     1     -41.738 -50.373  13.372  1.00  0.00     0.089 C 
HETATM    8  C   UNL     1     -43.183 -49.858  13.368  1.00  0.00     0.055 C 
HETATM    9  C   UNL     1     -44.034 -50.554  14.431  1.00  0.00     0.275 C 
HETATM   10  N   UNL     1     -44.000 -52.027  14.352  1.00  0.00     0.093 N 
HETATM   11  C   UNL     1     -42.601 -52.476  14.464  1.00  0.00     0.275 C 
HETATM   12  C   UNL     1     -41.695 -51.900  13.378  1.00  0.00     0.055 C 
BRANCH  10  13
HETATM   13  C   UNL     1     -44.731 -52.594  13.184  1.00  0.00     0.223 C 
HETATM   14  C   UNL     1     -46.269 -52.468  13.318  1.00  0.00     0.036 C 
HETATM   15  C   UNL     1     -46.817 -53.282  14.491  1.00  0.00     0.002 C 
HETATM   16  C   UNL     1     -46.429 -54.756  14.379  1.00  0.00     0.000 C 
HETATM   17  C   UNL     1     -44.930 -54.943  14.156  1.00  0.00     0.002 C 
HETATM   18  C   UNL     1     -44.443 -54.103  12.975  1.00  0.00     0.036 C 
ENDBRANCH  10  13
ENDBRANCH   4   7
BRANCH   1  19
HETATM   19  C   UNL     1     -37.752 -49.827  16.214  1.00  0.00     0.044 A 
HETATM   20  C   UNL     1     -36.662 -48.989  15.925  1.00  0.00    -0.020 A 
HETATM   21  C   UNL     1     -36.746 -47.751  15.084  1.00  0.00     0.052 C 
HETATM   22  C   UNL     1     -35.426 -49.339  16.471  1.00  0.00     0.096 A 
HETATM   23  N   UNL     1     -35.198 -50.424  17.241  1.00  0.00    -0.375 N 
HETATM   24  C   UNL     1     -36.261 -51.205  17.498  1.00  0.00     0.090 A 
ATOM     25  HN  UNL     1     -34.270 -50.639  17.607  1.00  0.00     0.164 HD
HETATM   26  C   UNL     1     -37.533 -50.945  17.025  1.00  0.00     0.047 A 
ENDBRANCH   1  19
TORSDOF 3
ENDMDL
