MODEL 1
REMARK VINA RESULT:      -5.6      0.000      0.000
REMARK  4 active torsions:
REMARK  status: ('A' for Active; 'I' for Inactive)
REMARK    1  A    between atoms: C_8  and  C_9 
REMARK    2  A    between atoms: C_9  and  C_10 
REMARK       I    between atoms: C_10  and  N_12 
REMARK    3  A    between atoms: N_12  and  C_13 
REMARK    4  A    between atoms: C_13  and  C_14 
ROOT
HETATM    1  C   UNL     1     -42.645 -49.637  13.112  1.00  0.00     0.222 C 
HETATM    2  O   UNL     1     -41.579 -49.193  13.535  1.00  0.00    -0.273 OA
HETATM    3  N   UNL     1     -43.152 -49.287  11.871  1.00  0.00    -0.360 N 
HETATM    4  H   UNL     1     -44.107 -49.525  11.634  1.00  0.00     0.162 HD
ENDROOT
BRANCH   1   5
HETATM    5  C   UNL     1     -43.491 -50.586  13.940  1.00  0.00     0.146 C 
BRANCH   5   6
HETATM    6  C   UNL     1     -43.900 -51.844  13.248  1.00  0.00     0.006 A 
HETATM    7  C   UNL     1     -43.137 -52.962  12.790  1.00  0.00     0.038 A 
HETATM    8  C   UNL     1     -41.676 -53.216  12.853  1.00  0.00     0.071 C 
HETATM    9  N   UNL     1     -43.923 -53.898  12.245  1.00  0.00    -0.265 N 
HETATM   10  O   UNL     1     -45.211 -53.433  12.363  1.00  0.00    -0.242 OA
ATOM     11  HN  UNL     1     -43.626 -54.779  11.826  1.00  0.00     0.194 HD
HETATM   12  C   UNL     1     -45.201 -52.221  12.969  1.00  0.00     0.081 A 
HETATM   13  C   UNL     1     -46.523 -51.612  13.208  1.00  0.00     0.079 C 
ENDBRANCH   5   6
ENDBRANCH   1   5
BRANCH   3  14
HETATM   14  C   UNL     1     -42.448 -48.276  11.105  1.00  0.00     0.129 C 
BRANCH  14  15
HETATM   15  C   UNL     1     -43.289 -47.088  10.664  1.00  0.00     0.029 C 
HETATM   16  C   UNL     1     -44.318 -47.364   9.586  1.00  0.00     0.034 C 
HETATM   17  C   UNL     1     -44.458 -46.024   8.879  1.00  0.00     0.168 C 
HETATM   18  O   UNL     1     -43.318 -45.227   9.222  1.00  0.00    -0.391 OA
HETATM   19  C   UNL     1     -42.423 -46.037   9.986  1.00  0.00     0.173 C 
ENDBRANCH  14  15
ENDBRANCH   3  14
TORSDOF 4
ENDMDL
MODEL 2
REMARK VINA RESULT:      -5.4      0.923      2.100
REMARK  4 active torsions:
REMARK  status: ('A' for Active; 'I' for Inactive)
REMARK    1  A    between atoms: C_8  and  C_9 
REMARK    2  A    between atoms: C_9  and  C_10 
REMARK       I    between atoms: C_10  and  N_12 
REMARK    3  A    between atoms: N_12  and  C_13 
REMARK    4  A    between atoms: C_13  and  C_14 
ROOT
HETATM    1  C   UNL     1     -42.647 -50.339  12.643  1.00  0.00     0.222 C 
HETATM    2  O   UNL     1     -41.668 -50.789  12.050  1.00  0.00    -0.273 OA
HETATM    3  N   UNL     1     -43.245 -49.143  12.282  1.00  0.00    -0.360 N 
HETATM    4  H   UNL     1     -43.927 -48.717  12.896  1.00  0.00     0.162 HD
ENDROOT
BRANCH   1   5
HETATM    5  C   UNL     1     -43.252 -51.061  13.832  1.00  0.00     0.146 C 
BRANCH   5   6
HETATM    6  C   UNL     1     -44.076 -52.260  13.497  1.00  0.00     0.006 A 
HETATM    7  C   UNL     1     -45.485 -52.419  13.316  1.00  0.00     0.038 A 
HETATM    8  C   UNL     1     -46.583 -51.425  13.418  1.00  0.00     0.071 C 
HETATM    9  N   UNL     1     -45.795 -53.679  12.990  1.00  0.00    -0.265 N 
HETATM   10  O   UNL     1     -44.604 -54.360  12.917  1.00  0.00    -0.242 OA
ATOM     11  HN  UNL     1     -46.728 -54.058  12.828  1.00  0.00     0.194 HD
HETATM   12  C   UNL     1     -43.582 -53.519  13.205  1.00  0.00     0.081 A 
HETATM   13  C   UNL     1     -42.228 -54.099  13.122  1.00  0.00     0.079 C 
ENDBRANCH   5   6
ENDBRANCH   1   5
BRANCH   3  14
HETATM   14  C   UNL     1     -42.616 -48.350  11.242  1.00  0.00     0.129 C 
BRANCH  14  15
HETATM   15  C   UNL     1     -43.436 -47.175  10.731  1.00  0.00     0.029 C 
HETATM   16  C   UNL     1     -44.160 -47.390   9.418  1.00  0.00     0.034 C 
HETATM   17  C   UNL     1     -44.253 -45.989   8.831  1.00  0.00     0.168 C 
HETATM   18  O   UNL     1     -43.298 -45.165   9.511  1.00  0.00    -0.391 OA
HETATM   19  C   UNL     1     -42.534 -46.000  10.384  1.00  0.00     0.173 C 
ENDBRANCH  14  15
ENDBRANCH   3  14
TORSDOF 4
ENDMDL
MODEL 3
REMARK VINA RESULT:      -5.4      1.638      6.807
REMARK  4 active torsions:
REMARK  status: ('A' for Active; 'I' for Inactive)
REMARK    1  A    between atoms: C_8  and  C_9 
REMARK    2  A    between atoms: C_9  and  C_10 
REMARK       I    between atoms: C_10  and  N_12 
REMARK    3  A    between atoms: N_12  and  C_13 
REMARK    4  A    between atoms: C_13  and  C_14 
ROOT
HETATM    1  C   UNL     1     -42.980 -48.733  12.238  1.00  0.00     0.222 C 
HETATM    2  O   UNL     1     -43.102 -47.930  13.160  1.00  0.00    -0.273 OA
HETATM    3  N   UNL     1     -43.448 -50.034  12.324  1.00  0.00    -0.360 N 
HETATM    4  H   UNL     1     -43.174 -50.714  11.626  1.00  0.00     0.162 HD
ENDROOT
BRANCH   1   5
HETATM    5  C   UNL     1     -42.282 -48.354  10.945  1.00  0.00     0.146 C 
BRANCH   5   6
HETATM    6  C   UNL     1     -42.793 -47.117  10.284  1.00  0.00     0.006 A 
HETATM    7  C   UNL     1     -44.061 -46.813   9.699  1.00  0.00     0.038 A 
HETATM    8  C   UNL     1     -45.277 -47.651   9.557  1.00  0.00     0.071 C 
HETATM    9  N   UNL     1     -44.097 -45.555   9.242  1.00  0.00    -0.265 N 
HETATM   10  O   UNL     1     -42.876 -45.002   9.545  1.00  0.00    -0.242 OA
ATOM     11  HN  UNL     1     -44.874 -45.099   8.765  1.00  0.00     0.194 HD
HETATM   12  C   UNL     1     -42.105 -45.922  10.173  1.00  0.00     0.081 A 
HETATM   13  C   UNL     1     -40.772 -45.458  10.604  1.00  0.00     0.079 C 
ENDBRANCH   5   6
ENDBRANCH   1   5
BRANCH   3  14
HETATM   14  C   UNL     1     -43.997 -50.481  13.589  1.00  0.00     0.129 C 
BRANCH  14  15
HETATM   15  C   UNL     1     -45.254 -51.333  13.492  1.00  0.00     0.029 C 
HETATM   16  C   UNL     1     -46.101 -51.415  14.746  1.00  0.00     0.034 C 
HETATM   17  C   UNL     1     -46.782 -52.770  14.626  1.00  0.00     0.168 C 
HETATM   18  O   UNL     1     -46.056 -53.541  13.661  1.00  0.00    -0.391 OA
HETATM   19  C   UNL     1     -44.897 -52.797  13.280  1.00  0.00     0.173 C 
ENDBRANCH  14  15
ENDBRANCH   3  14
TORSDOF 4
ENDMDL
MODEL 4
REMARK VINA RESULT:      -5.3      3.771      5.659
REMARK  4 active torsions:
REMARK  status: ('A' for Active; 'I' for Inactive)
REMARK    1  A    between atoms: C_8  and  C_9 
REMARK    2  A    between atoms: C_9  and  C_10 
REMARK       I    between atoms: C_10  and  N_12 
REMARK    3  A    between atoms: N_12  and  C_13 
REMARK    4  A    between atoms: C_13  and  C_14 
ROOT
HETATM    1  C   UNL     1     -44.202 -51.318  13.299  1.00  0.00     0.222 C 
HETATM    2  O   UNL     1     -43.833 -50.226  13.730  1.00  0.00    -0.273 OA
HETATM    3  N   UNL     1     -43.366 -52.145  12.569  1.00  0.00    -0.360 N 
HETATM    4  H   UNL     1     -43.751 -52.944  12.082  1.00  0.00     0.162 HD
ENDROOT
BRANCH   1   5
HETATM    5  C   UNL     1     -45.616 -51.820  13.524  1.00  0.00     0.146 C 
BRANCH   5   6
HETATM    6  C   UNL     1     -45.804 -52.673  14.735  1.00  0.00     0.006 A 
HETATM    7  C   UNL     1     -46.219 -52.349  16.064  1.00  0.00     0.038 A 
HETATM    8  C   UNL     1     -46.584 -51.042  16.663  1.00  0.00     0.071 C 
HETATM    9  N   UNL     1     -46.282 -53.443  16.834  1.00  0.00    -0.265 N 
HETATM   10  O   UNL     1     -45.946 -54.501  16.025  1.00  0.00    -0.242 OA
ATOM     11  HN  UNL     1     -46.529 -53.482  17.823  1.00  0.00     0.194 HD
HETATM   12  C   UNL     1     -45.675 -54.049  14.777  1.00  0.00     0.081 A 
HETATM   13  C   UNL     1     -45.341 -55.083  13.778  1.00  0.00     0.079 C 
ENDBRANCH   5   6
ENDBRANCH   1   5
BRANCH   3  14
HETATM   14  C   UNL     1     -42.052 -51.646  12.211  1.00  0.00     0.129 C 
BRANCH  14  15
HETATM   15  C   UNL     1     -40.912 -52.643  12.359  1.00  0.00     0.029 C 
HETATM   16  C   UNL     1     -41.234 -53.915  13.117  1.00  0.00     0.034 C 
HETATM   17  C   UNL     1     -39.893 -54.323  13.710  1.00  0.00     0.168 C 
HETATM   18  O   UNL     1     -39.031 -53.179  13.671  1.00  0.00    -0.391 OA
HETATM   19  C   UNL     1     -39.796 -52.061  13.215  1.00  0.00     0.173 C 
ENDBRANCH  14  15
ENDBRANCH   3  14
TORSDOF 4
ENDMDL
MODEL 5
REMARK VINA RESULT:      -5.3      4.214      5.624
REMARK  4 active torsions:
REMARK  status: ('A' for Active; 'I' for Inactive)
REMARK    1  A    between atoms: C_8  and  C_9 
REMARK    2  A    between atoms: C_9  and  C_10 
REMARK       I    between atoms: C_10  and  N_12 
REMARK    3  A    between atoms: N_12  and  C_13 
REMARK    4  A    between atoms: C_13  and  C_14 
ROOT
HETATM    1  C   UNL     1     -44.131 -54.788  14.220  1.00  0.00     0.222 C 
HETATM    2  O   UNL     1     -43.745 -55.488  15.154  1.00  0.00    -0.273 OA
HETATM    3  N   UNL     1     -43.251 -54.142  13.368  1.00  0.00    -0.360 N 
HETATM    4  H   UNL     1     -43.596 -53.437  12.729  1.00  0.00     0.162 HD
ENDROOT
BRANCH   1   5
HETATM    5  C   UNL     1     -45.608 -54.567  13.955  1.00  0.00     0.146 C 
BRANCH   5   6
HETATM    6  C   UNL     1     -46.156 -53.268  14.447  1.00  0.00     0.006 A 
HETATM    7  C   UNL     1     -46.329 -52.756  15.770  1.00  0.00     0.038 A 
HETATM    8  C   UNL     1     -46.022 -53.372  17.085  1.00  0.00     0.071 C 
HETATM    9  N   UNL     1     -46.837 -51.517  15.750  1.00  0.00    -0.265 N 
HETATM   10  O   UNL     1     -46.973 -51.180  14.425  1.00  0.00    -0.242 OA
ATOM     11  HN  UNL     1     -47.074 -50.939  16.556  1.00  0.00     0.194 HD
HETATM   12  C   UNL     1     -46.560 -52.212  13.650  1.00  0.00     0.081 A 
HETATM   13  C   UNL     1     -46.605 -51.980  12.194  1.00  0.00     0.079 C 
ENDBRANCH   5   6
ENDBRANCH   1   5
BRANCH   3  14
HETATM   14  C   UNL     1     -41.833 -54.212  13.667  1.00  0.00     0.129 C 
BRANCH  14  15
HETATM   15  C   UNL     1     -40.940 -53.327  12.810  1.00  0.00     0.029 C 
HETATM   16  C   UNL     1     -39.958 -52.448  13.559  1.00  0.00     0.034 C 
HETATM   17  C   UNL     1     -39.764 -51.261  12.628  1.00  0.00     0.168 C 
HETATM   18  O   UNL     1     -40.849 -51.256  11.692  1.00  0.00    -0.391 OA
HETATM   19  C   UNL     1     -41.767 -52.285  12.070  1.00  0.00     0.173 C 
ENDBRANCH  14  15
ENDBRANCH   3  14
TORSDOF 4
ENDMDL
MODEL 6
REMARK VINA RESULT:      -5.3      3.463      4.876
REMARK  4 active torsions:
REMARK  status: ('A' for Active; 'I' for Inactive)
REMARK    1  A    between atoms: C_8  and  C_9 
REMARK    2  A    between atoms: C_9  and  C_10 
REMARK       I    between atoms: C_10  and  N_12 
REMARK    3  A    between atoms: N_12  and  C_13 
REMARK    4  A    between atoms: C_13  and  C_14 
ROOT
HETATM    1  C   UNL     1     -42.829 -51.756  12.613  1.00  0.00     0.222 C 
HETATM    2  O   UNL     1     -43.196 -51.024  13.531  1.00  0.00    -0.273 OA
HETATM    3  N   UNL     1     -41.753 -51.440  11.801  1.00  0.00    -0.360 N 
HETATM    4  H   UNL     1     -41.593 -51.967  10.952  1.00  0.00     0.162 HD
ENDROOT
BRANCH   1   5
HETATM    5  C   UNL     1     -43.554 -53.050  12.296  1.00  0.00     0.146 C 
BRANCH   5   6
HETATM    6  C   UNL     1     -44.742 -53.342  13.151  1.00  0.00     0.006 A 
HETATM    7  C   UNL     1     -46.084 -52.851  13.105  1.00  0.00     0.038 A 
HETATM    8  C   UNL     1     -46.717 -51.876  12.183  1.00  0.00     0.071 C 
HETATM    9  N   UNL     1     -46.840 -53.410  14.057  1.00  0.00    -0.265 N 
HETATM   10  O   UNL     1     -46.027 -54.297  14.721  1.00  0.00    -0.242 OA
ATOM     11  HN  UNL     1     -47.822 -53.217  14.251  1.00  0.00     0.194 HD
HETATM   12  C   UNL     1     -44.786 -54.267  14.179  1.00  0.00     0.081 A 
HETATM   13  C   UNL     1     -43.807 -55.205  14.761  1.00  0.00     0.079 C 
ENDBRANCH   5   6
ENDBRANCH   1   5
BRANCH   3  14
HETATM   14  C   UNL     1     -41.118 -50.148  11.978  1.00  0.00     0.129 C 
BRANCH  14  15
HETATM   15  C   UNL     1     -39.704 -50.186  12.539  1.00  0.00     0.029 C 
HETATM   16  C   UNL     1     -38.590 -49.898  11.553  1.00  0.00     0.034 C 
HETATM   17  C   UNL     1     -37.406 -50.665  12.123  1.00  0.00     0.168 C 
HETATM   18  O   UNL     1     -37.916 -51.628  13.053  1.00  0.00    -0.391 OA
HETATM   19  C   UNL     1     -39.343 -51.592  12.993  1.00  0.00     0.173 C 
ENDBRANCH  14  15
ENDBRANCH   3  14
TORSDOF 4
ENDMDL
MODEL 7
REMARK VINA RESULT:      -5.2      1.896      2.853
REMARK  4 active torsions:
REMARK  status: ('A' for Active; 'I' for Inactive)
REMARK    1  A    between atoms: C_8  and  C_9 
REMARK    2  A    between atoms: C_9  and  C_10 
REMARK       I    between atoms: C_10  and  N_12 
REMARK    3  A    between atoms: N_12  and  C_13 
REMARK    4  A    between atoms: C_13  and  C_14 
ROOT
HETATM    1  C   UNL     1     -41.377 -49.548  12.650  1.00  0.00     0.222 C 
HETATM    2  O   UNL     1     -40.439 -48.799  12.915  1.00  0.00    -0.273 OA
HETATM    3  N   UNL     1     -42.072 -49.468  11.456  1.00  0.00    -0.360 N 
HETATM    4  H   UNL     1     -42.943 -49.973  11.347  1.00  0.00     0.162 HD
ENDROOT
BRANCH   1   5
HETATM    5  C   UNL     1     -41.850 -50.601  13.635  1.00  0.00     0.146 C 
BRANCH   5   6
HETATM    6  C   UNL     1     -41.449 -52.003  13.310  1.00  0.00     0.006 A 
HETATM    7  C   UNL     1     -42.197 -53.103  12.789  1.00  0.00     0.038 A 
HETATM    8  C   UNL     1     -43.630 -53.197  12.415  1.00  0.00     0.071 C 
HETATM    9  N   UNL     1     -41.423 -54.182  12.621  1.00  0.00    -0.265 N 
HETATM   10  O   UNL     1     -40.155 -53.806  12.992  1.00  0.00    -0.242 OA
ATOM     11  HN  UNL     1     -41.716 -55.100  12.285  1.00  0.00     0.194 HD
HETATM   12  C   UNL     1     -40.165 -52.510  13.390  1.00  0.00     0.081 A 
HETATM   13  C   UNL     1     -38.857 -51.947  13.777  1.00  0.00     0.079 C 
ENDBRANCH   5   6
ENDBRANCH   1   5
BRANCH   3  14
HETATM   14  C   UNL     1     -41.747 -48.387  10.545  1.00  0.00     0.129 C 
BRANCH  14  15
HETATM   15  C   UNL     1     -42.839 -47.346  10.349  1.00  0.00     0.029 C 
HETATM   16  C   UNL     1     -43.672 -47.485   9.091  1.00  0.00     0.034 C 
HETATM   17  C   UNL     1     -44.112 -46.058   8.799  1.00  0.00     0.168 C 
HETATM   18  O   UNL     1     -43.255 -45.176   9.535  1.00  0.00    -0.391 OA
HETATM   19  C   UNL     1     -42.236 -45.963  10.156  1.00  0.00     0.173 C 
ENDBRANCH  14  15
ENDBRANCH   3  14
TORSDOF 4
ENDMDL
MODEL 8
REMARK VINA RESULT:      -5.1      2.125      3.239
REMARK  4 active torsions:
REMARK  status: ('A' for Active; 'I' for Inactive)
REMARK    1  A    between atoms: C_8  and  C_9 
REMARK    2  A    between atoms: C_9  and  C_10 
REMARK       I    between atoms: C_10  and  N_12 
REMARK    3  A    between atoms: N_12  and  C_13 
REMARK    4  A    between atoms: C_13  and  C_14 
ROOT
HETATM    1  C   UNL     1     -42.563 -51.915  12.811  1.00  0.00     0.222 C 
HETATM    2  O   UNL     1     -42.388 -51.731  14.014  1.00  0.00    -0.273 OA
HETATM    3  N   UNL     1     -41.971 -51.117  11.847  1.00  0.00    -0.360 N 
HETATM    4  H   UNL     1     -42.277 -51.182  10.885  1.00  0.00     0.162 HD
ENDROOT
BRANCH   1   5
HETATM    5  C   UNL     1     -43.466 -53.025  12.304  1.00  0.00     0.146 C 
BRANCH   5   6
HETATM    6  C   UNL     1     -44.648 -53.328  13.164  1.00  0.00     0.006 A 
HETATM    7  C   UNL     1     -45.999 -52.863  13.113  1.00  0.00     0.038 A 
HETATM    8  C   UNL     1     -46.650 -51.910  12.180  1.00  0.00     0.071 C 
HETATM    9  N   UNL     1     -46.744 -53.424  14.073  1.00  0.00    -0.265 N 
HETATM   10  O   UNL     1     -45.914 -54.288  14.746  1.00  0.00    -0.242 OA
ATOM     11  HN  UNL     1     -47.729 -53.247  14.265  1.00  0.00     0.194 HD
HETATM   12  C   UNL     1     -44.674 -54.242  14.202  1.00  0.00     0.081 A 
HETATM   13  C   UNL     1     -43.678 -55.155  14.795  1.00  0.00     0.079 C 
ENDBRANCH   5   6
ENDBRANCH   1   5
BRANCH   3  14
HETATM   14  C   UNL     1     -41.214 -49.961  12.287  1.00  0.00     0.129 C 
BRANCH  14  15
HETATM   15  C   UNL     1     -40.992 -48.886  11.233  1.00  0.00     0.029 C 
HETATM   16  C   UNL     1     -40.100 -47.730  11.640  1.00  0.00     0.034 C 
HETATM   17  C   UNL     1     -40.610 -46.574  10.792  1.00  0.00     0.168 C 
HETATM   18  O   UNL     1     -41.915 -46.925  10.314  1.00  0.00    -0.391 OA
HETATM   19  C   UNL     1     -42.293 -48.162  10.921  1.00  0.00     0.173 C 
ENDBRANCH  14  15
ENDBRANCH   3  14
TORSDOF 4
ENDMDL
MODEL 9
REMARK VINA RESULT:      -5.1      2.732      3.926
REMARK  4 active torsions:
REMARK  status: ('A' for Active; 'I' for Inactive)
REMARK    1  A    between atoms: C_8  and  C_9 
REMARK    2  A    between atoms: C_9  and  C_10 
REMARK       I    between atoms: C_10  and  N_12 
REMARK    3  A    between atoms: N_12  and  C_13 
REMARK    4  A    between atoms: C_13  and  C_14 
ROOT
HETATM    1  C   UNL     1     -43.158 -53.545  12.823  1.00  0.00     0.222 C 
HETATM    2  O   UNL     1     -42.332 -54.057  13.577  1.00  0.00    -0.273 OA
HETATM    3  N   UNL     1     -42.800 -52.634  11.844  1.00  0.00    -0.360 N 
HETATM    4  H   UNL     1     -43.516 -52.101  11.367  1.00  0.00     0.162 HD
ENDROOT
BRANCH   1   5
HETATM    5  C   UNL     1     -44.637 -53.865  12.935  1.00  0.00     0.146 C 
BRANCH   5   6
HETATM    6  C   UNL     1     -45.454 -52.852  13.667  1.00  0.00     0.006 A 
HETATM    7  C   UNL     1     -45.446 -52.440  15.035  1.00  0.00     0.038 A 
HETATM    8  C   UNL     1     -44.616 -52.908  16.172  1.00  0.00     0.071 C 
HETATM    9  N   UNL     1     -46.338 -51.466  15.256  1.00  0.00    -0.265 N 
HETATM   10  O   UNL     1     -46.921 -51.198  14.041  1.00  0.00    -0.242 OA
ATOM     11  HN  UNL     1     -46.544 -51.015  16.146  1.00  0.00     0.194 HD
HETATM   12  C   UNL     1     -46.390 -52.009  13.094  1.00  0.00     0.081 A 
HETATM   13  C   UNL     1     -46.888 -51.805  11.720  1.00  0.00     0.079 C 
ENDBRANCH   5   6
ENDBRANCH   1   5
BRANCH   3  14
HETATM   14  C   UNL     1     -41.419 -52.193  11.792  1.00  0.00     0.129 C 
BRANCH  14  15
HETATM   15  C   UNL     1     -41.160 -50.793  12.328  1.00  0.00     0.029 C 
HETATM   16  C   UNL     1     -42.382 -49.919  12.526  1.00  0.00     0.034 C 
HETATM   17  C   UNL     1     -41.840 -48.508  12.351  1.00  0.00     0.168 C 
HETATM   18  O   UNL     1     -40.575 -48.604  11.686  1.00  0.00    -0.391 OA
HETATM   19  C   UNL     1     -40.366 -49.970  11.323  1.00  0.00     0.173 C 
ENDBRANCH  14  15
ENDBRANCH   3  14
TORSDOF 4
ENDMDL
