MODEL 1
REMARK VINA RESULT:      -6.1      0.000      0.000
REMARK  7 active torsions:
REMARK  status: ('A' for Active; 'I' for Inactive)
REMARK       I    between atoms: N_1  and  C_2 
REMARK    1  A    between atoms: C_2  and  C_4 
REMARK    2  A    between atoms: C_4  and  N_5 
REMARK    3  A    between atoms: C_6  and  S_7 
REMARK    4  A    between atoms: S_7  and  C_8 
REMARK    5  A    between atoms: C_8  and  C_9 
REMARK       I    between atoms: C_9  and  N_11 
REMARK    6  A    between atoms: N_11  and  C_12 
REMARK    7  A    between atoms: C_19  and  C_20 
ROOT
HETATM    1  N   UNL     1     -42.723 -52.039  13.336  1.00  0.00    -0.306 N 
HETATM    2  C   UNL     1     -42.925 -50.727  13.006  1.00  0.00     0.163 A 
HETATM    3  N   UNL     1     -44.174 -50.556  12.636  1.00  0.00    -0.278 N 
ATOM      4  HN  UNL     1     -44.607 -49.674  12.362  1.00  0.00     0.189 HD
HETATM    5  N   UNL     1     -44.797 -51.788  12.684  1.00  0.00    -0.286 N 
ATOM      6  HN  UNL     1     -45.769 -51.978  12.441  1.00  0.00     0.188 HD
HETATM    7  C   UNL     1     -43.915 -52.677  13.099  1.00  0.00     0.104 A 
ENDROOT
BRANCH   2   8
HETATM    8  S   UNL     1     -41.737 -49.489  13.212  1.00  0.00    -0.083 SA
BRANCH   8   9
HETATM    9  C   UNL     1     -41.017 -49.370  11.546  1.00  0.00     0.185 C 
BRANCH   9  10
HETATM   10  C   UNL     1     -41.487 -48.119  10.819  1.00  0.00     0.227 C 
HETATM   11  O   UNL     1     -40.914 -47.036  10.927  1.00  0.00    -0.273 OA
HETATM   12  N   UNL     1     -42.589 -48.335  10.017  1.00  0.00    -0.356 N 
HETATM   13  H   UNL     1     -42.966 -49.282   9.967  1.00  0.00     0.162 HD
BRANCH  12  14
HETATM   14  C   UNL     1     -43.169 -47.369   9.145  1.00  0.00     0.084 A 
HETATM   15  C   UNL     1     -44.618 -47.385   8.748  1.00  0.00     0.027 A 
HETATM   16  C   UNL     1     -43.578 -47.855   7.778  1.00  0.00     0.027 A 
ENDBRANCH  12  14
ENDBRANCH   9  10
ENDBRANCH   8   9
ENDBRANCH   2   8
BRANCH   1  17
HETATM   17  C   UNL     1     -41.539 -52.630  13.913  1.00  0.00     0.235 C 
BRANCH  17  18
HETATM   18  C   UNL     1     -40.569 -53.065  12.849  1.00  0.00     0.233 C 
HETATM   19  N   UNL     1     -40.820 -54.274  12.263  1.00  0.00    -0.369 N 
HETATM   20  H   UNL     1     -40.134 -54.610  11.597  1.00  0.00     0.159 HD
HETATM   21  H   UNL     1     -41.455 -54.954  12.664  1.00  0.00     0.159 HD
HETATM   22  O   UNL     1     -39.599 -52.392  12.514  1.00  0.00    -0.272 OA
ENDBRANCH  17  18
ENDBRANCH   1  17
BRANCH   7  23
HETATM   23  C   UNL     1     -44.184 -54.168  13.290  1.00  0.00     0.055 A 
HETATM   24  C   UNL     1     -45.554 -54.603  13.762  1.00  0.00     0.013 A 
HETATM   25  C   UNL     1     -44.391 -54.717  14.686  1.00  0.00     0.013 A 
ENDBRANCH   7  23
TORSDOF 7
ENDMDL
MODEL 2
REMARK VINA RESULT:      -5.9      1.926      2.570
REMARK  7 active torsions:
REMARK  status: ('A' for Active; 'I' for Inactive)
REMARK       I    between atoms: N_1  and  C_2 
REMARK    1  A    between atoms: C_2  and  C_4 
REMARK    2  A    between atoms: C_4  and  N_5 
REMARK    3  A    between atoms: C_6  and  S_7 
REMARK    4  A    between atoms: S_7  and  C_8 
REMARK    5  A    between atoms: C_8  and  C_9 
REMARK       I    between atoms: C_9  and  N_11 
REMARK    6  A    between atoms: N_11  and  C_12 
REMARK    7  A    between atoms: C_19  and  C_20 
ROOT
HETATM    1  N   UNL     1     -41.740 -50.264  12.843  1.00  0.00    -0.306 N 
HETATM    2  C   UNL     1     -42.759 -49.422  12.487  1.00  0.00     0.163 A 
HETATM    3  N   UNL     1     -43.889 -50.092  12.461  1.00  0.00    -0.278 N 
ATOM      4  HN  UNL     1     -44.812 -49.709  12.253  1.00  0.00     0.189 HD
HETATM    5  N   UNL     1     -43.604 -51.409  12.765  1.00  0.00    -0.286 N 
ATOM      6  HN  UNL     1     -44.278 -52.172  12.812  1.00  0.00     0.188 HD
HETATM    7  C   UNL     1     -42.307 -51.506  12.986  1.00  0.00     0.104 A 
ENDROOT
BRANCH   2   8
HETATM    8  S   UNL     1     -42.569 -47.719  12.271  1.00  0.00    -0.083 SA
BRANCH   8   9
HETATM    9  C   UNL     1     -42.076 -47.608  10.524  1.00  0.00     0.185 C 
BRANCH   9  10
HETATM   10  C   UNL     1     -43.176 -46.999   9.669  1.00  0.00     0.227 C 
HETATM   11  O   UNL     1     -43.076 -45.885   9.156  1.00  0.00    -0.273 OA
HETATM   12  N   UNL     1     -44.267 -47.829   9.507  1.00  0.00    -0.356 N 
HETATM   13  H   UNL     1     -44.233 -48.751   9.943  1.00  0.00     0.162 HD
BRANCH  12  14
HETATM   14  C   UNL     1     -45.387 -47.557   8.671  1.00  0.00     0.084 A 
HETATM   15  C   UNL     1     -46.687 -47.009   9.190  1.00  0.00     0.027 A 
HETATM   16  C   UNL     1     -46.584 -48.460   8.832  1.00  0.00     0.027 A 
ENDBRANCH  12  14
ENDBRANCH   9  10
ENDBRANCH   8   9
ENDBRANCH   2   8
BRANCH   1  17
HETATM   17  C   UNL     1     -40.366 -49.917  13.115  1.00  0.00     0.235 C 
BRANCH  17  18
HETATM   18  C   UNL     1     -39.443 -50.457  12.057  1.00  0.00     0.233 C 
HETATM   19  N   UNL     1     -39.606 -49.948  10.799  1.00  0.00    -0.369 N 
HETATM   20  H   UNL     1     -39.040 -50.357  10.064  1.00  0.00     0.159 HD
HETATM   21  H   UNL     1     -40.434 -49.435  10.521  1.00  0.00     0.159 HD
HETATM   22  O   UNL     1     -38.590 -51.308  12.287  1.00  0.00    -0.272 OA
ENDBRANCH  17  18
ENDBRANCH   1  17
BRANCH   7  23
HETATM   23  C   UNL     1     -41.565 -52.790  13.350  1.00  0.00     0.055 A 
HETATM   24  C   UNL     1     -42.373 -54.013  13.725  1.00  0.00     0.013 A 
HETATM   25  C   UNL     1     -41.601 -53.295  14.777  1.00  0.00     0.013 A 
ENDBRANCH   7  23
TORSDOF 7
ENDMDL
MODEL 3
REMARK VINA RESULT:      -5.9      4.319      5.107
REMARK  7 active torsions:
REMARK  status: ('A' for Active; 'I' for Inactive)
REMARK       I    between atoms: N_1  and  C_2 
REMARK    1  A    between atoms: C_2  and  C_4 
REMARK    2  A    between atoms: C_4  and  N_5 
REMARK    3  A    between atoms: C_6  and  S_7 
REMARK    4  A    between atoms: S_7  and  C_8 
REMARK    5  A    between atoms: C_8  and  C_9 
REMARK       I    between atoms: C_9  and  N_11 
REMARK    6  A    between atoms: N_11  and  C_12 
REMARK    7  A    between atoms: C_19  and  C_20 
ROOT
HETATM    1  N   UNL     1     -40.021 -48.488  12.202  1.00  0.00    -0.306 N 
HETATM    2  C   UNL     1     -41.081 -48.556  11.340  1.00  0.00     0.163 A 
HETATM    3  N   UNL     1     -40.848 -49.476  10.431  1.00  0.00    -0.278 N 
ATOM      4  HN  UNL     1     -41.480 -49.756   9.682  1.00  0.00     0.189 HD
HETATM    5  N   UNL     1     -39.592 -49.997  10.675  1.00  0.00    -0.286 N 
ATOM      6  HN  UNL     1     -39.128 -50.722  10.129  1.00  0.00     0.188 HD
HETATM    7  C   UNL     1     -39.097 -49.391  11.738  1.00  0.00     0.104 A 
ENDROOT
BRANCH   2   8
HETATM    8  S   UNL     1     -42.546 -47.664  11.546  1.00  0.00    -0.083 SA
BRANCH   8   9
HETATM    9  C   UNL     1     -42.304 -46.263  10.411  1.00  0.00     0.185 C 
BRANCH   9  10
HETATM   10  C   UNL     1     -43.508 -46.060   9.506  1.00  0.00     0.227 C 
HETATM   11  O   UNL     1     -43.678 -45.033   8.850  1.00  0.00    -0.273 OA
HETATM   12  N   UNL     1     -44.359 -47.146   9.476  1.00  0.00    -0.356 N 
HETATM   13  H   UNL     1     -44.106 -47.966  10.027  1.00  0.00     0.162 HD
BRANCH  12  14
HETATM   14  C   UNL     1     -45.501 -47.269   8.633  1.00  0.00     0.084 A 
HETATM   15  C   UNL     1     -46.902 -46.992   9.102  1.00  0.00     0.027 A 
HETATM   16  C   UNL     1     -46.442 -48.408   8.935  1.00  0.00     0.027 A 
ENDBRANCH  12  14
ENDBRANCH   9  10
ENDBRANCH   8   9
ENDBRANCH   2   8
BRANCH   1  17
HETATM   17  C   UNL     1     -39.917 -47.709  13.413  1.00  0.00     0.235 C 
BRANCH  17  18
HETATM   18  C   UNL     1     -40.326 -48.510  14.618  1.00  0.00     0.233 C 
HETATM   19  N   UNL     1     -39.496 -48.436  15.701  1.00  0.00    -0.369 N 
HETATM   20  H   UNL     1     -39.723 -49.028  16.492  1.00  0.00     0.159 HD
HETATM   21  H   UNL     1     -38.550 -48.079  15.640  1.00  0.00     0.159 HD
HETATM   22  O   UNL     1     -41.340 -49.201  14.647  1.00  0.00    -0.272 OA
ENDBRANCH  17  18
ENDBRANCH   1  17
BRANCH   7  23
HETATM   23  C   UNL     1     -37.725 -49.661  12.351  1.00  0.00     0.055 A 
HETATM   24  C   UNL     1     -37.078 -51.009  12.115  1.00  0.00     0.013 A 
HETATM   25  C   UNL     1     -37.593 -50.671  13.471  1.00  0.00     0.013 A 
ENDBRANCH   7  23
TORSDOF 7
ENDMDL
MODEL 4
REMARK VINA RESULT:      -5.7      2.201      2.846
REMARK  7 active torsions:
REMARK  status: ('A' for Active; 'I' for Inactive)
REMARK       I    between atoms: N_1  and  C_2 
REMARK    1  A    between atoms: C_2  and  C_4 
REMARK    2  A    between atoms: C_4  and  N_5 
REMARK    3  A    between atoms: C_6  and  S_7 
REMARK    4  A    between atoms: S_7  and  C_8 
REMARK    5  A    between atoms: C_8  and  C_9 
REMARK       I    between atoms: C_9  and  N_11 
REMARK    6  A    between atoms: N_11  and  C_12 
REMARK    7  A    between atoms: C_19  and  C_20 
ROOT
HETATM    1  N   UNL     1     -40.326 -50.497  12.686  1.00  0.00    -0.306 N 
HETATM    2  C   UNL     1     -41.140 -49.421  12.459  1.00  0.00     0.163 A 
HETATM    3  N   UNL     1     -42.327 -49.842  12.083  1.00  0.00    -0.278 N 
ATOM      4  HN  UNL     1     -43.135 -49.256  11.875  1.00  0.00     0.189 HD
HETATM    5  N   UNL     1     -42.282 -51.221  12.022  1.00  0.00    -0.286 N 
ATOM      6  HN  UNL     1     -43.051 -51.833  11.749  1.00  0.00     0.188 HD
HETATM    7  C   UNL     1     -41.072 -51.608  12.379  1.00  0.00     0.104 A 
ENDROOT
BRANCH   2   8
HETATM    8  S   UNL     1     -40.685 -47.786  12.783  1.00  0.00    -0.083 SA
BRANCH   8   9
HETATM    9  C   UNL     1     -40.440 -47.119  11.109  1.00  0.00     0.185 C 
BRANCH   9  10
HETATM   10  C   UNL     1     -41.727 -46.541  10.541  1.00  0.00     0.227 C 
HETATM   11  O   UNL     1     -42.231 -45.502  10.967  1.00  0.00    -0.273 OA
HETATM   12  N   UNL     1     -42.244 -47.278   9.495  1.00  0.00    -0.356 N 
HETATM   13  H   UNL     1     -41.727 -48.104   9.193  1.00  0.00     0.162 HD
BRANCH  12  14
HETATM   14  C   UNL     1     -43.374 -46.909   8.713  1.00  0.00     0.084 A 
HETATM   15  C   UNL     1     -44.737 -47.515   8.900  1.00  0.00     0.027 A 
HETATM   16  C   UNL     1     -43.889 -47.942   7.742  1.00  0.00     0.027 A 
ENDBRANCH  12  14
ENDBRANCH   9  10
ENDBRANCH   8   9
ENDBRANCH   2   8
BRANCH   1  17
HETATM   17  C   UNL     1     -38.990 -50.492  13.233  1.00  0.00     0.235 C 
BRANCH  17  18
HETATM   18  C   UNL     1     -37.959 -50.733  12.164  1.00  0.00     0.233 C 
HETATM   19  N   UNL     1     -38.110 -50.017  11.010  1.00  0.00    -0.369 N 
HETATM   20  H   UNL     1     -37.464 -50.225  10.256  1.00  0.00     0.159 HD
HETATM   21  H   UNL     1     -38.972 -49.544  10.770  1.00  0.00     0.159 HD
HETATM   22  O   UNL     1     -37.032 -51.525  12.299  1.00  0.00    -0.272 OA
ENDBRANCH  17  18
ENDBRANCH   1  17
BRANCH   7  23
HETATM   23  C   UNL     1     -40.590 -53.055  12.445  1.00  0.00     0.055 A 
HETATM   24  C   UNL     1     -41.535 -54.111  12.977  1.00  0.00     0.013 A 
HETATM   25  C   UNL     1     -40.357 -53.704  13.793  1.00  0.00     0.013 A 
ENDBRANCH   7  23
TORSDOF 7
ENDMDL
MODEL 5
REMARK VINA RESULT:      -5.7      3.793      6.284
REMARK  7 active torsions:
REMARK  status: ('A' for Active; 'I' for Inactive)
REMARK       I    between atoms: N_1  and  C_2 
REMARK    1  A    between atoms: C_2  and  C_4 
REMARK    2  A    between atoms: C_4  and  N_5 
REMARK    3  A    between atoms: C_6  and  S_7 
REMARK    4  A    between atoms: S_7  and  C_8 
REMARK    5  A    between atoms: C_8  and  C_9 
REMARK       I    between atoms: C_9  and  N_11 
REMARK    6  A    between atoms: N_11  and  C_12 
REMARK    7  A    between atoms: C_19  and  C_20 
ROOT
HETATM    1  N   UNL     1     -40.528 -52.050  13.244  1.00  0.00    -0.306 N 
HETATM    2  C   UNL     1     -41.574 -52.645  12.593  1.00  0.00     0.163 A 
HETATM    3  N   UNL     1     -41.616 -52.219  11.351  1.00  0.00    -0.278 N 
ATOM      4  HN  UNL     1     -42.277 -52.518  10.633  1.00  0.00     0.189 HD
HETATM    5  N   UNL     1     -40.603 -51.294  11.191  1.00  0.00    -0.286 N 
ATOM      6  HN  UNL     1     -40.390 -50.781  10.336  1.00  0.00     0.188 HD
HETATM    7  C   UNL     1     -39.957 -51.192  12.337  1.00  0.00     0.104 A 
ENDROOT
BRANCH   2   8
HETATM    8  S   UNL     1     -42.562 -53.879  13.290  1.00  0.00    -0.083 SA
BRANCH   8   9
HETATM    9  C   UNL     1     -44.156 -53.609  12.455  1.00  0.00     0.185 C 
BRANCH   9  10
HETATM   10  C   UNL     1     -45.329 -53.919  13.372  1.00  0.00     0.227 C 
HETATM   11  O   UNL     1     -45.765 -55.059  13.528  1.00  0.00    -0.273 OA
HETATM   12  N   UNL     1     -45.823 -52.807  14.023  1.00  0.00    -0.356 N 
HETATM   13  H   UNL     1     -45.364 -51.911  13.853  1.00  0.00     0.162 HD
BRANCH  12  14
HETATM   14  C   UNL     1     -46.844 -52.825  15.016  1.00  0.00     0.084 A 
HETATM   15  C   UNL     1     -47.320 -51.590  15.728  1.00  0.00     0.027 A 
HETATM   16  C   UNL     1     -46.410 -52.547  16.433  1.00  0.00     0.027 A 
ENDBRANCH  12  14
ENDBRANCH   9  10
ENDBRANCH   8   9
ENDBRANCH   2   8
BRANCH   1  17
HETATM   17  C   UNL     1     -40.046 -52.327  14.575  1.00  0.00     0.235 C 
BRANCH  17  18
HETATM   18  C   UNL     1     -39.236 -53.594  14.613  1.00  0.00     0.233 C 
HETATM   19  N   UNL     1     -39.254 -54.286  15.791  1.00  0.00    -0.369 N 
HETATM   20  H   UNL     1     -38.655 -55.102  15.852  1.00  0.00     0.159 HD
HETATM   21  H   UNL     1     -39.575 -53.876  16.660  1.00  0.00     0.159 HD
HETATM   22  O   UNL     1     -38.585 -53.999  13.654  1.00  0.00    -0.272 OA
ENDBRANCH  17  18
ENDBRANCH   1  17
BRANCH   7  23
HETATM   23  C   UNL     1     -38.766 -50.274  12.602  1.00  0.00     0.055 A 
HETATM   24  C   UNL     1     -37.862 -49.906  11.445  1.00  0.00     0.013 A 
HETATM   25  C   UNL     1     -37.360 -50.827  12.503  1.00  0.00     0.013 A 
ENDBRANCH   7  23
TORSDOF 7
ENDMDL
MODEL 6
REMARK VINA RESULT:      -5.6      2.933      6.016
REMARK  7 active torsions:
REMARK  status: ('A' for Active; 'I' for Inactive)
REMARK       I    between atoms: N_1  and  C_2 
REMARK    1  A    between atoms: C_2  and  C_4 
REMARK    2  A    between atoms: C_4  and  N_5 
REMARK    3  A    between atoms: C_6  and  S_7 
REMARK    4  A    between atoms: S_7  and  C_8 
REMARK    5  A    between atoms: C_8  and  C_9 
REMARK       I    between atoms: C_9  and  N_11 
REMARK    6  A    between atoms: N_11  and  C_12 
REMARK    7  A    between atoms: C_19  and  C_20 
ROOT
HETATM    1  N   UNL     1     -39.856 -49.845  12.256  1.00  0.00    -0.306 N 
HETATM    2  C   UNL     1     -40.808 -50.826  12.188  1.00  0.00     0.163 A 
HETATM    3  N   UNL     1     -41.817 -50.406  11.459  1.00  0.00    -0.278 N 
ATOM      4  HN  UNL     1     -42.652 -50.942  11.221  1.00  0.00     0.189 HD
HETATM    5  N   UNL     1     -41.544 -49.109  11.073  1.00  0.00    -0.286 N 
ATOM      6  HN  UNL     1     -42.149 -48.513  10.508  1.00  0.00     0.188 HD
HETATM    7  C   UNL     1     -40.366 -48.775  11.563  1.00  0.00     0.104 A 
ENDROOT
BRANCH   2   8
HETATM    8  S   UNL     1     -40.601 -52.412  12.841  1.00  0.00    -0.083 SA
BRANCH   8   9
HETATM    9  C   UNL     1     -41.926 -52.489  14.084  1.00  0.00     0.185 C 
BRANCH   9  10
HETATM   10  C   UNL     1     -43.292 -52.666  13.439  1.00  0.00     0.227 C 
HETATM   11  O   UNL     1     -43.433 -53.104  12.298  1.00  0.00    -0.273 OA
HETATM   12  N   UNL     1     -44.338 -52.318  14.269  1.00  0.00    -0.356 N 
HETATM   13  H   UNL     1     -44.113 -52.003  15.213  1.00  0.00     0.162 HD
BRANCH  12  14
HETATM   14  C   UNL     1     -45.718 -52.487  13.962  1.00  0.00     0.084 A 
HETATM   15  C   UNL     1     -46.477 -51.560  13.053  1.00  0.00     0.027 A 
HETATM   16  C   UNL     1     -46.666 -51.464  14.536  1.00  0.00     0.027 A 
ENDBRANCH  12  14
ENDBRANCH   9  10
ENDBRANCH   8   9
ENDBRANCH   2   8
BRANCH   1  17
HETATM   17  C   UNL     1     -38.541 -49.932  12.843  1.00  0.00     0.235 C 
BRANCH  17  18
HETATM   18  C   UNL     1     -37.582 -50.653  11.936  1.00  0.00     0.233 C 
HETATM   19  N   UNL     1     -37.462 -50.155  10.668  1.00  0.00    -0.369 N 
HETATM   20  H   UNL     1     -36.874 -50.676  10.027  1.00  0.00     0.159 HD
HETATM   21  H   UNL     1     -38.135 -49.512  10.269  1.00  0.00     0.159 HD
HETATM   22  O   UNL     1     -36.937 -51.635  12.291  1.00  0.00    -0.272 OA
ENDBRANCH  17  18
ENDBRANCH   1  17
BRANCH   7  23
HETATM   23  C   UNL     1     -39.682 -47.422  11.380  1.00  0.00     0.055 A 
HETATM   24  C   UNL     1     -39.964 -46.325  12.384  1.00  0.00     0.013 A 
HETATM   25  C   UNL     1     -40.510 -46.212  11.002  1.00  0.00     0.013 A 
ENDBRANCH   7  23
TORSDOF 7
ENDMDL
MODEL 7
REMARK VINA RESULT:      -5.5      1.888      1.999
REMARK  7 active torsions:
REMARK  status: ('A' for Active; 'I' for Inactive)
REMARK       I    between atoms: N_1  and  C_2 
REMARK    1  A    between atoms: C_2  and  C_4 
REMARK    2  A    between atoms: C_4  and  N_5 
REMARK    3  A    between atoms: C_6  and  S_7 
REMARK    4  A    between atoms: S_7  and  C_8 
REMARK    5  A    between atoms: C_8  and  C_9 
REMARK       I    between atoms: C_9  and  N_11 
REMARK    6  A    between atoms: N_11  and  C_12 
REMARK    7  A    between atoms: C_19  and  C_20 
ROOT
HETATM    1  N   UNL     1     -41.527 -53.020  13.508  1.00  0.00    -0.306 N 
HETATM    2  C   UNL     1     -41.247 -52.178  12.466  1.00  0.00     0.163 A 
HETATM    3  N   UNL     1     -42.221 -52.233  11.586  1.00  0.00    -0.278 N 
ATOM      4  HN  UNL     1     -42.287 -51.689  10.726  1.00  0.00     0.189 HD
HETATM    5  N   UNL     1     -43.141 -53.159  12.037  1.00  0.00    -0.286 N 
ATOM      6  HN  UNL     1     -44.002 -53.429  11.561  1.00  0.00     0.188 HD
HETATM    7  C   UNL     1     -42.712 -53.635  13.190  1.00  0.00     0.104 A 
ENDROOT
BRANCH   2   8
HETATM    8  S   UNL     1     -39.891 -51.109  12.432  1.00  0.00    -0.083 SA
BRANCH   8   9
HETATM    9  C   UNL     1     -40.344 -49.960  11.096  1.00  0.00     0.185 C 
BRANCH   9  10
HETATM   10  C   UNL     1     -41.337 -48.911  11.571  1.00  0.00     0.227 C 
HETATM   11  O   UNL     1     -41.253 -48.370  12.672  1.00  0.00    -0.273 OA
HETATM   12  N   UNL     1     -42.307 -48.614  10.635  1.00  0.00    -0.356 N 
HETATM   13  H   UNL     1     -42.264 -49.092   9.735  1.00  0.00     0.162 HD
BRANCH  12  14
HETATM   14  C   UNL     1     -43.293 -47.596  10.773  1.00  0.00     0.084 A 
HETATM   15  C   UNL     1     -44.487 -47.479   9.866  1.00  0.00     0.027 A 
HETATM   16  C   UNL     1     -43.330 -46.542   9.695  1.00  0.00     0.027 A 
ENDBRANCH  12  14
ENDBRANCH   9  10
ENDBRANCH   8   9
ENDBRANCH   2   8
BRANCH   1  17
HETATM   17  C   UNL     1     -40.792 -53.170  14.741  1.00  0.00     0.235 C 
BRANCH  17  18
HETATM   18  C   UNL     1     -40.004 -54.451  14.758  1.00  0.00     0.233 C 
HETATM   19  N   UNL     1     -39.119 -54.627  13.731  1.00  0.00    -0.369 N 
HETATM   20  H   UNL     1     -38.636 -55.518  13.692  1.00  0.00     0.159 HD
HETATM   21  H   UNL     1     -39.150 -54.075  12.883  1.00  0.00     0.159 HD
HETATM   22  O   UNL     1     -40.135 -55.304  15.630  1.00  0.00    -0.272 OA
ENDBRANCH  17  18
ENDBRANCH   1  17
BRANCH   7  23
HETATM   23  C   UNL     1     -43.426 -54.689  14.033  1.00  0.00     0.055 A 
HETATM   24  C   UNL     1     -44.914 -54.885  13.841  1.00  0.00     0.013 A 
HETATM   25  C   UNL     1     -44.414 -54.255  15.094  1.00  0.00     0.013 A 
ENDBRANCH   7  23
TORSDOF 7
ENDMDL
MODEL 8
REMARK VINA RESULT:      -5.4      2.767      3.461
REMARK  7 active torsions:
REMARK  status: ('A' for Active; 'I' for Inactive)
REMARK       I    between atoms: N_1  and  C_2 
REMARK    1  A    between atoms: C_2  and  C_4 
REMARK    2  A    between atoms: C_4  and  N_5 
REMARK    3  A    between atoms: C_6  and  S_7 
REMARK    4  A    between atoms: S_7  and  C_8 
REMARK    5  A    between atoms: C_8  and  C_9 
REMARK       I    between atoms: C_9  and  N_11 
REMARK    6  A    between atoms: N_11  and  C_12 
REMARK    7  A    between atoms: C_19  and  C_20 
ROOT
HETATM    1  N   UNL     1     -42.003 -51.599  13.317  1.00  0.00    -0.306 N 
HETATM    2  C   UNL     1     -40.979 -51.752  12.423  1.00  0.00     0.163 A 
HETATM    3  N   UNL     1     -41.399 -52.450  11.392  1.00  0.00    -0.278 N 
ATOM      4  HN  UNL     1     -40.853 -52.691  10.565  1.00  0.00     0.189 HD
HETATM    5  N   UNL     1     -42.714 -52.799  11.630  1.00  0.00    -0.286 N 
ATOM      6  HN  UNL     1     -43.307 -53.353  11.014  1.00  0.00     0.188 HD
HETATM    7  C   UNL     1     -43.068 -52.290  12.795  1.00  0.00     0.104 A 
ENDROOT
BRANCH   2   8
HETATM    8  S   UNL     1     -39.436 -50.992  12.589  1.00  0.00    -0.083 SA
BRANCH   8   9
HETATM    9  C   UNL     1     -39.507 -49.700  11.311  1.00  0.00     0.185 C 
BRANCH   9  10
HETATM   10  C   UNL     1     -39.499 -48.307  11.921  1.00  0.00     0.227 C 
HETATM   11  O   UNL     1     -39.076 -48.082  13.054  1.00  0.00    -0.273 OA
HETATM   12  N   UNL     1     -39.982 -47.335  11.068  1.00  0.00    -0.356 N 
HETATM   13  H   UNL     1     -40.273 -47.621  10.133  1.00  0.00     0.162 HD
BRANCH  12  14
HETATM   14  C   UNL     1     -39.988 -45.937  11.340  1.00  0.00     0.084 A 
HETATM   15  C   UNL     1     -41.000 -44.990  10.757  1.00  0.00     0.027 A 
HETATM   16  C   UNL     1     -39.611 -45.027  10.198  1.00  0.00     0.027 A 
ENDBRANCH  12  14
ENDBRANCH   9  10
ENDBRANCH   8   9
ENDBRANCH   2   8
BRANCH   1  17
HETATM   17  C   UNL     1     -42.013 -50.797  14.517  1.00  0.00     0.235 C 
BRANCH  17  18
HETATM   18  C   UNL     1     -42.225 -49.342  14.203  1.00  0.00     0.233 C 
HETATM   19  N   UNL     1     -41.514 -48.452  14.958  1.00  0.00    -0.369 N 
HETATM   20  H   UNL     1     -41.703 -47.468  14.805  1.00  0.00     0.159 HD
HETATM   21  H   UNL     1     -41.065 -48.712  15.829  1.00  0.00     0.159 HD
HETATM   22  O   UNL     1     -42.991 -48.953  13.326  1.00  0.00    -0.272 OA
ENDBRANCH  17  18
ENDBRANCH   1  17
BRANCH   7  23
HETATM   23  C   UNL     1     -44.441 -52.440  13.445  1.00  0.00     0.055 A 
HETATM   24  C   UNL     1     -45.633 -52.743  12.562  1.00  0.00     0.013 A 
HETATM   25  C   UNL     1     -45.508 -51.398  13.188  1.00  0.00     0.013 A 
ENDBRANCH   7  23
TORSDOF 7
ENDMDL
MODEL 9
REMARK VINA RESULT:      -5.3      1.944      2.462
REMARK  7 active torsions:
REMARK  status: ('A' for Active; 'I' for Inactive)
REMARK       I    between atoms: N_1  and  C_2 
REMARK    1  A    between atoms: C_2  and  C_4 
REMARK    2  A    between atoms: C_4  and  N_5 
REMARK    3  A    between atoms: C_6  and  S_7 
REMARK    4  A    between atoms: S_7  and  C_8 
REMARK    5  A    between atoms: C_8  and  C_9 
REMARK       I    between atoms: C_9  and  N_11 
REMARK    6  A    between atoms: N_11  and  C_12 
REMARK    7  A    between atoms: C_19  and  C_20 
ROOT
HETATM    1  N   UNL     1     -42.181 -52.529  12.729  1.00  0.00    -0.306 N 
HETATM    2  C   UNL     1     -42.083 -51.167  12.637  1.00  0.00     0.163 A 
HETATM    3  N   UNL     1     -43.285 -50.638  12.695  1.00  0.00    -0.278 N 
ATOM      4  HN  UNL     1     -43.506 -49.642  12.677  1.00  0.00     0.189 HD
HETATM    5  N   UNL     1     -44.195 -51.673  12.786  1.00  0.00    -0.286 N 
ATOM      6  HN  UNL     1     -45.209 -51.576  12.836  1.00  0.00     0.188 HD
HETATM    7  C   UNL     1     -43.524 -52.809  12.798  1.00  0.00     0.104 A 
ENDROOT
BRANCH   2   8
HETATM    8  S   UNL     1     -40.584 -50.311  12.611  1.00  0.00    -0.083 SA
BRANCH   8   9
HETATM    9  C   UNL     1     -40.549 -49.653  10.916  1.00  0.00     0.185 C 
BRANCH   9  10
HETATM   10  C   UNL     1     -41.198 -48.280  10.833  1.00  0.00     0.227 C 
HETATM   11  O   UNL     1     -42.412 -48.114  10.943  1.00  0.00    -0.273 OA
HETATM   12  N   UNL     1     -40.290 -47.256  10.655  1.00  0.00    -0.356 N 
HETATM   13  H   UNL     1     -39.300 -47.497  10.616  1.00  0.00     0.162 HD
BRANCH  12  14
HETATM   14  C   UNL     1     -40.611 -45.869  10.652  1.00  0.00     0.084 A 
HETATM   15  C   UNL     1     -39.665 -44.807  10.166  1.00  0.00     0.027 A 
HETATM   16  C   UNL     1     -39.867 -45.002  11.637  1.00  0.00     0.027 A 
ENDBRANCH  12  14
ENDBRANCH   9  10
ENDBRANCH   8   9
ENDBRANCH   2   8
BRANCH   1  17
HETATM   17  C   UNL     1     -41.105 -53.485  12.835  1.00  0.00     0.235 C 
BRANCH  17  18
HETATM   18  C   UNL     1     -40.507 -53.487  14.215  1.00  0.00     0.233 C 
HETATM   19  N   UNL     1     -39.142 -53.491  14.280  1.00  0.00    -0.369 N 
HETATM   20  H   UNL     1     -38.729 -53.566  15.203  1.00  0.00     0.159 HD
HETATM   21  H   UNL     1     -38.558 -53.726  13.486  1.00  0.00     0.159 HD
HETATM   22  O   UNL     1     -41.187 -53.489  15.237  1.00  0.00    -0.272 OA
ENDBRANCH  17  18
ENDBRANCH   1  17
BRANCH   7  23
HETATM   23  C   UNL     1     -44.143 -54.202  12.882  1.00  0.00     0.055 A 
HETATM   24  C   UNL     1     -45.497 -54.354  13.543  1.00  0.00     0.013 A 
HETATM   25  C   UNL     1     -44.283 -54.877  14.230  1.00  0.00     0.013 A 
ENDBRANCH   7  23
TORSDOF 7
ENDMDL
