MODEL 1
REMARK VINA RESULT:      -6.3      0.000      0.000
REMARK  4 active torsions:
REMARK  status: ('A' for Active; 'I' for Inactive)
REMARK    1  A    between atoms: C_2  and  N_3 
REMARK    2  A    between atoms: C_2  and  C_20 
REMARK       I    between atoms: N_3  and  C_4 
REMARK       I    between atoms: C_4  and  N_6 
REMARK    3  A    between atoms: N_6  and  C_7 
REMARK    4  A    between atoms: C_10  and  N_14 
ROOT
HETATM    1  C   UNL     1     -41.989 -48.283  11.270  1.00  0.00     0.051 A 
HETATM    2  C   UNL     1     -40.750 -47.674  11.121  1.00  0.00     0.035 A 
HETATM    3  C   UNL     1     -40.650 -46.284  11.066  1.00  0.00     0.051 A 
HETATM    4  C   UNL     1     -41.783 -45.483  11.159  1.00  0.00     0.103 A 
HETATM    5  N   UNL     1     -43.002 -46.059  11.287  1.00  0.00    -0.350 N 
ATOM      6  HN  UNL     1     -43.847 -45.489  11.326  1.00  0.00     0.166 HD
HETATM    7  C   UNL     1     -43.074 -47.420  11.362  1.00  0.00     0.119 A 
ENDROOT
BRANCH   1   8
HETATM    8  N   UNL     1     -42.161 -49.688  11.343  1.00  0.00    -0.308 N 
HETATM    9  C   UNL     1     -42.121 -50.423  12.509  1.00  0.00     0.321 C 
HETATM   10  N   UNL     1     -42.414 -51.758  12.331  1.00  0.00    -0.336 N 
HETATM   11  O   UNL     1     -41.865 -49.978  13.622  1.00  0.00    -0.247 OA
HETATM   12  H   UNL     1     -42.418 -52.161  11.404  1.00  0.00     0.164 HD
HETATM   13  H   UNL     1     -42.154 -50.204  10.474  1.00  0.00     0.170 HD
BRANCH  10  14
HETATM   14  C   UNL     1     -42.238 -52.689  13.456  1.00  0.00     0.111 C 
HETATM   15  C   UNL     1     -41.389 -53.879  13.000  1.00  0.00     0.035 C 
BRANCH  14  16
HETATM   16  C   UNL     1     -43.594 -53.097  14.062  1.00  0.00     0.143 C 
HETATM   17  C   UNL     1     -43.748 -54.595  14.333  1.00  0.00     0.036 C 
HETATM   18  C   UNL     1     -45.123 -54.947  13.806  1.00  0.00     0.029 C 
HETATM   19  C   UNL     1     -45.770 -53.608  13.538  1.00  0.00     0.168 C 
HETATM   20  O   UNL     1     -44.692 -52.728  13.205  1.00  0.00    -0.384 OA
ENDBRANCH  14  16
ENDBRANCH  10  14
ENDBRANCH   1   8
BRANCH   4  21
HETATM   21  N   UNL     1     -41.684 -44.110  11.161  1.00  0.00    -0.367 N 
HETATM   22  C   UNL     1     -40.402 -43.421  11.087  1.00  0.00     0.124 C 
HETATM   23  C   UNL     1     -40.339 -42.360  12.185  1.00  0.00     0.020 C 
HETATM   24  C   UNL     1     -41.544 -41.424  12.129  1.00  0.00     0.003 C 
HETATM   25  C   UNL     1     -42.855 -42.211  12.156  1.00  0.00     0.020 C 
HETATM   26  C   UNL     1     -42.887 -43.292  11.076  1.00  0.00     0.124 C 
ENDBRANCH   4  21
TORSDOF 4
ENDMDL
MODEL 2
REMARK VINA RESULT:      -6.3      2.297      8.999
REMARK  4 active torsions:
REMARK  status: ('A' for Active; 'I' for Inactive)
REMARK    1  A    between atoms: C_2  and  N_3 
REMARK    2  A    between atoms: C_2  and  C_20 
REMARK       I    between atoms: N_3  and  C_4 
REMARK       I    between atoms: C_4  and  N_6 
REMARK    3  A    between atoms: N_6  and  C_7 
REMARK    4  A    between atoms: C_10  and  N_14 
ROOT
HETATM    1  C   UNL     1     -40.859 -49.310  12.110  1.00  0.00     0.051 A 
HETATM    2  C   UNL     1     -41.907 -49.378  13.018  1.00  0.00     0.035 A 
HETATM    3  C   UNL     1     -42.581 -50.582  13.228  1.00  0.00     0.051 A 
HETATM    4  C   UNL     1     -42.218 -51.732  12.535  1.00  0.00     0.103 A 
HETATM    5  N   UNL     1     -41.210 -51.681  11.632  1.00  0.00    -0.350 N 
ATOM      6  HN  UNL     1     -40.951 -52.507  11.093  1.00  0.00     0.166 HD
HETATM    7  C   UNL     1     -40.550 -50.499  11.460  1.00  0.00     0.119 A 
ENDROOT
BRANCH   1   8
HETATM    8  N   UNL     1     -40.127 -48.123  11.855  1.00  0.00    -0.308 N 
HETATM    9  C   UNL     1     -40.571 -47.085  11.063  1.00  0.00     0.321 C 
HETATM   10  N   UNL     1     -39.721 -45.999  11.049  1.00  0.00    -0.336 N 
HETATM   11  O   UNL     1     -41.613 -47.075  10.420  1.00  0.00    -0.247 OA
HETATM   12  H   UNL     1     -38.778 -46.084  11.401  1.00  0.00     0.164 HD
HETATM   13  H   UNL     1     -39.158 -48.102  12.142  1.00  0.00     0.170 HD
BRANCH  10  14
HETATM   14  C   UNL     1     -39.980 -44.896  10.112  1.00  0.00     0.111 C 
HETATM   15  C   UNL     1     -38.759 -44.699   9.210  1.00  0.00     0.035 C 
BRANCH  14  16
HETATM   16  C   UNL     1     -40.405 -43.616  10.859  1.00  0.00     0.143 C 
HETATM   17  C   UNL     1     -39.972 -43.557  12.325  1.00  0.00     0.036 C 
HETATM   18  C   UNL     1     -41.198 -43.081  13.075  1.00  0.00     0.029 C 
HETATM   19  C   UNL     1     -42.145 -42.630  11.987  1.00  0.00     0.168 C 
HETATM   20  O   UNL     1     -41.836 -43.450  10.855  1.00  0.00    -0.384 OA
ENDBRANCH  14  16
ENDBRANCH  10  14
ENDBRANCH   1   8
BRANCH   4  21
HETATM   21  N   UNL     1     -42.843 -52.934  12.780  1.00  0.00    -0.367 N 
HETATM   22  C   UNL     1     -44.200 -53.214  12.328  1.00  0.00     0.124 C 
HETATM   23  C   UNL     1     -45.011 -53.774  13.496  1.00  0.00     0.020 C 
HETATM   24  C   UNL     1     -44.317 -54.974  14.135  1.00  0.00     0.003 C 
HETATM   25  C   UNL     1     -42.882 -54.631  14.537  1.00  0.00     0.020 C 
HETATM   26  C   UNL     1     -42.095 -54.038  13.368  1.00  0.00     0.124 C 
ENDBRANCH   4  21
TORSDOF 4
ENDMDL
MODEL 3
REMARK VINA RESULT:      -6.1      2.969      9.226
REMARK  4 active torsions:
REMARK  status: ('A' for Active; 'I' for Inactive)
REMARK    1  A    between atoms: C_2  and  N_3 
REMARK    2  A    between atoms: C_2  and  C_20 
REMARK       I    between atoms: N_3  and  C_4 
REMARK       I    between atoms: C_4  and  N_6 
REMARK    3  A    between atoms: N_6  and  C_7 
REMARK    4  A    between atoms: C_10  and  N_14 
ROOT
HETATM    1  C   UNL     1     -40.448 -51.710  12.202  1.00  0.00     0.051 A 
HETATM    2  C   UNL     1     -41.162 -52.899  12.155  1.00  0.00     0.035 A 
HETATM    3  C   UNL     1     -40.972 -53.875  13.134  1.00  0.00     0.051 A 
HETATM    4  C   UNL     1     -40.068 -53.677  14.172  1.00  0.00     0.103 A 
HETATM    5  N   UNL     1     -39.349 -52.530  14.225  1.00  0.00    -0.350 N 
ATOM      6  HN  UNL     1     -38.659 -52.381  14.961  1.00  0.00     0.166 HD
HETATM    7  C   UNL     1     -39.568 -51.580  13.270  1.00  0.00     0.119 A 
ENDROOT
BRANCH   1   8
HETATM    8  N   UNL     1     -40.599 -50.674  11.246  1.00  0.00    -0.308 N 
HETATM    9  C   UNL     1     -41.440 -49.590  11.393  1.00  0.00     0.321 C 
HETATM   10  N   UNL     1     -41.337 -48.670  10.372  1.00  0.00    -0.336 N 
HETATM   11  O   UNL     1     -42.215 -49.412  12.324  1.00  0.00    -0.247 OA
HETATM   12  H   UNL     1     -40.863 -48.912   9.512  1.00  0.00     0.164 HD
HETATM   13  H   UNL     1     -40.187 -50.818  10.335  1.00  0.00     0.170 HD
BRANCH  10  14
HETATM   14  C   UNL     1     -42.296 -47.557  10.307  1.00  0.00     0.111 C 
HETATM   15  C   UNL     1     -43.073 -47.633   8.991  1.00  0.00     0.035 C 
BRANCH  14  16
HETATM   16  C   UNL     1     -41.596 -46.202  10.530  1.00  0.00     0.143 C 
HETATM   17  C   UNL     1     -40.098 -46.297  10.826  1.00  0.00     0.036 C 
HETATM   18  C   UNL     1     -39.872 -45.359  11.993  1.00  0.00     0.029 C 
HETATM   19  C   UNL     1     -41.165 -44.585  12.102  1.00  0.00     0.168 C 
HETATM   20  O   UNL     1     -42.179 -45.479  11.631  1.00  0.00    -0.384 OA
ENDBRANCH  14  16
ENDBRANCH  10  14
ENDBRANCH   1   8
BRANCH   4  21
HETATM   21  N   UNL     1     -39.917 -54.613  15.171  1.00  0.00    -0.367 N 
HETATM   22  C   UNL     1     -41.040 -55.091  15.966  1.00  0.00     0.124 C 
HETATM   23  C   UNL     1     -40.671 -55.017  17.448  1.00  0.00     0.020 C 
HETATM   24  C   UNL     1     -39.361 -55.744  17.736  1.00  0.00     0.003 C 
HETATM   25  C   UNL     1     -38.238 -55.234  16.832  1.00  0.00     0.020 C 
HETATM   26  C   UNL     1     -38.635 -55.280  15.357  1.00  0.00     0.124 C 
ENDBRANCH   4  21
TORSDOF 4
ENDMDL
MODEL 4
REMARK VINA RESULT:      -6.0      2.382      3.807
REMARK  4 active torsions:
REMARK  status: ('A' for Active; 'I' for Inactive)
REMARK    1  A    between atoms: C_2  and  N_3 
REMARK    2  A    between atoms: C_2  and  C_20 
REMARK       I    between atoms: N_3  and  C_4 
REMARK       I    between atoms: C_4  and  N_6 
REMARK    3  A    between atoms: N_6  and  C_7 
REMARK    4  A    between atoms: C_10  and  N_14 
ROOT
HETATM    1  C   UNL     1     -40.932 -45.375  10.808  1.00  0.00     0.051 A 
HETATM    2  C   UNL     1     -40.085 -44.284  10.950  1.00  0.00     0.035 A 
HETATM    3  C   UNL     1     -40.606 -43.016  11.210  1.00  0.00     0.051 A 
HETATM    4  C   UNL     1     -41.977 -42.820  11.334  1.00  0.00     0.103 A 
HETATM    5  N   UNL     1     -42.821 -43.868  11.182  1.00  0.00    -0.350 N 
ATOM      6  HN  UNL     1     -43.831 -43.737  11.238  1.00  0.00     0.166 HD
HETATM    7  C   UNL     1     -42.288 -45.103  10.950  1.00  0.00     0.119 A 
ENDROOT
BRANCH   1   8
HETATM    8  N   UNL     1     -40.470 -46.690  10.552  1.00  0.00    -0.308 N 
HETATM    9  C   UNL     1     -40.225 -47.637  11.524  1.00  0.00     0.321 C 
HETATM   10  N   UNL     1     -39.877 -48.870  11.018  1.00  0.00    -0.336 N 
HETATM   11  O   UNL     1     -40.303 -47.452  12.733  1.00  0.00    -0.247 OA
HETATM   12  H   UNL     1     -39.611 -48.968  10.048  1.00  0.00     0.164 HD
HETATM   13  H   UNL     1     -40.151 -46.897   9.616  1.00  0.00     0.170 HD
BRANCH  10  14
HETATM   14  C   UNL     1     -39.418 -49.922  11.938  1.00  0.00     0.111 C 
HETATM   15  C   UNL     1     -37.936 -50.209  11.682  1.00  0.00     0.035 C 
BRANCH  14  16
HETATM   16  C   UNL     1     -40.311 -51.175  11.846  1.00  0.00     0.143 C 
HETATM   17  C   UNL     1     -41.726 -50.994  12.399  1.00  0.00     0.036 C 
HETATM   18  C   UNL     1     -41.975 -52.227  13.242  1.00  0.00     0.029 C 
HETATM   19  C   UNL     1     -40.831 -53.151  12.893  1.00  0.00     0.168 C 
HETATM   20  O   UNL     1     -39.738 -52.288  12.559  1.00  0.00    -0.384 OA
ENDBRANCH  14  16
ENDBRANCH  10  14
ENDBRANCH   1   8
BRANCH   4  21
HETATM   21  N   UNL     1     -42.491 -41.581  11.646  1.00  0.00    -0.367 N 
HETATM   22  C   UNL     1     -43.813 -41.413  12.236  1.00  0.00     0.124 C 
HETATM   23  C   UNL     1     -44.580 -40.349  11.450  1.00  0.00     0.020 C 
HETATM   24  C   UNL     1     -43.786 -39.051  11.342  1.00  0.00     0.003 C 
HETATM   25  C   UNL     1     -42.392 -39.304  10.767  1.00  0.00     0.020 C 
HETATM   26  C   UNL     1     -41.651 -40.395  11.541  1.00  0.00     0.124 C 
ENDBRANCH   4  21
TORSDOF 4
ENDMDL
MODEL 5
REMARK VINA RESULT:      -5.9      1.869      2.681
REMARK  4 active torsions:
REMARK  status: ('A' for Active; 'I' for Inactive)
REMARK    1  A    between atoms: C_2  and  N_3 
REMARK    2  A    between atoms: C_2  and  C_20 
REMARK       I    between atoms: N_3  and  C_4 
REMARK       I    between atoms: C_4  and  N_6 
REMARK    3  A    between atoms: N_6  and  C_7 
REMARK    4  A    between atoms: C_10  and  N_14 
ROOT
HETATM    1  C   UNL     1     -40.646 -49.249  11.054  1.00  0.00     0.051 A 
HETATM    2  C   UNL     1     -39.771 -48.451  11.778  1.00  0.00     0.035 A 
HETATM    3  C   UNL     1     -39.904 -47.062  11.761  1.00  0.00     0.051 A 
HETATM    4  C   UNL     1     -40.912 -46.452  11.023  1.00  0.00     0.103 A 
HETATM    5  N   UNL     1     -41.765 -47.212  10.296  1.00  0.00    -0.350 N 
ATOM      6  HN  UNL     1     -42.491 -46.781   9.724  1.00  0.00     0.166 HD
HETATM    7  C   UNL     1     -41.630 -48.570  10.346  1.00  0.00     0.119 A 
ENDROOT
BRANCH   1   8
HETATM    8  N   UNL     1     -40.573 -50.664  11.034  1.00  0.00    -0.308 N 
HETATM    9  C   UNL     1     -41.097 -51.489  12.007  1.00  0.00     0.321 C 
HETATM   10  N   UNL     1     -40.984 -52.831  11.714  1.00  0.00    -0.336 N 
HETATM   11  O   UNL     1     -41.630 -51.115  13.045  1.00  0.00    -0.247 OA
HETATM   12  H   UNL     1     -40.369 -53.142  10.974  1.00  0.00     0.164 HD
HETATM   13  H   UNL     1     -39.964 -51.089  10.349  1.00  0.00     0.170 HD
BRANCH  10  14
HETATM   14  C   UNL     1     -41.340 -53.824  12.738  1.00  0.00     0.111 C 
HETATM   15  C   UNL     1     -42.843 -53.743  13.021  1.00  0.00     0.035 C 
BRANCH  14  16
HETATM   16  C   UNL     1     -40.469 -53.665  13.999  1.00  0.00     0.143 C 
HETATM   17  C   UNL     1     -39.190 -54.505  14.002  1.00  0.00     0.036 C 
HETATM   18  C   UNL     1     -39.135 -55.126  15.382  1.00  0.00     0.029 C 
HETATM   19  C   UNL     1     -40.202 -54.392  16.160  1.00  0.00     0.168 C 
HETATM   20  O   UNL     1     -41.191 -54.027  15.192  1.00  0.00    -0.384 OA
ENDBRANCH  14  16
ENDBRANCH  10  14
ENDBRANCH   1   8
BRANCH   4  21
HETATM   21  N   UNL     1     -41.083 -45.086  11.047  1.00  0.00    -0.367 N 
HETATM   22  C   UNL     1     -39.963 -44.159  10.957  1.00  0.00     0.124 C 
HETATM   23  C   UNL     1     -40.080 -43.120  12.073  1.00  0.00     0.020 C 
HETATM   24  C   UNL     1     -41.445 -42.437  12.060  1.00  0.00     0.003 C 
HETATM   25  C   UNL     1     -42.576 -43.466  12.103  1.00  0.00     0.020 C 
HETATM   26  C   UNL     1     -42.425 -44.518  11.004  1.00  0.00     0.124 C 
ENDBRANCH   4  21
TORSDOF 4
ENDMDL
MODEL 6
REMARK VINA RESULT:      -5.6      2.382      3.542
REMARK  4 active torsions:
REMARK  status: ('A' for Active; 'I' for Inactive)
REMARK    1  A    between atoms: C_2  and  N_3 
REMARK    2  A    between atoms: C_2  and  C_20 
REMARK       I    between atoms: N_3  and  C_4 
REMARK       I    between atoms: C_4  and  N_6 
REMARK    3  A    between atoms: N_6  and  C_7 
REMARK    4  A    between atoms: C_10  and  N_14 
ROOT
HETATM    1  C   UNL     1     -42.760 -50.001  12.645  1.00  0.00     0.051 A 
HETATM    2  C   UNL     1     -43.193 -48.688  12.770  1.00  0.00     0.035 A 
HETATM    3  C   UNL     1     -42.274 -47.638  12.761  1.00  0.00     0.051 A 
HETATM    4  C   UNL     1     -40.912 -47.885  12.628  1.00  0.00     0.103 A 
HETATM    5  N   UNL     1     -40.468 -49.160  12.523  1.00  0.00    -0.350 N 
ATOM      6  HN  UNL     1     -39.471 -49.362  12.455  1.00  0.00     0.166 HD
HETATM    7  C   UNL     1     -41.388 -50.170  12.510  1.00  0.00     0.119 A 
ENDROOT
BRANCH   1   8
HETATM    8  N   UNL     1     -43.640 -51.112  12.638  1.00  0.00    -0.308 N 
HETATM    9  C   UNL     1     -43.907 -51.907  13.733  1.00  0.00     0.321 C 
HETATM   10  N   UNL     1     -44.870 -52.864  13.499  1.00  0.00    -0.336 N 
HETATM   11  O   UNL     1     -43.373 -51.807  14.831  1.00  0.00    -0.247 OA
HETATM   12  H   UNL     1     -45.155 -53.082  12.554  1.00  0.00     0.164 HD
HETATM   13  H   UNL     1     -43.970 -51.439  11.741  1.00  0.00     0.170 HD
BRANCH  10  14
HETATM   14  C   UNL     1     -45.128 -53.890  14.521  1.00  0.00     0.111 C 
HETATM   15  C   UNL     1     -45.366 -55.239  13.836  1.00  0.00     0.035 C 
BRANCH  14  16
HETATM   16  C   UNL     1     -46.273 -53.468  15.462  1.00  0.00     0.143 C 
HETATM   17  C   UNL     1     -47.070 -52.249  14.994  1.00  0.00     0.036 C 
HETATM   18  C   UNL     1     -47.212 -51.381  16.226  1.00  0.00     0.029 C 
HETATM   19  C   UNL     1     -46.754 -52.269  17.359  1.00  0.00     0.168 C 
HETATM   20  O   UNL     1     -45.786 -53.150  16.780  1.00  0.00    -0.384 OA
ENDBRANCH  14  16
ENDBRANCH  10  14
ENDBRANCH   1   8
BRANCH   4  21
HETATM   21  N   UNL     1     -40.006 -46.850  12.562  1.00  0.00    -0.367 N 
HETATM   22  C   UNL     1     -38.992 -46.636  13.586  1.00  0.00     0.124 C 
HETATM   23  C   UNL     1     -39.018 -45.169  14.017  1.00  0.00     0.020 C 
HETATM   24  C   UNL     1     -38.889 -44.231  12.820  1.00  0.00     0.003 C 
HETATM   25  C   UNL     1     -39.946 -44.543  11.760  1.00  0.00     0.020 C 
HETATM   26  C   UNL     1     -39.932 -46.020  11.366  1.00  0.00     0.124 C 
ENDBRANCH   4  21
TORSDOF 4
ENDMDL
MODEL 7
REMARK VINA RESULT:      -5.4      2.043      2.559
REMARK  4 active torsions:
REMARK  status: ('A' for Active; 'I' for Inactive)
REMARK    1  A    between atoms: C_2  and  N_3 
REMARK    2  A    between atoms: C_2  and  C_20 
REMARK       I    between atoms: N_3  and  C_4 
REMARK       I    between atoms: C_4  and  N_6 
REMARK    3  A    between atoms: N_6  and  C_7 
REMARK    4  A    between atoms: C_10  and  N_14 
ROOT
HETATM    1  C   UNL     1     -39.977 -49.692  12.940  1.00  0.00     0.051 A 
HETATM    2  C   UNL     1     -39.671 -48.809  13.967  1.00  0.00     0.035 A 
HETATM    3  C   UNL     1     -39.523 -47.447  13.705  1.00  0.00     0.051 A 
HETATM    4  C   UNL     1     -39.680 -46.948  12.416  1.00  0.00     0.103 A 
HETATM    5  N   UNL     1     -39.961 -47.796  11.398  1.00  0.00    -0.350 N 
ATOM      6  HN  UNL     1     -40.049 -47.452  10.442  1.00  0.00     0.166 HD
HETATM    7  C   UNL     1     -40.124 -49.121  11.682  1.00  0.00     0.119 A 
ENDROOT
BRANCH   1   8
HETATM    8  N   UNL     1     -40.149 -51.085  13.139  1.00  0.00    -0.308 N 
HETATM    9  C   UNL     1     -41.166 -51.650  13.880  1.00  0.00     0.321 C 
HETATM   10  N   UNL     1     -41.176 -53.028  13.843  1.00  0.00    -0.336 N 
HETATM   11  O   UNL     1     -42.008 -51.033  14.520  1.00  0.00    -0.247 OA
HETATM   12  H   UNL     1     -40.373 -53.535  13.496  1.00  0.00     0.164 HD
HETATM   13  H   UNL     1     -39.395 -51.693  12.853  1.00  0.00     0.170 HD
BRANCH  10  14
HETATM   14  C   UNL     1     -42.093 -53.765  14.725  1.00  0.00     0.111 C 
HETATM   15  C   UNL     1     -41.287 -54.713  15.616  1.00  0.00     0.035 C 
BRANCH  14  16
HETATM   16  C   UNL     1     -43.198 -54.472  13.917  1.00  0.00     0.143 C 
HETATM   17  C   UNL     1     -43.889 -53.594  12.872  1.00  0.00     0.036 C 
HETATM   18  C   UNL     1     -45.367 -53.870  13.046  1.00  0.00     0.029 C 
HETATM   19  C   UNL     1     -45.414 -55.074  13.958  1.00  0.00     0.168 C 
HETATM   20  O   UNL     1     -44.242 -54.974  14.774  1.00  0.00    -0.384 OA
ENDBRANCH  14  16
ENDBRANCH  10  14
ENDBRANCH   1   8
BRANCH   4  21
HETATM   21  N   UNL     1     -39.590 -45.597  12.162  1.00  0.00    -0.367 N 
HETATM   22  C   UNL     1     -38.991 -44.664  13.107  1.00  0.00     0.124 C 
HETATM   23  C   UNL     1     -39.935 -43.478  13.307  1.00  0.00     0.020 C 
HETATM   24  C   UNL     1     -40.322 -42.840  11.976  1.00  0.00     0.003 C 
HETATM   25  C   UNL     1     -40.894 -43.881  11.011  1.00  0.00     0.020 C 
HETATM   26  C   UNL     1     -39.955 -45.077  10.850  1.00  0.00     0.124 C 
ENDBRANCH   4  21
TORSDOF 4
ENDMDL
MODEL 8
REMARK VINA RESULT:      -5.4     16.281     18.925
REMARK  4 active torsions:
REMARK  status: ('A' for Active; 'I' for Inactive)
REMARK    1  A    between atoms: C_2  and  N_3 
REMARK    2  A    between atoms: C_2  and  C_20 
REMARK       I    between atoms: N_3  and  C_4 
REMARK       I    between atoms: C_4  and  N_6 
REMARK    3  A    between atoms: N_6  and  C_7 
REMARK    4  A    between atoms: C_10  and  N_14 
ROOT
HETATM    1  C   UNL     1     -51.054 -53.303  -1.022  1.00  0.00     0.051 A 
HETATM    2  C   UNL     1     -50.285 -53.903  -2.010  1.00  0.00     0.035 A 
HETATM    3  C   UNL     1     -50.837 -54.881  -2.836  1.00  0.00     0.051 A 
HETATM    4  C   UNL     1     -52.163 -55.273  -2.689  1.00  0.00     0.103 A 
HETATM    5  N   UNL     1     -52.925 -54.712  -1.719  1.00  0.00    -0.350 N 
ATOM      6  HN  UNL     1     -53.890 -55.009  -1.577  1.00  0.00     0.166 HD
HETATM    7  C   UNL     1     -52.370 -53.741  -0.938  1.00  0.00     0.119 A 
ENDROOT
BRANCH   1   8
HETATM    8  N   UNL     1     -50.558 -52.297  -0.154  1.00  0.00    -0.308 N 
HETATM    9  C   UNL     1     -50.829 -50.951  -0.281  1.00  0.00     0.321 C 
HETATM   10  N   UNL     1     -50.313 -50.185   0.742  1.00  0.00    -0.336 N 
HETATM   11  O   UNL     1     -51.469 -50.436  -1.190  1.00  0.00    -0.247 OA
HETATM   12  H   UNL     1     -49.619 -50.570   1.368  1.00  0.00     0.164 HD
HETATM   13  H   UNL     1     -49.837 -52.562   0.502  1.00  0.00     0.170 HD
BRANCH  10  14
HETATM   14  C   UNL     1     -50.374 -48.719   0.644  1.00  0.00     0.111 C 
HETATM   15  C   UNL     1     -48.963 -48.142   0.786  1.00  0.00     0.035 C 
BRANCH  14  16
HETATM   16  C   UNL     1     -51.381 -48.132   1.653  1.00  0.00     0.143 C 
HETATM   17  C   UNL     1     -52.832 -48.108   1.168  1.00  0.00     0.036 C 
HETATM   18  C   UNL     1     -53.341 -46.729   1.532  1.00  0.00     0.029 C 
HETATM   19  C   UNL     1     -52.271 -46.168   2.440  1.00  0.00     0.168 C 
HETATM   20  O   UNL     1     -51.050 -46.775   2.004  1.00  0.00    -0.384 OA
ENDBRANCH  14  16
ENDBRANCH  10  14
ENDBRANCH   1   8
BRANCH   4  21
HETATM   21  N   UNL     1     -52.729 -56.198  -3.538  1.00  0.00    -0.367 N 
HETATM   22  C   UNL     1     -53.983 -56.874  -3.232  1.00  0.00     0.124 C 
HETATM   23  C   UNL     1     -53.805 -58.378  -3.439  1.00  0.00     0.020 C 
HETATM   24  C   UNL     1     -53.264 -58.690  -4.832  1.00  0.00     0.003 C 
HETATM   25  C   UNL     1     -51.979 -57.910  -5.111  1.00  0.00     0.020 C 
HETATM   26  C   UNL     1     -52.162 -56.412  -4.864  1.00  0.00     0.124 C 
ENDBRANCH   4  21
TORSDOF 4
ENDMDL
MODEL 9
REMARK VINA RESULT:      -5.3      2.940      4.647
REMARK  4 active torsions:
REMARK  status: ('A' for Active; 'I' for Inactive)
REMARK    1  A    between atoms: C_2  and  N_3 
REMARK    2  A    between atoms: C_2  and  C_20 
REMARK       I    between atoms: N_3  and  C_4 
REMARK       I    between atoms: C_4  and  N_6 
REMARK    3  A    between atoms: N_6  and  C_7 
REMARK    4  A    between atoms: C_10  and  N_14 
ROOT
HETATM    1  C   UNL     1     -41.173 -45.351  10.671  1.00  0.00     0.051 A 
HETATM    2  C   UNL     1     -42.391 -44.828  11.084  1.00  0.00     0.035 A 
HETATM    3  C   UNL     1     -42.497 -43.482  11.436  1.00  0.00     0.051 A 
HETATM    4  C   UNL     1     -41.390 -42.642  11.381  1.00  0.00     0.103 A 
HETATM    5  N   UNL     1     -40.189 -43.138  10.998  1.00  0.00    -0.350 N 
ATOM      6  HN  UNL     1     -39.361 -42.544  10.981  1.00  0.00     0.166 HD
HETATM    7  C   UNL     1     -40.115 -44.452  10.635  1.00  0.00     0.119 A 
ENDROOT
BRANCH   1   8
HETATM    8  N   UNL     1     -40.998 -46.706  10.291  1.00  0.00    -0.308 N 
HETATM    9  C   UNL     1     -40.845 -47.753  11.175  1.00  0.00     0.321 C 
HETATM   10  N   UNL     1     -40.790 -48.987  10.564  1.00  0.00    -0.336 N 
HETATM   11  O   UNL     1     -40.769 -47.651  12.393  1.00  0.00    -0.247 OA
HETATM   12  H   UNL     1     -40.643 -49.058   9.566  1.00  0.00     0.164 HD
HETATM   13  H   UNL     1     -40.816 -46.896   9.315  1.00  0.00     0.170 HD
BRANCH  10  14
HETATM   14  C   UNL     1     -40.453 -50.173  11.366  1.00  0.00     0.111 C 
HETATM   15  C   UNL     1     -41.690 -50.622  12.150  1.00  0.00     0.035 C 
BRANCH  14  16
HETATM   16  C   UNL     1     -39.222 -49.915  12.257  1.00  0.00     0.143 C 
HETATM   17  C   UNL     1     -37.880 -50.253  11.605  1.00  0.00     0.036 C 
HETATM   18  C   UNL     1     -37.114 -51.017  12.664  1.00  0.00     0.029 C 
HETATM   19  C   UNL     1     -37.928 -50.822  13.922  1.00  0.00     0.168 C 
HETATM   20  O   UNL     1     -39.281 -50.679  13.477  1.00  0.00    -0.384 OA
ENDBRANCH  14  16
ENDBRANCH  10  14
ENDBRANCH   1   8
BRANCH   4  21
HETATM   21  N   UNL     1     -41.501 -41.301  11.674  1.00  0.00    -0.367 N 
HETATM   22  C   UNL     1     -42.541 -40.460  11.095  1.00  0.00     0.124 C 
HETATM   23  C   UNL     1     -41.902 -39.190  10.532  1.00  0.00     0.020 C 
HETATM   24  C   UNL     1     -41.051 -38.479  11.581  1.00  0.00     0.003 C 
HETATM   25  C   UNL     1     -40.017 -39.430  12.188  1.00  0.00     0.020 C 
HETATM   26  C   UNL     1     -40.667 -40.710  12.713  1.00  0.00     0.124 C 
ENDBRANCH   4  21
TORSDOF 4
ENDMDL
