MODEL 1
REMARK VINA RESULT:      -4.9      0.000      0.000
REMARK  2 active torsions:
REMARK  status: ('A' for Active; 'I' for Inactive)
REMARK    1  A    between atoms: C_6  and  N_7 
REMARK    2  A    between atoms: C_13  and  C_14 
ROOT
HETATM    1  N   UNL     3     -42.505 -51.305  12.863  1.00  0.00    -0.331 N 
HETATM    2  C   UNL     3     -42.346 -52.516  12.296  1.00  0.00     0.201 A 
HETATM    3  N   UNL     3     -41.421 -52.472  11.322  1.00  0.00    -0.295 N 
ATOM      4  HN  UNL     3     -41.114 -53.252  10.741  1.00  0.00     0.187 HD
HETATM    5  N   UNL     3     -40.984 -51.223  11.258  1.00  0.00    -0.288 N 
ATOM      6  HN  UNL     3     -40.271 -50.867  10.621  1.00  0.00     0.188 HD
HETATM    7  C   UNL     3     -41.649 -50.505  12.184  1.00  0.00     0.104 A 
ENDROOT
BRANCH   7   8
HETATM    8  C   UNL     3     -41.443 -49.014  12.406  1.00  0.00     0.083 C 
HETATM    9  C   UNL     3     -42.776 -48.250  12.548  1.00  0.00     0.016 C 
HETATM   10  C   UNL     3     -43.527 -48.165  11.211  1.00  0.00     0.031 C 
HETATM   11  C   UNL     3     -42.602 -47.576  10.137  1.00  0.00     0.269 C 
HETATM   12  N   UNL     3     -41.378 -48.385  10.009  1.00  0.00     0.084 N 
HETATM   13  C   UNL     3     -40.619 -48.384  11.269  1.00  0.00     0.281 C 
HETATM   14  H   UNL     3     -40.778 -47.958   9.266  1.00  0.00     0.315 HD
ENDBRANCH   7   8
BRANCH   1  15
HETATM   15  C   UNL     3     -43.426 -51.001  13.965  1.00  0.00     0.126 C 
HETATM   16  C   UNL     3     -44.875 -51.168  13.516  1.00  0.00     0.027 C 
ENDBRANCH   1  15
TORSDOF 2
ENDMDL
MODEL 2
REMARK VINA RESULT:      -4.9      2.694      3.501
REMARK  2 active torsions:
REMARK  status: ('A' for Active; 'I' for Inactive)
REMARK    1  A    between atoms: C_6  and  N_7 
REMARK    2  A    between atoms: C_13  and  C_14 
ROOT
HETATM    1  N   UNL     3     -39.778 -48.575  12.048  1.00  0.00    -0.331 N 
HETATM    2  C   UNL     3     -39.461 -49.741  11.455  1.00  0.00     0.201 A 
HETATM    3  N   UNL     3     -40.304 -50.011  10.445  1.00  0.00    -0.295 N 
ATOM      4  HN  UNL     3     -40.280 -50.829   9.836  1.00  0.00     0.187 HD
HETATM    5  N   UNL     3     -41.175 -49.014  10.389  1.00  0.00    -0.288 N 
ATOM      6  HN  UNL     3     -41.941 -48.922   9.722  1.00  0.00     0.188 HD
HETATM    7  C   UNL     3     -40.868 -48.143  11.370  1.00  0.00     0.104 A 
ENDROOT
BRANCH   7   8
HETATM    8  C   UNL     3     -41.654 -46.871  11.647  1.00  0.00     0.083 C 
HETATM    9  C   UNL     3     -43.159 -47.142  11.855  1.00  0.00     0.016 C 
HETATM   10  C   UNL     3     -43.851 -47.540  10.542  1.00  0.00     0.031 C 
HETATM   11  C   UNL     3     -43.568 -46.478   9.469  1.00  0.00     0.269 C 
HETATM   12  N   UNL     3     -42.118 -46.311   9.277  1.00  0.00     0.084 N 
HETATM   13  C   UNL     3     -41.479 -45.842  10.516  1.00  0.00     0.281 C 
HETATM   14  H   UNL     3     -41.966 -45.588   8.536  1.00  0.00     0.315 HD
ENDBRANCH   7   8
BRANCH   1  15
HETATM   15  C   UNL     3     -39.056 -47.975  13.177  1.00  0.00     0.126 C 
HETATM   16  C   UNL     3     -37.906 -48.875  13.619  1.00  0.00     0.027 C 
ENDBRANCH   1  15
TORSDOF 2
ENDMDL
MODEL 3
REMARK VINA RESULT:      -4.8      3.458      4.803
REMARK  2 active torsions:
REMARK  status: ('A' for Active; 'I' for Inactive)
REMARK    1  A    between atoms: C_6  and  N_7 
REMARK    2  A    between atoms: C_13  and  C_14 
ROOT
HETATM    1  N   UNL     3     -41.263 -53.323  13.310  1.00  0.00    -0.331 N 
HETATM    2  C   UNL     3     -40.632 -52.835  12.226  1.00  0.00     0.201 A 
HETATM    3  N   UNL     3     -41.515 -52.486  11.274  1.00  0.00    -0.295 N 
ATOM      4  HN  UNL     3     -41.296 -52.090  10.360  1.00  0.00     0.187 HD
HETATM    5  N   UNL     3     -42.722 -52.755  11.746  1.00  0.00    -0.288 N 
ATOM      6  HN  UNL     3     -43.606 -52.596  11.263  1.00  0.00     0.188 HD
HETATM    7  C   UNL     3     -42.576 -53.277  12.980  1.00  0.00     0.104 A 
ENDROOT
BRANCH   7   8
HETATM    8  C   UNL     3     -43.739 -53.737  13.847  1.00  0.00     0.083 C 
HETATM    9  C   UNL     3     -45.034 -53.941  13.034  1.00  0.00     0.016 C 
HETATM   10  C   UNL     3     -45.630 -52.604  12.569  1.00  0.00     0.031 C 
HETATM   11  C   UNL     3     -45.812 -51.674  13.776  1.00  0.00     0.269 C 
HETATM   12  N   UNL     3     -44.530 -51.472  14.471  1.00  0.00     0.084 N 
HETATM   13  C   UNL     3     -44.013 -52.747  14.993  1.00  0.00     0.281 C 
HETATM   14  H   UNL     3     -44.693 -50.829  15.281  1.00  0.00     0.315 HD
ENDBRANCH   7   8
BRANCH   1  15
HETATM   15  C   UNL     3     -40.603 -53.786  14.537  1.00  0.00     0.126 C 
HETATM   16  C   UNL     3     -39.324 -54.548  14.205  1.00  0.00     0.027 C 
ENDBRANCH   1  15
TORSDOF 2
ENDMDL
MODEL 4
REMARK VINA RESULT:      -4.7      2.590      3.287
REMARK  2 active torsions:
REMARK  status: ('A' for Active; 'I' for Inactive)
REMARK    1  A    between atoms: C_6  and  N_7 
REMARK    2  A    between atoms: C_13  and  C_14 
ROOT
HETATM    1  N   UNL     3     -40.113 -52.494  13.114  1.00  0.00    -0.331 N 
HETATM    2  C   UNL     3     -41.077 -53.057  12.363  1.00  0.00     0.201 A 
HETATM    3  N   UNL     3     -41.333 -52.313  11.274  1.00  0.00    -0.295 N 
ATOM      4  HN  UNL     3     -42.016 -52.519  10.545  1.00  0.00     0.187 HD
HETATM    5  N   UNL     3     -40.532 -51.259  11.326  1.00  0.00    -0.288 N 
ATOM      6  HN  UNL     3     -40.481 -50.508  10.638  1.00  0.00     0.188 HD
HETATM    7  C   UNL     3     -39.795 -51.357  12.450  1.00  0.00     0.104 A 
ENDROOT
BRANCH   7   8
HETATM    8  C   UNL     3     -38.768 -50.321  12.880  1.00  0.00     0.083 C 
HETATM    9  C   UNL     3     -39.289 -49.407  14.009  1.00  0.00     0.016 C 
HETATM   10  C   UNL     3     -40.370 -48.440  13.503  1.00  0.00     0.031 C 
HETATM   11  C   UNL     3     -39.838 -47.662  12.291  1.00  0.00     0.269 C 
HETATM   12  N   UNL     3     -39.415 -48.589  11.228  1.00  0.00     0.084 N 
HETATM   13  C   UNL     3     -38.316 -49.450  11.694  1.00  0.00     0.281 C 
HETATM   14  H   UNL     3     -39.067 -48.024  10.419  1.00  0.00     0.315 HD
ENDBRANCH   7   8
BRANCH   1  15
HETATM   15  C   UNL     3     -39.581 -53.049  14.365  1.00  0.00     0.126 C 
HETATM   16  C   UNL     3     -39.249 -54.529  14.198  1.00  0.00     0.027 C 
ENDBRANCH   1  15
TORSDOF 2
ENDMDL
MODEL 5
REMARK VINA RESULT:      -4.6      2.391      4.897
REMARK  2 active torsions:
REMARK  status: ('A' for Active; 'I' for Inactive)
REMARK    1  A    between atoms: C_6  and  N_7 
REMARK    2  A    between atoms: C_13  and  C_14 
ROOT
HETATM    1  N   UNL     3     -40.194 -49.776  12.712  1.00  0.00    -0.331 N 
HETATM    2  C   UNL     3     -39.857 -49.347  11.481  1.00  0.00     0.201 A 
HETATM    3  N   UNL     3     -40.306 -50.193  10.538  1.00  0.00    -0.295 N 
ATOM      4  HN  UNL     3     -40.186 -50.096   9.530  1.00  0.00     0.187 HD
HETATM    5  N   UNL     3     -40.932 -51.177  11.165  1.00  0.00    -0.288 N 
ATOM      6  HN  UNL     3     -41.391 -51.974  10.726  1.00  0.00     0.188 HD
HETATM    7  C   UNL     3     -40.857 -50.935  12.489  1.00  0.00     0.104 A 
ENDROOT
BRANCH   7   8
HETATM    8  C   UNL     3     -41.441 -51.856  13.550  1.00  0.00     0.083 C 
HETATM    9  C   UNL     3     -40.428 -52.186  14.667  1.00  0.00     0.016 C 
HETATM   10  C   UNL     3     -39.315 -53.118  14.165  1.00  0.00     0.031 C 
HETATM   11  C   UNL     3     -39.937 -54.366  13.523  1.00  0.00     0.269 C 
HETATM   12  N   UNL     3     -40.845 -53.985  12.429  1.00  0.00     0.084 N 
HETATM   13  C   UNL     3     -41.959 -53.168  12.935  1.00  0.00     0.281 C 
HETATM   14  H   UNL     3     -41.243 -54.859  12.012  1.00  0.00     0.315 HD
ENDBRANCH   7   8
BRANCH   1  15
HETATM   15  C   UNL     3     -39.873 -49.085  13.967  1.00  0.00     0.126 C 
HETATM   16  C   UNL     3     -38.363 -49.045  14.187  1.00  0.00     0.027 C 
ENDBRANCH   1  15
TORSDOF 2
ENDMDL
MODEL 6
REMARK VINA RESULT:      -4.6      2.385      4.086
REMARK  2 active torsions:
REMARK  status: ('A' for Active; 'I' for Inactive)
REMARK    1  A    between atoms: C_6  and  N_7 
REMARK    2  A    between atoms: C_13  and  C_14 
ROOT
HETATM    1  N   UNL     3     -45.732 -51.693  13.962  1.00  0.00    -0.331 N 
HETATM    2  C   UNL     3     -46.736 -51.697  13.066  1.00  0.00     0.201 A 
HETATM    3  N   UNL     3     -46.349 -52.269  11.913  1.00  0.00    -0.295 N 
ATOM      4  HN  UNL     3     -46.921 -52.398  11.079  1.00  0.00     0.187 HD
HETATM    5  N   UNL     3     -45.085 -52.632  12.065  1.00  0.00    -0.288 N 
ATOM      6  HN  UNL     3     -44.506 -53.100  11.368  1.00  0.00     0.188 HD
HETATM    7  C   UNL     3     -44.699 -52.273  13.305  1.00  0.00     0.104 A 
ENDROOT
BRANCH   7   8
HETATM    8  C   UNL     3     -43.298 -52.501  13.853  1.00  0.00     0.083 C 
HETATM    9  C   UNL     3     -42.578 -51.180  14.197  1.00  0.00     0.016 C 
HETATM   10  C   UNL     3     -42.189 -50.399  12.932  1.00  0.00     0.031 C 
HETATM   11  C   UNL     3     -41.377 -51.306  11.997  1.00  0.00     0.269 C 
HETATM   12  N   UNL     3     -42.143 -52.517  11.660  1.00  0.00     0.084 N 
HETATM   13  C   UNL     3     -42.431 -53.305  12.868  1.00  0.00     0.281 C 
HETATM   14  H   UNL     3     -41.562 -53.105  11.017  1.00  0.00     0.315 HD
ENDBRANCH   7   8
BRANCH   1  15
HETATM   15  C   UNL     3     -45.814 -51.157  15.326  1.00  0.00     0.126 C 
HETATM   16  C   UNL     3     -47.186 -51.438  15.932  1.00  0.00     0.027 C 
ENDBRANCH   1  15
TORSDOF 2
ENDMDL
MODEL 7
REMARK VINA RESULT:      -4.4      2.544      4.833
REMARK  2 active torsions:
REMARK  status: ('A' for Active; 'I' for Inactive)
REMARK    1  A    between atoms: C_6  and  N_7 
REMARK    2  A    between atoms: C_13  and  C_14 
ROOT
HETATM    1  N   UNL     3     -39.183 -50.510  12.498  1.00  0.00    -0.331 N 
HETATM    2  C   UNL     3     -39.406 -49.762  11.401  1.00  0.00     0.201 A 
HETATM    3  N   UNL     3     -40.422 -50.263  10.677  1.00  0.00    -0.295 N 
ATOM      4  HN  UNL     3     -40.790 -49.883   9.806  1.00  0.00     0.187 HD
HETATM    5  N   UNL     3     -40.853 -51.344  11.309  1.00  0.00    -0.288 N 
ATOM      6  HN  UNL     3     -41.622 -51.946  11.014  1.00  0.00     0.188 HD
HETATM    7  C   UNL     3     -40.095 -51.508  12.411  1.00  0.00     0.104 A 
ENDROOT
BRANCH   7   8
HETATM    8  C   UNL     3     -40.266 -52.658  13.392  1.00  0.00     0.083 C 
HETATM    9  C   UNL     3     -41.210 -53.755  12.854  1.00  0.00     0.016 C 
HETATM   10  C   UNL     3     -42.671 -53.281  12.822  1.00  0.00     0.031 C 
HETATM   11  C   UNL     3     -43.074 -52.761  14.209  1.00  0.00     0.269 C 
HETATM   12  N   UNL     3     -42.173 -51.678  14.636  1.00  0.00     0.084 N 
HETATM   13  C   UNL     3     -40.790 -52.166  14.752  1.00  0.00     0.281 C 
HETATM   14  H   UNL     3     -42.483 -51.346  15.579  1.00  0.00     0.315 HD
ENDBRANCH   7   8
BRANCH   1  15
HETATM   15  C   UNL     3     -38.156 -50.241  13.512  1.00  0.00     0.126 C 
HETATM   16  C   UNL     3     -37.829 -48.751  13.564  1.00  0.00     0.027 C 
ENDBRANCH   1  15
TORSDOF 2
ENDMDL
MODEL 8
REMARK VINA RESULT:      -4.3      2.390      4.654
REMARK  2 active torsions:
REMARK  status: ('A' for Active; 'I' for Inactive)
REMARK    1  A    between atoms: C_6  and  N_7 
REMARK    2  A    between atoms: C_13  and  C_14 
ROOT
HETATM    1  N   UNL     3     -41.420 -47.178  11.556  1.00  0.00    -0.331 N 
HETATM    2  C   UNL     3     -41.910 -47.196  10.302  1.00  0.00     0.201 A 
HETATM    3  N   UNL     3     -41.716 -48.395   9.728  1.00  0.00    -0.295 N 
ATOM      4  HN  UNL     3     -41.996 -48.669   8.786  1.00  0.00     0.187 HD
HETATM    5  N   UNL     3     -41.092 -49.155  10.616  1.00  0.00    -0.288 N 
ATOM      6  HN  UNL     3     -40.810 -50.126  10.484  1.00  0.00     0.188 HD
HETATM    7  C   UNL     3     -40.898 -48.416  11.726  1.00  0.00     0.104 A 
ENDROOT
BRANCH   7   8
HETATM    8  C   UNL     3     -40.189 -48.931  12.970  1.00  0.00     0.083 C 
HETATM    9  C   UNL     3     -38.707 -48.502  13.023  1.00  0.00     0.016 C 
HETATM   10  C   UNL     3     -37.864 -49.243  11.974  1.00  0.00     0.031 C 
HETATM   11  C   UNL     3     -38.063 -50.757  12.129  1.00  0.00     0.269 C 
HETATM   12  N   UNL     3     -39.488 -51.106  12.008  1.00  0.00     0.084 N 
HETATM   13  C   UNL     3     -40.274 -50.464  13.073  1.00  0.00     0.281 C 
HETATM   14  H   UNL     3     -39.583 -52.143  12.111  1.00  0.00     0.315 HD
ENDBRANCH   7   8
BRANCH   1  15
HETATM   15  C   UNL     3     -41.474 -46.031  12.470  1.00  0.00     0.126 C 
HETATM   16  C   UNL     3     -40.280 -45.107  12.245  1.00  0.00     0.027 C 
ENDBRANCH   1  15
TORSDOF 2
ENDMDL
MODEL 9
REMARK VINA RESULT:      -4.3      2.705      5.247
REMARK  2 active torsions:
REMARK  status: ('A' for Active; 'I' for Inactive)
REMARK    1  A    between atoms: C_6  and  N_7 
REMARK    2  A    between atoms: C_13  and  C_14 
ROOT
HETATM    1  N   UNL     3     -40.411 -45.705  12.163  1.00  0.00    -0.331 N 
HETATM    2  C   UNL     3     -40.055 -44.962  11.099  1.00  0.00     0.201 A 
HETATM    3  N   UNL     3     -40.100 -45.689   9.969  1.00  0.00    -0.295 N 
ATOM      4  HN  UNL     3     -39.881 -45.362   9.029  1.00  0.00     0.187 HD
HETATM    5  N   UNL     3     -40.483 -46.910  10.309  1.00  0.00    -0.288 N 
ATOM      6  HN  UNL     3     -40.619 -47.696   9.673  1.00  0.00     0.188 HD
HETATM    7  C   UNL     3     -40.661 -46.930  11.644  1.00  0.00     0.104 A 
ENDROOT
BRANCH   7   8
HETATM    8  C   UNL     3     -41.082 -48.168  12.422  1.00  0.00     0.083 C 
HETATM    9  C   UNL     3     -39.990 -48.649  13.401  1.00  0.00     0.016 C 
HETATM   10  C   UNL     3     -38.791 -49.259  12.659  1.00  0.00     0.031 C 
HETATM   11  C   UNL     3     -39.280 -50.361  11.709  1.00  0.00     0.269 C 
HETATM   12  N   UNL     3     -40.273 -49.824  10.764  1.00  0.00     0.084 N 
HETATM   13  C   UNL     3     -41.458 -49.325  11.480  1.00  0.00     0.281 C 
HETATM   14  H   UNL     3     -40.576 -50.600  10.130  1.00  0.00     0.315 HD
ENDBRANCH   7   8
BRANCH   1  15
HETATM   15  C   UNL     3     -40.482 -45.222  13.548  1.00  0.00     0.126 C 
HETATM   16  C   UNL     3     -39.086 -45.136  14.159  1.00  0.00     0.027 C 
ENDBRANCH   1  15
TORSDOF 2
ENDMDL
