MODEL 1
REMARK VINA RESULT:      -5.4      0.000      0.000
REMARK  7 active torsions:
REMARK  status: ('A' for Active; 'I' for Inactive)
REMARK    1  A    between atoms: O_2  and  C_3 
REMARK    2  A    between atoms: C_3  and  C_4 
REMARK    3  A    between atoms: C_4  and  O_5 
REMARK    4  A    between atoms: O_5  and  C_6 
REMARK    5  A    between atoms: C_12  and  C_13 
REMARK    6  A    between atoms: C_13  and  N_14 
REMARK       I    between atoms: N_14  and  C_15 
REMARK    7  A    between atoms: C_15  and  C_17 
ROOT
HETATM    1  C   UNL     1     -40.492 -53.326  13.335  1.00  0.00     0.150 A 
HETATM    2  N   UNL     1     -39.674 -53.988  14.186  1.00  0.00    -0.346 N 
ATOM      3  HN  UNL     1     -38.660 -53.911  14.115  1.00  0.00     0.167 HD
HETATM    4  C   UNL     1     -40.257 -54.754  15.130  1.00  0.00     0.090 A 
HETATM    5  C   UNL     1     -41.623 -54.874  15.285  1.00  0.00     0.018 A 
HETATM    6  C   UNL     1     -42.445 -54.177  14.404  1.00  0.00     0.014 A 
HETATM    7  C   UNL     1     -41.881 -53.392  13.389  1.00  0.00     0.011 A 
ENDROOT
BRANCH   7   8
HETATM    8  C   UNL     1     -42.767 -52.701  12.394  1.00  0.00     0.165 C 
BRANCH   8   9
HETATM    9  N   UNL     1     -43.862 -51.995  13.013  1.00  0.00    -0.356 N 
HETATM   10  C   UNL     1     -45.165 -52.399  12.875  1.00  0.00     0.222 C 
HETATM   11  O   UNL     1     -45.528 -53.385  12.251  1.00  0.00    -0.273 OA
HETATM   12  H   UNL     1     -43.643 -51.219  13.622  1.00  0.00     0.162 HD
BRANCH  10  13
HETATM   13  C   UNL     1     -46.139 -51.521  13.583  1.00  0.00     0.078 A 
HETATM   14  C   UNL     1     -45.830 -51.047  14.984  1.00  0.00     0.015 A 
HETATM   15  C   UNL     1     -46.940 -52.033  14.758  1.00  0.00     0.015 A 
ENDBRANCH  10  13
ENDBRANCH   8   9
ENDBRANCH   7   8
BRANCH   1  16
HETATM   16  O   UNL     1     -39.915 -52.499  12.391  1.00  0.00    -0.333 OA
BRANCH  16  17
HETATM   17  C   UNL     1     -39.542 -51.230  12.938  1.00  0.00     0.203 C 
BRANCH  17  18
HETATM   18  C   UNL     1     -38.045 -51.227  13.224  1.00  0.00     0.193 C 
BRANCH  18  19
HETATM   19  O   UNL     1     -37.332 -51.250  11.988  1.00  0.00    -0.394 OA
HETATM   20  C   UNL     1     -37.440 -50.014  11.294  1.00  0.00     0.201 C 
ENDBRANCH  18  19
ENDBRANCH  17  18
ENDBRANCH  16  17
ENDBRANCH   1  16
TORSDOF 7
ENDMDL
MODEL 2
REMARK VINA RESULT:      -5.3      1.341      1.559
REMARK  7 active torsions:
REMARK  status: ('A' for Active; 'I' for Inactive)
REMARK    1  A    between atoms: O_2  and  C_3 
REMARK    2  A    between atoms: C_3  and  C_4 
REMARK    3  A    between atoms: C_4  and  O_5 
REMARK    4  A    between atoms: O_5  and  C_6 
REMARK    5  A    between atoms: C_12  and  C_13 
REMARK    6  A    between atoms: C_13  and  N_14 
REMARK       I    between atoms: N_14  and  C_15 
REMARK    7  A    between atoms: C_15  and  C_17 
ROOT
HETATM    1  C   UNL     1     -40.626 -51.842  13.077  1.00  0.00     0.150 A 
HETATM    2  N   UNL     1     -39.424 -51.952  13.688  1.00  0.00    -0.346 N 
ATOM      3  HN  UNL     1     -38.819 -51.142  13.820  1.00  0.00     0.167 HD
HETATM    4  C   UNL     1     -39.060 -53.179  14.115  1.00  0.00     0.090 A 
HETATM    5  C   UNL     1     -39.851 -54.302  13.984  1.00  0.00     0.018 A 
HETATM    6  C   UNL     1     -41.087 -54.164  13.360  1.00  0.00     0.014 A 
HETATM    7  C   UNL     1     -41.492 -52.913  12.875  1.00  0.00     0.011 A 
ENDROOT
BRANCH   7   8
HETATM    8  C   UNL     1     -42.792 -52.779  12.136  1.00  0.00     0.165 C 
BRANCH   8   9
HETATM    9  N   UNL     1     -43.769 -52.002  12.858  1.00  0.00    -0.356 N 
HETATM   10  C   UNL     1     -45.099 -52.337  12.881  1.00  0.00     0.222 C 
HETATM   11  O   UNL     1     -45.582 -53.315  12.329  1.00  0.00    -0.273 OA
HETATM   12  H   UNL     1     -43.442 -51.226  13.416  1.00  0.00     0.162 HD
BRANCH  10  13
HETATM   13  C   UNL     1     -45.937 -51.394  13.673  1.00  0.00     0.078 A 
HETATM   14  C   UNL     1     -45.569 -51.096  15.107  1.00  0.00     0.015 A 
HETATM   15  C   UNL     1     -46.809 -51.886  14.805  1.00  0.00     0.015 A 
ENDBRANCH  10  13
ENDBRANCH   8   9
ENDBRANCH   7   8
BRANCH   1  16
HETATM   16  O   UNL     1     -41.038 -50.586  12.675  1.00  0.00    -0.333 OA
BRANCH  16  17
HETATM   17  C   UNL     1     -40.350 -50.141  11.501  1.00  0.00     0.203 C 
BRANCH  17  18
HETATM   18  C   UNL     1     -39.518 -48.911  11.843  1.00  0.00     0.193 C 
BRANCH  18  19
HETATM   19  O   UNL     1     -38.246 -49.327  12.339  1.00  0.00    -0.394 OA
HETATM   20  C   UNL     1     -37.466 -49.952  11.328  1.00  0.00     0.201 C 
ENDBRANCH  18  19
ENDBRANCH  17  18
ENDBRANCH  16  17
ENDBRANCH   1  16
TORSDOF 7
ENDMDL
MODEL 3
REMARK VINA RESULT:      -5.3      5.390      6.744
REMARK  7 active torsions:
REMARK  status: ('A' for Active; 'I' for Inactive)
REMARK    1  A    between atoms: O_2  and  C_3 
REMARK    2  A    between atoms: C_3  and  C_4 
REMARK    3  A    between atoms: C_4  and  O_5 
REMARK    4  A    between atoms: O_5  and  C_6 
REMARK    5  A    between atoms: C_12  and  C_13 
REMARK    6  A    between atoms: C_13  and  N_14 
REMARK       I    between atoms: N_14  and  C_15 
REMARK    7  A    between atoms: C_15  and  C_17 
ROOT
HETATM    1  C   UNL     1     -40.996 -47.085  11.519  1.00  0.00     0.150 A 
HETATM    2  N   UNL     1     -40.221 -47.183  12.623  1.00  0.00    -0.346 N 
ATOM      3  HN  UNL     1     -39.926 -48.090  12.986  1.00  0.00     0.167 HD
HETATM    4  C   UNL     1     -39.855 -46.033  13.224  1.00  0.00     0.090 A 
HETATM    5  C   UNL     1     -40.206 -44.781  12.760  1.00  0.00     0.018 A 
HETATM    6  C   UNL     1     -40.996 -44.703  11.617  1.00  0.00     0.014 A 
HETATM    7  C   UNL     1     -41.423 -45.876  10.978  1.00  0.00     0.011 A 
ENDROOT
BRANCH   7   8
HETATM    8  C   UNL     1     -42.337 -45.793   9.790  1.00  0.00     0.165 C 
BRANCH   8   9
HETATM    9  N   UNL     1     -43.627 -46.390  10.034  1.00  0.00    -0.356 N 
HETATM   10  C   UNL     1     -44.237 -47.215   9.123  1.00  0.00     0.222 C 
HETATM   11  O   UNL     1     -43.756 -47.544   8.048  1.00  0.00    -0.273 OA
HETATM   12  H   UNL     1     -44.056 -46.244  10.938  1.00  0.00     0.162 HD
BRANCH  10  13
HETATM   13  C   UNL     1     -45.569 -47.712   9.567  1.00  0.00     0.078 A 
HETATM   14  C   UNL     1     -46.455 -48.444   8.587  1.00  0.00     0.015 A 
HETATM   15  C   UNL     1     -46.845 -47.076   9.067  1.00  0.00     0.015 A 
ENDBRANCH  10  13
ENDBRANCH   8   9
ENDBRANCH   7   8
BRANCH   1  16
HETATM   16  O   UNL     1     -41.342 -48.250  10.861  1.00  0.00    -0.333 OA
BRANCH  16  17
HETATM   17  C   UNL     1     -41.545 -49.342  11.766  1.00  0.00     0.203 C 
BRANCH  17  18
HETATM   18  C   UNL     1     -40.491 -50.411  11.505  1.00  0.00     0.193 C 
BRANCH  18  19
HETATM   19  O   UNL     1     -39.357 -50.166  12.337  1.00  0.00    -0.394 OA
HETATM   20  C   UNL     1     -38.190 -49.897  11.571  1.00  0.00     0.201 C 
ENDBRANCH  18  19
ENDBRANCH  17  18
ENDBRANCH  16  17
ENDBRANCH   1  16
TORSDOF 7
ENDMDL
MODEL 4
REMARK VINA RESULT:      -5.2      1.763      2.491
REMARK  7 active torsions:
REMARK  status: ('A' for Active; 'I' for Inactive)
REMARK    1  A    between atoms: O_2  and  C_3 
REMARK    2  A    between atoms: C_3  and  C_4 
REMARK    3  A    between atoms: C_4  and  O_5 
REMARK    4  A    between atoms: O_5  and  C_6 
REMARK    5  A    between atoms: C_12  and  C_13 
REMARK    6  A    between atoms: C_13  and  N_14 
REMARK       I    between atoms: N_14  and  C_15 
REMARK    7  A    between atoms: C_15  and  C_17 
ROOT
HETATM    1  C   UNL     1     -42.122 -54.137  13.985  1.00  0.00     0.150 A 
HETATM    2  N   UNL     1     -40.859 -53.990  14.447  1.00  0.00    -0.346 N 
ATOM      3  HN  UNL     1     -40.173 -53.423  13.948  1.00  0.00     0.167 HD
HETATM    4  C   UNL     1     -40.544 -54.625  15.595  1.00  0.00     0.090 A 
HETATM    5  C   UNL     1     -41.440 -55.383  16.321  1.00  0.00     0.018 A 
HETATM    6  C   UNL     1     -42.737 -55.512  15.832  1.00  0.00     0.014 A 
HETATM    7  C   UNL     1     -43.097 -54.893  14.627  1.00  0.00     0.011 A 
ENDROOT
BRANCH   7   8
HETATM    8  C   UNL     1     -44.473 -55.095  14.062  1.00  0.00     0.165 C 
BRANCH   8   9
HETATM    9  N   UNL     1     -45.322 -53.942  14.229  1.00  0.00    -0.356 N 
HETATM   10  C   UNL     1     -46.095 -53.757  15.347  1.00  0.00     0.222 C 
HETATM   11  O   UNL     1     -46.128 -54.515  16.306  1.00  0.00    -0.273 OA
HETATM   12  H   UNL     1     -45.288 -53.219  13.523  1.00  0.00     0.162 HD
BRANCH  10  13
HETATM   13  C   UNL     1     -46.907 -52.508  15.311  1.00  0.00     0.078 A 
HETATM   14  C   UNL     1     -46.564 -51.427  14.314  1.00  0.00     0.015 A 
HETATM   15  C   UNL     1     -46.334 -51.191  15.779  1.00  0.00     0.015 A 
ENDBRANCH  10  13
ENDBRANCH   8   9
ENDBRANCH   7   8
BRANCH   1  16
HETATM   16  O   UNL     1     -42.477 -53.456  12.836  1.00  0.00    -0.333 OA
BRANCH  16  17
HETATM   17  C   UNL     1     -42.233 -52.050  12.943  1.00  0.00     0.203 C 
BRANCH  17  18
HETATM   18  C   UNL     1     -41.204 -51.638  11.897  1.00  0.00     0.193 C 
BRANCH  18  19
HETATM   19  O   UNL     1     -39.907 -52.055  12.324  1.00  0.00    -0.394 OA
HETATM   20  C   UNL     1     -39.226 -51.024  13.025  1.00  0.00     0.201 C 
ENDBRANCH  18  19
ENDBRANCH  17  18
ENDBRANCH  16  17
ENDBRANCH   1  16
TORSDOF 7
ENDMDL
MODEL 5
REMARK VINA RESULT:      -5.2      3.062      4.426
REMARK  7 active torsions:
REMARK  status: ('A' for Active; 'I' for Inactive)
REMARK    1  A    between atoms: O_2  and  C_3 
REMARK    2  A    between atoms: C_3  and  C_4 
REMARK    3  A    between atoms: C_4  and  O_5 
REMARK    4  A    between atoms: O_5  and  C_6 
REMARK    5  A    between atoms: C_12  and  C_13 
REMARK    6  A    between atoms: C_13  and  N_14 
REMARK       I    between atoms: N_14  and  C_15 
REMARK    7  A    between atoms: C_15  and  C_17 
ROOT
HETATM    1  C   UNL     1     -40.913 -48.908  11.194  1.00  0.00     0.150 A 
HETATM    2  N   UNL     1     -40.774 -47.709  10.582  1.00  0.00    -0.346 N 
ATOM      3  HN  UNL     1     -39.918 -47.461  10.087  1.00  0.00     0.167 HD
HETATM    4  C   UNL     1     -41.816 -46.856  10.655  1.00  0.00     0.090 A 
HETATM    5  C   UNL     1     -43.006 -47.152  11.290  1.00  0.00     0.018 A 
HETATM    6  C   UNL     1     -43.129 -48.394  11.904  1.00  0.00     0.014 A 
HETATM    7  C   UNL     1     -42.060 -49.300  11.878  1.00  0.00     0.011 A 
ENDROOT
BRANCH   7   8
HETATM    8  C   UNL     1     -42.166 -50.609  12.604  1.00  0.00     0.165 C 
BRANCH   8   9
HETATM    9  N   UNL     1     -43.524 -51.083  12.708  1.00  0.00    -0.356 N 
HETATM   10  C   UNL     1     -43.926 -51.943  13.698  1.00  0.00     0.222 C 
HETATM   11  O   UNL     1     -43.204 -52.369  14.588  1.00  0.00    -0.273 OA
HETATM   12  H   UNL     1     -44.208 -50.710  12.065  1.00  0.00     0.162 HD
BRANCH  10  13
HETATM   13  C   UNL     1     -45.365 -52.319  13.613  1.00  0.00     0.078 A 
HETATM   14  C   UNL     1     -46.293 -51.512  12.736  1.00  0.00     0.015 A 
HETATM   15  C   UNL     1     -46.436 -51.451  14.230  1.00  0.00     0.015 A 
ENDBRANCH  10  13
ENDBRANCH   8   9
ENDBRANCH   7   8
BRANCH   1  16
HETATM   16  O   UNL     1     -39.874 -49.814  11.090  1.00  0.00    -0.333 OA
BRANCH  16  17
HETATM   17  C   UNL     1     -38.698 -49.369  11.775  1.00  0.00     0.203 C 
BRANCH  17  18
HETATM   18  C   UNL     1     -37.486 -50.109  11.221  1.00  0.00     0.193 C 
BRANCH  18  19
HETATM   19  O   UNL     1     -37.148 -51.180  12.102  1.00  0.00    -0.394 OA
HETATM   20  C   UNL     1     -37.502 -50.889  13.447  1.00  0.00     0.201 C 
ENDBRANCH  18  19
ENDBRANCH  17  18
ENDBRANCH  16  17
ENDBRANCH   1  16
TORSDOF 7
ENDMDL
MODEL 6
REMARK VINA RESULT:      -5.1      3.521      4.535
REMARK  7 active torsions:
REMARK  status: ('A' for Active; 'I' for Inactive)
REMARK    1  A    between atoms: O_2  and  C_3 
REMARK    2  A    between atoms: C_3  and  C_4 
REMARK    3  A    between atoms: C_4  and  O_5 
REMARK    4  A    between atoms: O_5  and  C_6 
REMARK    5  A    between atoms: C_12  and  C_13 
REMARK    6  A    between atoms: C_13  and  N_14 
REMARK       I    between atoms: N_14  and  C_15 
REMARK    7  A    between atoms: C_15  and  C_17 
ROOT
HETATM    1  C   UNL     1     -40.304 -49.748  11.538  1.00  0.00     0.150 A 
HETATM    2  N   UNL     1     -39.244 -48.908  11.570  1.00  0.00    -0.346 N 
ATOM      3  HN  UNL     1     -39.233 -48.045  11.026  1.00  0.00     0.167 HD
HETATM    4  C   UNL     1     -38.203 -49.259  12.353  1.00  0.00     0.090 A 
HETATM    5  C   UNL     1     -38.178 -50.401  13.128  1.00  0.00     0.018 A 
HETATM    6  C   UNL     1     -39.283 -51.246  13.085  1.00  0.00     0.014 A 
HETATM    7  C   UNL     1     -40.375 -50.933  12.263  1.00  0.00     0.011 A 
ENDROOT
BRANCH   7   8
HETATM    8  C   UNL     1     -41.533 -51.882  12.160  1.00  0.00     0.165 C 
BRANCH   8   9
HETATM    9  N   UNL     1     -42.796 -51.259  12.469  1.00  0.00    -0.356 N 
HETATM   10  C   UNL     1     -43.759 -51.886  13.218  1.00  0.00     0.222 C 
HETATM   11  O   UNL     1     -43.645 -52.999  13.711  1.00  0.00    -0.273 OA
HETATM   12  H   UNL     1     -42.939 -50.302  12.177  1.00  0.00     0.162 HD
BRANCH  10  13
HETATM   13  C   UNL     1     -44.992 -51.072  13.407  1.00  0.00     0.078 A 
HETATM   14  C   UNL     1     -46.028 -51.512  14.414  1.00  0.00     0.015 A 
HETATM   15  C   UNL     1     -46.339 -51.577  12.947  1.00  0.00     0.015 A 
ENDBRANCH  10  13
ENDBRANCH   8   9
ENDBRANCH   7   8
BRANCH   1  16
HETATM   16  O   UNL     1     -41.400 -49.382  10.779  1.00  0.00    -0.333 OA
BRANCH  16  17
HETATM   17  C   UNL     1     -41.545 -47.961  10.688  1.00  0.00     0.203 C 
BRANCH  17  18
HETATM   18  C   UNL     1     -43.012 -47.620  10.451  1.00  0.00     0.193 C 
BRANCH  18  19
HETATM   19  O   UNL     1     -43.273 -47.622   9.048  1.00  0.00    -0.394 OA
HETATM   20  C   UNL     1     -43.467 -46.307   8.546  1.00  0.00     0.201 C 
ENDBRANCH  18  19
ENDBRANCH  17  18
ENDBRANCH  16  17
ENDBRANCH   1  16
TORSDOF 7
ENDMDL
MODEL 7
REMARK VINA RESULT:      -5.0      4.651      6.721
REMARK  7 active torsions:
REMARK  status: ('A' for Active; 'I' for Inactive)
REMARK    1  A    between atoms: O_2  and  C_3 
REMARK    2  A    between atoms: C_3  and  C_4 
REMARK    3  A    between atoms: C_4  and  O_5 
REMARK    4  A    between atoms: O_5  and  C_6 
REMARK    5  A    between atoms: C_12  and  C_13 
REMARK    6  A    between atoms: C_13  and  N_14 
REMARK       I    between atoms: N_14  and  C_15 
REMARK    7  A    between atoms: C_15  and  C_17 
ROOT
HETATM    1  C   UNL     1     -41.834 -47.390  10.338  1.00  0.00     0.150 A 
HETATM    2  N   UNL     1     -41.478 -46.126  10.014  1.00  0.00    -0.346 N 
ATOM      3  HN  UNL     1     -41.970 -45.605   9.289  1.00  0.00     0.167 HD
HETATM    4  C   UNL     1     -40.445 -45.585  10.691  1.00  0.00     0.090 A 
HETATM    5  C   UNL     1     -39.762 -46.237  11.697  1.00  0.00     0.018 A 
HETATM    6  C   UNL     1     -40.151 -47.534  12.020  1.00  0.00     0.014 A 
HETATM    7  C   UNL     1     -41.202 -48.145  11.321  1.00  0.00     0.011 A 
ENDROOT
BRANCH   7   8
HETATM    8  C   UNL     1     -41.572 -49.569  11.618  1.00  0.00     0.165 C 
BRANCH   8   9
HETATM    9  N   UNL     1     -42.854 -49.691  12.267  1.00  0.00    -0.356 N 
HETATM   10  C   UNL     1     -43.164 -50.748  13.083  1.00  0.00     0.222 C 
HETATM   11  O   UNL     1     -42.402 -51.663  13.361  1.00  0.00    -0.273 OA
HETATM   12  H   UNL     1     -43.513 -48.932  12.164  1.00  0.00     0.162 HD
BRANCH  10  13
HETATM   13  C   UNL     1     -44.545 -50.686  13.640  1.00  0.00     0.078 A 
HETATM   14  C   UNL     1     -45.104 -51.880  14.377  1.00  0.00     0.015 A 
HETATM   15  C   UNL     1     -45.666 -51.500  13.038  1.00  0.00     0.015 A 
ENDBRANCH  10  13
ENDBRANCH   8   9
ENDBRANCH   7   8
BRANCH   1  16
HETATM   16  O   UNL     1     -42.921 -47.946   9.689  1.00  0.00    -0.333 OA
BRANCH  16  17
HETATM   17  C   UNL     1     -43.403 -47.112   8.630  1.00  0.00     0.203 C 
BRANCH  17  18
HETATM   18  C   UNL     1     -44.821 -46.657   8.957  1.00  0.00     0.193 C 
BRANCH  18  19
HETATM   19  O   UNL     1     -45.513 -47.716   9.616  1.00  0.00    -0.394 OA
HETATM   20  C   UNL     1     -46.739 -48.028   8.968  1.00  0.00     0.201 C 
ENDBRANCH  18  19
ENDBRANCH  17  18
ENDBRANCH  16  17
ENDBRANCH   1  16
TORSDOF 7
ENDMDL
MODEL 8
REMARK VINA RESULT:      -5.0      2.297      2.813
REMARK  7 active torsions:
REMARK  status: ('A' for Active; 'I' for Inactive)
REMARK    1  A    between atoms: O_2  and  C_3 
REMARK    2  A    between atoms: C_3  and  C_4 
REMARK    3  A    between atoms: C_4  and  O_5 
REMARK    4  A    between atoms: O_5  and  C_6 
REMARK    5  A    between atoms: C_12  and  C_13 
REMARK    6  A    between atoms: C_13  and  N_14 
REMARK       I    between atoms: N_14  and  C_15 
REMARK    7  A    between atoms: C_15  and  C_17 
ROOT
HETATM    1  C   UNL     1     -41.276 -52.246  12.879  1.00  0.00     0.150 A 
HETATM    2  N   UNL     1     -39.973 -52.113  13.216  1.00  0.00    -0.346 N 
ATOM      3  HN  UNL     1     -39.445 -51.275  12.976  1.00  0.00     0.167 HD
HETATM    4  C   UNL     1     -39.402 -53.136  13.884  1.00  0.00     0.090 A 
HETATM    5  C   UNL     1     -40.077 -54.282  14.256  1.00  0.00     0.018 A 
HETATM    6  C   UNL     1     -41.419 -54.393  13.906  1.00  0.00     0.014 A 
HETATM    7  C   UNL     1     -42.045 -53.365  13.186  1.00  0.00     0.011 A 
ENDROOT
BRANCH   7   8
HETATM    8  C   UNL     1     -43.470 -53.519  12.743  1.00  0.00     0.165 C 
BRANCH   8   9
HETATM    9  N   UNL     1     -44.377 -52.664  13.470  1.00  0.00    -0.356 N 
HETATM   10  C   UNL     1     -45.629 -52.357  13.001  1.00  0.00     0.222 C 
HETATM   11  O   UNL     1     -46.108 -52.782  11.959  1.00  0.00    -0.273 OA
HETATM   12  H   UNL     1     -44.096 -52.342  14.385  1.00  0.00     0.162 HD
BRANCH  10  13
HETATM   13  C   UNL     1     -46.396 -51.449  13.899  1.00  0.00     0.078 A 
HETATM   14  C   UNL     1     -45.845 -51.115  15.265  1.00  0.00     0.015 A 
HETATM   15  C   UNL     1     -47.072 -51.971  15.145  1.00  0.00     0.015 A 
ENDBRANCH  10  13
ENDBRANCH   8   9
ENDBRANCH   7   8
BRANCH   1  16
HETATM   16  O   UNL     1     -41.892 -51.189  12.236  1.00  0.00    -0.333 OA
BRANCH  16  17
HETATM   17  C   UNL     1     -41.954 -50.019  13.057  1.00  0.00     0.203 C 
BRANCH  17  18
HETATM   18  C   UNL     1     -43.064 -49.107  12.548  1.00  0.00     0.193 C 
BRANCH  18  19
HETATM   19  O   UNL     1     -42.689 -48.577  11.277  1.00  0.00    -0.394 OA
HETATM   20  C   UNL     1     -43.419 -47.399  10.961  1.00  0.00     0.201 C 
ENDBRANCH  18  19
ENDBRANCH  17  18
ENDBRANCH  16  17
ENDBRANCH   1  16
TORSDOF 7
ENDMDL
MODEL 9
REMARK VINA RESULT:      -4.9      5.472      8.125
REMARK  7 active torsions:
REMARK  status: ('A' for Active; 'I' for Inactive)
REMARK    1  A    between atoms: O_2  and  C_3 
REMARK    2  A    between atoms: C_3  and  C_4 
REMARK    3  A    between atoms: C_4  and  O_5 
REMARK    4  A    between atoms: O_5  and  C_6 
REMARK    5  A    between atoms: C_12  and  C_13 
REMARK    6  A    between atoms: C_13  and  N_14 
REMARK       I    between atoms: N_14  and  C_15 
REMARK    7  A    between atoms: C_15  and  C_17 
ROOT
HETATM    1  C   UNL     1     -42.328 -45.820  10.712  1.00  0.00     0.150 A 
HETATM    2  N   UNL     1     -42.694 -44.668  11.320  1.00  0.00    -0.346 N 
ATOM      3  HN  UNL     1     -43.015 -43.862  10.782  1.00  0.00     0.167 HD
HETATM    4  C   UNL     1     -42.618 -44.629  12.665  1.00  0.00     0.090 A 
HETATM    5  C   UNL     1     -42.215 -45.698  13.441  1.00  0.00     0.018 A 
HETATM    6  C   UNL     1     -41.851 -46.876  12.795  1.00  0.00     0.014 A 
HETATM    7  C   UNL     1     -41.889 -46.949  11.396  1.00  0.00     0.011 A 
ENDROOT
BRANCH   7   8
HETATM    8  C   UNL     1     -41.425 -48.193  10.697  1.00  0.00     0.165 C 
BRANCH   8   9
HETATM    9  N   UNL     1     -40.184 -48.704  11.226  1.00  0.00    -0.356 N 
HETATM   10  C   UNL     1     -40.021 -50.022  11.568  1.00  0.00     0.222 C 
HETATM   11  O   UNL     1     -40.876 -50.887  11.442  1.00  0.00    -0.273 OA
HETATM   12  H   UNL     1     -39.395 -48.075  11.279  1.00  0.00     0.162 HD
BRANCH  10  13
HETATM   13  C   UNL     1     -38.668 -50.335  12.108  1.00  0.00     0.078 A 
HETATM   14  C   UNL     1     -37.718 -49.206  12.434  1.00  0.00     0.015 A 
HETATM   15  C   UNL     1     -37.426 -50.117  11.276  1.00  0.00     0.015 A 
ENDBRANCH  10  13
ENDBRANCH   8   9
ENDBRANCH   7   8
BRANCH   1  16
HETATM   16  O   UNL     1     -42.445 -45.895   9.337  1.00  0.00    -0.333 OA
BRANCH  16  17
HETATM   17  C   UNL     1     -43.784 -46.185   8.923  1.00  0.00     0.203 C 
BRANCH  17  18
HETATM   18  C   UNL     1     -43.798 -47.499   8.150  1.00  0.00     0.193 C 
BRANCH  18  19
HETATM   19  O   UNL     1     -45.119 -48.038   8.164  1.00  0.00    -0.394 OA
HETATM   20  C   UNL     1     -45.841 -47.633   9.319  1.00  0.00     0.201 C 
ENDBRANCH  18  19
ENDBRANCH  17  18
ENDBRANCH  16  17
ENDBRANCH   1  16
TORSDOF 7
ENDMDL
