MODEL 1
REMARK VINA RESULT:      -6.5      0.000      0.000
REMARK  7 active torsions:
REMARK  status: ('A' for Active; 'I' for Inactive)
REMARK    1  A    between atoms: C_2  and  N_3 
REMARK    2  A    between atoms: C_2  and  C_18 
REMARK    3  A    between atoms: C_2  and  C_22 
REMARK       I    between atoms: N_3  and  C_4 
REMARK    4  A    between atoms: C_4  and  C_6 
REMARK    5  A    between atoms: C_6  and  N_7 
REMARK    6  A    between atoms: C_9  and  C_14 
REMARK    7  A    between atoms: C_18  and  N_19 
ROOT
HETATM    1  N   UNL     1     -43.617 -49.921  13.303  1.00  0.00    -0.339 N 
HETATM    2  C   UNL     1     -42.676 -49.218  12.573  1.00  0.00     0.237 C 
HETATM    3  O   UNL     1     -41.650 -49.727  12.128  1.00  0.00    -0.272 OA
HETATM    4  H   UNL     1     -44.245 -49.373  13.888  1.00  0.00     0.164 HD
ENDROOT
BRANCH   2   5
HETATM    5  C   UNL     1     -42.958 -47.726  12.410  1.00  0.00     0.234 C 
BRANCH   5   6
HETATM    6  N   UNL     1     -43.424 -47.447  11.055  1.00  0.00    -0.315 N 
HETATM    7  C   UNL     1     -44.661 -47.918  10.634  1.00  0.00     0.110 A 
HETATM    8  C   UNL     1     -45.117 -47.695   9.388  1.00  0.00     0.063 A 
HETATM    9  C   UNL     1     -44.287 -46.927   8.476  1.00  0.00     0.023 A 
HETATM   10  C   UNL     1     -43.079 -46.475   8.847  1.00  0.00     0.075 A 
HETATM   11  C   UNL     1     -42.561 -46.762  10.208  1.00  0.00     0.247 A 
HETATM   12  O   UNL     1     -41.422 -46.418  10.519  1.00  0.00    -0.268 OA
BRANCH   8  13
HETATM   13  C   UNL     1     -46.446 -48.219   8.913  1.00  0.00     0.418 C 
HETATM   14  F   UNL     1     -47.434 -47.287   8.968  1.00  0.00    -0.166 F 
HETATM   15  F   UNL     1     -46.388 -48.644   7.626  1.00  0.00    -0.166 F 
HETATM   16  F   UNL     1     -46.863 -49.275   9.658  1.00  0.00    -0.166 F 
ENDBRANCH   8  13
ENDBRANCH   5   6
ENDBRANCH   2   5
BRANCH   1  17
HETATM   17  C   UNL     1     -43.468 -51.351  13.604  1.00  0.00     0.104 C 
HETATM   18  C   UNL     1     -42.648 -51.579  14.884  1.00  0.00     0.054 C 
BRANCH  17  19
HETATM   19  C   UNL     1     -42.791 -52.083  12.457  1.00  0.00    -0.046 C 
BRANCH  19  20
HETATM   20  N   UNL     1     -42.228 -52.691  11.506  1.00  0.00    -0.367 N 
ATOM     21  HN2 UNL     1     -42.670 -52.179  12.270  1.00  0.00     0.165 HD
ATOM     22  HN1 UNL     1     -41.773 -53.182  10.737  1.00  0.00     0.165 HD
ENDBRANCH  19  20
ENDBRANCH  17  19
BRANCH  17  23
HETATM   23  C   UNL     1     -44.855 -51.978  13.641  1.00  0.00     0.027 A 
HETATM   24  C   UNL     1     -46.023 -51.378  12.884  1.00  0.00     0.009 A 
HETATM   25  C   UNL     1     -46.029 -51.369  14.387  1.00  0.00     0.009 A 
ENDBRANCH  17  23
ENDBRANCH   1  17
TORSDOF 7
ENDMDL
MODEL 2
REMARK VINA RESULT:      -6.2      4.456      7.190
REMARK  7 active torsions:
REMARK  status: ('A' for Active; 'I' for Inactive)
REMARK    1  A    between atoms: C_2  and  N_3 
REMARK    2  A    between atoms: C_2  and  C_18 
REMARK    3  A    between atoms: C_2  and  C_22 
REMARK       I    between atoms: N_3  and  C_4 
REMARK    4  A    between atoms: C_4  and  C_6 
REMARK    5  A    between atoms: C_6  and  N_7 
REMARK    6  A    between atoms: C_9  and  C_14 
REMARK    7  A    between atoms: C_18  and  N_19 
ROOT
HETATM    1  N   UNL     1     -39.961 -51.029  12.159  1.00  0.00    -0.339 N 
HETATM    2  C   UNL     1     -41.299 -51.376  12.119  1.00  0.00     0.237 C 
HETATM    3  O   UNL     1     -42.206 -50.611  12.439  1.00  0.00    -0.272 OA
HETATM    4  H   UNL     1     -39.290 -51.794  12.192  1.00  0.00     0.164 HD
ENDROOT
BRANCH   2   5
HETATM    5  C   UNL     1     -41.586 -52.821  11.714  1.00  0.00     0.234 C 
BRANCH   5   6
HETATM    6  N   UNL     1     -42.131 -53.562  12.847  1.00  0.00    -0.315 N 
HETATM    7  C   UNL     1     -43.499 -53.778  12.944  1.00  0.00     0.110 A 
HETATM    8  C   UNL     1     -44.039 -54.442  13.982  1.00  0.00     0.063 A 
HETATM    9  C   UNL     1     -43.152 -54.952  15.013  1.00  0.00     0.023 A 
HETATM   10  C   UNL     1     -41.828 -54.743  14.957  1.00  0.00     0.075 A 
HETATM   11  C   UNL     1     -41.241 -53.971  13.833  1.00  0.00     0.247 A 
HETATM   12  O   UNL     1     -40.039 -53.710  13.826  1.00  0.00    -0.268 OA
BRANCH   8  13
HETATM   13  C   UNL     1     -45.523 -54.664  14.110  1.00  0.00     0.418 C 
HETATM   14  F   UNL     1     -45.963 -54.581  15.394  1.00  0.00    -0.166 F 
HETATM   15  F   UNL     1     -46.231 -53.751  13.400  1.00  0.00    -0.166 F 
HETATM   16  F   UNL     1     -45.887 -55.889  13.651  1.00  0.00    -0.166 F 
ENDBRANCH   8  13
ENDBRANCH   5   6
ENDBRANCH   2   5
BRANCH   1  17
HETATM   17  C   UNL     1     -39.510 -49.698  12.585  1.00  0.00     0.104 C 
HETATM   18  C   UNL     1     -39.978 -49.370  14.013  1.00  0.00     0.054 C 
BRANCH  17  19
HETATM   19  C   UNL     1     -40.024 -48.619  11.647  1.00  0.00    -0.046 C 
BRANCH  19  20
HETATM   20  N   UNL     1     -40.449 -47.723  10.868  1.00  0.00    -0.367 N 
ATOM     21  HN2 UNL     1     -40.105 -48.430  11.516  1.00  0.00     0.165 HD
ATOM     22  HN1 UNL     1     -40.794 -46.998  10.238  1.00  0.00     0.165 HD
ENDBRANCH  19  20
ENDBRANCH  17  19
BRANCH  17  23
HETATM   23  C   UNL     1     -38.001 -49.624  12.401  1.00  0.00     0.027 A 
HETATM   24  C   UNL     1     -37.332 -50.042  11.106  1.00  0.00     0.009 A 
HETATM   25  C   UNL     1     -37.102 -50.847  12.354  1.00  0.00     0.009 A 
ENDBRANCH  17  23
ENDBRANCH   1  17
TORSDOF 7
ENDMDL
MODEL 3
REMARK VINA RESULT:      -6.1      2.794      4.154
REMARK  7 active torsions:
REMARK  status: ('A' for Active; 'I' for Inactive)
REMARK    1  A    between atoms: C_2  and  N_3 
REMARK    2  A    between atoms: C_2  and  C_18 
REMARK    3  A    between atoms: C_2  and  C_22 
REMARK       I    between atoms: N_3  and  C_4 
REMARK    4  A    between atoms: C_4  and  C_6 
REMARK    5  A    between atoms: C_6  and  N_7 
REMARK    6  A    between atoms: C_9  and  C_14 
REMARK    7  A    between atoms: C_18  and  N_19 
ROOT
HETATM    1  N   UNL     1     -44.588 -52.039  14.272  1.00  0.00    -0.339 N 
HETATM    2  C   UNL     1     -43.627 -52.353  13.329  1.00  0.00     0.237 C 
HETATM    3  O   UNL     1     -43.869 -52.980  12.301  1.00  0.00    -0.272 OA
HETATM    4  H   UNL     1     -44.256 -51.817  15.209  1.00  0.00     0.164 HD
ENDROOT
BRANCH   2   5
HETATM    5  C   UNL     1     -42.203 -51.928  13.683  1.00  0.00     0.234 C 
BRANCH   5   6
HETATM    6  N   UNL     1     -41.758 -50.866  12.787  1.00  0.00    -0.315 N 
HETATM    7  C   UNL     1     -42.577 -49.771  12.545  1.00  0.00     0.110 A 
HETATM    8  C   UNL     1     -42.208 -48.781  11.713  1.00  0.00     0.063 A 
HETATM    9  C   UNL     1     -40.908 -48.867  11.069  1.00  0.00     0.023 A 
HETATM   10  C   UNL     1     -40.102 -49.921  11.269  1.00  0.00     0.075 A 
HETATM   11  C   UNL     1     -40.533 -51.033  12.153  1.00  0.00     0.247 A 
HETATM   12  O   UNL     1     -39.829 -52.035  12.269  1.00  0.00    -0.268 OA
BRANCH   8  13
HETATM   13  C   UNL     1     -43.096 -47.600  11.424  1.00  0.00     0.418 C 
HETATM   14  F   UNL     1     -42.508 -46.678  10.617  1.00  0.00    -0.166 F 
HETATM   15  F   UNL     1     -44.246 -47.974  10.809  1.00  0.00    -0.166 F 
HETATM   16  F   UNL     1     -43.452 -46.951  12.563  1.00  0.00    -0.166 F 
ENDBRANCH   8  13
ENDBRANCH   5   6
ENDBRANCH   2   5
BRANCH   1  17
HETATM   17  C   UNL     1     -45.996 -52.429  14.116  1.00  0.00     0.104 C 
HETATM   18  C   UNL     1     -46.220 -53.906  14.478  1.00  0.00     0.054 C 
BRANCH  17  19
HETATM   19  C   UNL     1     -46.471 -52.202  12.690  1.00  0.00    -0.046 C 
BRANCH  19  20
HETATM   20  N   UNL     1     -46.865 -52.013  11.507  1.00  0.00    -0.367 N 
ATOM     21  HN2 UNL     1     -46.528 -52.150  12.459  1.00  0.00     0.165 HD
ATOM     22  HN1 UNL     1     -47.184 -51.860  10.551  1.00  0.00     0.165 HD
ENDBRANCH  19  20
ENDBRANCH  17  19
BRANCH  17  23
HETATM   23  C   UNL     1     -46.851 -51.461  14.921  1.00  0.00     0.027 A 
HETATM   24  C   UNL     1     -46.364 -50.856  16.222  1.00  0.00     0.009 A 
HETATM   25  C   UNL     1     -47.513 -51.825  16.238  1.00  0.00     0.009 A 
ENDBRANCH  17  23
ENDBRANCH   1  17
TORSDOF 7
ENDMDL
MODEL 4
REMARK VINA RESULT:      -5.9      5.909      7.578
REMARK  7 active torsions:
REMARK  status: ('A' for Active; 'I' for Inactive)
REMARK    1  A    between atoms: C_2  and  N_3 
REMARK    2  A    between atoms: C_2  and  C_18 
REMARK    3  A    between atoms: C_2  and  C_22 
REMARK       I    between atoms: N_3  and  C_4 
REMARK    4  A    between atoms: C_4  and  C_6 
REMARK    5  A    between atoms: C_6  and  N_7 
REMARK    6  A    between atoms: C_9  and  C_14 
REMARK    7  A    between atoms: C_18  and  N_19 
ROOT
HETATM    1  N   UNL     1     -44.500 -51.913  14.059  1.00  0.00    -0.339 N 
HETATM    2  C   UNL     1     -43.523 -52.325  13.170  1.00  0.00     0.237 C 
HETATM    3  O   UNL     1     -43.737 -53.108  12.247  1.00  0.00    -0.272 OA
HETATM    4  H   UNL     1     -44.180 -51.540  14.950  1.00  0.00     0.164 HD
ENDROOT
BRANCH   2   5
HETATM    5  C   UNL     1     -42.119 -51.795  13.453  1.00  0.00     0.234 C 
BRANCH   5   6
HETATM    6  N   UNL     1     -41.275 -52.864  13.977  1.00  0.00    -0.315 N 
HETATM    7  C   UNL     1     -41.771 -53.733  14.940  1.00  0.00     0.110 A 
HETATM    8  C   UNL     1     -41.017 -54.720  15.458  1.00  0.00     0.063 A 
HETATM    9  C   UNL     1     -39.655 -54.875  14.977  1.00  0.00     0.023 A 
HETATM   10  C   UNL     1     -39.141 -54.039  14.062  1.00  0.00     0.075 A 
HETATM   11  C   UNL     1     -39.962 -52.924  13.526  1.00  0.00     0.247 A 
HETATM   12  O   UNL     1     -39.463 -52.110  12.749  1.00  0.00    -0.268 OA
BRANCH   8  13
HETATM   13  C   UNL     1     -41.535 -55.655  16.518  1.00  0.00     0.418 C 
HETATM   14  F   UNL     1     -40.564 -56.441  17.053  1.00  0.00    -0.166 F 
HETATM   15  F   UNL     1     -42.100 -54.981  17.551  1.00  0.00    -0.166 F 
HETATM   16  F   UNL     1     -42.486 -56.491  16.027  1.00  0.00    -0.166 F 
ENDBRANCH   8  13
ENDBRANCH   5   6
ENDBRANCH   2   5
BRANCH   1  17
HETATM   17  C   UNL     1     -45.890 -52.378  13.966  1.00  0.00     0.104 C 
HETATM   18  C   UNL     1     -46.020 -53.861  14.349  1.00  0.00     0.054 C 
BRANCH  17  19
HETATM   19  C   UNL     1     -46.437 -52.191  12.560  1.00  0.00    -0.046 C 
BRANCH  19  20
HETATM   20  N   UNL     1     -46.891 -52.037  11.394  1.00  0.00    -0.367 N 
ATOM     21  HN2 UNL     1     -46.504 -52.148  12.330  1.00  0.00     0.165 HD
ATOM     22  HN1 UNL     1     -47.258 -51.912  10.451  1.00  0.00     0.165 HD
ENDBRANCH  19  20
ENDBRANCH  17  19
BRANCH  17  23
HETATM   23  C   UNL     1     -46.761 -51.449  14.800  1.00  0.00     0.027 A 
HETATM   24  C   UNL     1     -46.302 -50.912  16.141  1.00  0.00     0.009 A 
HETATM   25  C   UNL     1     -47.453 -51.877  16.082  1.00  0.00     0.009 A 
ENDBRANCH  17  23
ENDBRANCH   1  17
TORSDOF 7
ENDMDL
MODEL 5
REMARK VINA RESULT:      -5.8      3.238      6.689
REMARK  7 active torsions:
REMARK  status: ('A' for Active; 'I' for Inactive)
REMARK    1  A    between atoms: C_2  and  N_3 
REMARK    2  A    between atoms: C_2  and  C_18 
REMARK    3  A    between atoms: C_2  and  C_22 
REMARK       I    between atoms: N_3  and  C_4 
REMARK    4  A    between atoms: C_4  and  C_6 
REMARK    5  A    between atoms: C_6  and  N_7 
REMARK    6  A    between atoms: C_9  and  C_14 
REMARK    7  A    between atoms: C_18  and  N_19 
ROOT
HETATM    1  N   UNL     1     -41.573 -49.752  10.996  1.00  0.00    -0.339 N 
HETATM    2  C   UNL     1     -41.147 -50.511  12.071  1.00  0.00     0.237 C 
HETATM    3  O   UNL     1     -41.006 -50.057  13.205  1.00  0.00    -0.272 OA
HETATM    4  H   UNL     1     -41.355 -50.110  10.068  1.00  0.00     0.164 HD
ENDROOT
BRANCH   2   5
HETATM    5  C   UNL     1     -40.784 -51.958  11.745  1.00  0.00     0.234 C 
BRANCH   5   6
HETATM    6  N   UNL     1     -41.473 -52.866  12.657  1.00  0.00    -0.315 N 
HETATM    7  C   UNL     1     -42.858 -52.960  12.632  1.00  0.00     0.110 A 
HETATM    8  C   UNL     1     -43.528 -53.773  13.468  1.00  0.00     0.063 A 
HETATM    9  C   UNL     1     -42.766 -54.580  14.407  1.00  0.00     0.023 A 
HETATM   10  C   UNL     1     -41.428 -54.498  14.467  1.00  0.00     0.075 A 
HETATM   11  C   UNL     1     -40.696 -53.565  13.574  1.00  0.00     0.247 A 
HETATM   12  O   UNL     1     -39.479 -53.431  13.687  1.00  0.00    -0.268 OA
BRANCH   8  13
HETATM   13  C   UNL     1     -45.031 -53.867  13.466  1.00  0.00     0.418 C 
HETATM   14  F   UNL     1     -45.483 -55.146  13.383  1.00  0.00    -0.166 F 
HETATM   15  F   UNL     1     -45.569 -53.340  14.595  1.00  0.00    -0.166 F 
HETATM   16  F   UNL     1     -45.573 -53.193  12.419  1.00  0.00    -0.166 F 
ENDBRANCH   8  13
ENDBRANCH   5   6
ENDBRANCH   2   5
BRANCH   1  17
HETATM   17  C   UNL     1     -41.903 -48.327  11.125  1.00  0.00     0.104 C 
HETATM   18  C   UNL     1     -42.919 -48.079  12.252  1.00  0.00     0.054 C 
BRANCH  17  19
HETATM   19  C   UNL     1     -42.474 -47.778   9.828  1.00  0.00    -0.046 C 
BRANCH  19  20
HETATM   20  N   UNL     1     -42.948 -47.323   8.752  1.00  0.00    -0.367 N 
ATOM     21  HN2 UNL     1     -42.550 -47.706   9.609  1.00  0.00     0.165 HD
ATOM     22  HN1 UNL     1     -43.332 -46.954   7.882  1.00  0.00     0.165 HD
ENDBRANCH  19  20
ENDBRANCH  17  19
BRANCH  17  23
HETATM   23  C   UNL     1     -40.605 -47.549  11.285  1.00  0.00     0.027 A 
HETATM   24  C   UNL     1     -40.348 -46.661  12.487  1.00  0.00     0.009 A 
HETATM   25  C   UNL     1     -40.507 -46.042  11.127  1.00  0.00     0.009 A 
ENDBRANCH  17  23
ENDBRANCH   1  17
TORSDOF 7
ENDMDL
MODEL 6
REMARK VINA RESULT:      -5.8      2.452      6.084
REMARK  7 active torsions:
REMARK  status: ('A' for Active; 'I' for Inactive)
REMARK    1  A    between atoms: C_2  and  N_3 
REMARK    2  A    between atoms: C_2  and  C_18 
REMARK    3  A    between atoms: C_2  and  C_22 
REMARK       I    between atoms: N_3  and  C_4 
REMARK    4  A    between atoms: C_4  and  C_6 
REMARK    5  A    between atoms: C_6  and  N_7 
REMARK    6  A    between atoms: C_9  and  C_14 
REMARK    7  A    between atoms: C_18  and  N_19 
ROOT
HETATM    1  N   UNL     1     -42.507 -48.937  11.124  1.00  0.00    -0.339 N 
HETATM    2  C   UNL     1     -41.997 -49.533  12.263  1.00  0.00     0.237 C 
HETATM    3  O   UNL     1     -41.547 -48.898  13.214  1.00  0.00    -0.272 OA
HETATM    4  H   UNL     1     -42.552 -49.514  10.286  1.00  0.00     0.164 HD
ENDROOT
BRANCH   2   5
HETATM    5  C   UNL     1     -41.959 -51.060  12.240  1.00  0.00     0.234 C 
BRANCH   5   6
HETATM    6  N   UNL     1     -42.803 -51.600  13.301  1.00  0.00    -0.315 N 
HETATM    7  C   UNL     1     -44.181 -51.433  13.248  1.00  0.00     0.110 A 
HETATM    8  C   UNL     1     -44.988 -51.903  14.216  1.00  0.00     0.063 A 
HETATM    9  C   UNL     1     -44.389 -52.614  15.332  1.00  0.00     0.023 A 
HETATM   10  C   UNL     1     -43.060 -52.775  15.421  1.00  0.00     0.075 A 
HETATM   11  C   UNL     1     -42.169 -52.216  14.374  1.00  0.00     0.247 A 
HETATM   12  O   UNL     1     -40.947 -52.293  14.499  1.00  0.00    -0.268 OA
BRANCH   8  13
HETATM   13  C   UNL     1     -46.481 -51.708  14.182  1.00  0.00     0.418 C 
HETATM   14  F   UNL     1     -46.924 -51.212  12.996  1.00  0.00    -0.166 F 
HETATM   15  F   UNL     1     -47.145 -52.874  14.384  1.00  0.00    -0.166 F 
HETATM   16  F   UNL     1     -46.896 -50.846  15.145  1.00  0.00    -0.166 F 
ENDBRANCH   8  13
ENDBRANCH   5   6
ENDBRANCH   2   5
BRANCH   1  17
HETATM   17  C   UNL     1     -42.559 -47.479  10.959  1.00  0.00     0.104 C 
HETATM   18  C   UNL     1     -41.183 -46.899  10.593  1.00  0.00     0.054 C 
BRANCH  17  19
HETATM   19  C   UNL     1     -43.048 -46.801  12.229  1.00  0.00    -0.046 C 
BRANCH  19  20
HETATM   20  N   UNL     1     -43.454 -46.240  13.282  1.00  0.00    -0.367 N 
ATOM     21  HN2 UNL     1     -43.136 -46.675  12.417  1.00  0.00     0.165 HD
ATOM     22  HN1 UNL     1     -43.782 -45.786  14.134  1.00  0.00     0.165 HD
ENDBRANCH  19  20
ENDBRANCH  17  19
BRANCH  17  23
HETATM   23  C   UNL     1     -43.652 -47.151   9.952  1.00  0.00     0.027 A 
HETATM   24  C   UNL     1     -43.618 -47.685   8.534  1.00  0.00     0.009 A 
HETATM   25  C   UNL     1     -43.452 -46.211   8.776  1.00  0.00     0.009 A 
ENDBRANCH  17  23
ENDBRANCH   1  17
TORSDOF 7
ENDMDL
MODEL 7
REMARK VINA RESULT:      -5.8      3.656      6.357
REMARK  7 active torsions:
REMARK  status: ('A' for Active; 'I' for Inactive)
REMARK    1  A    between atoms: C_2  and  N_3 
REMARK    2  A    between atoms: C_2  and  C_18 
REMARK    3  A    between atoms: C_2  and  C_22 
REMARK       I    between atoms: N_3  and  C_4 
REMARK    4  A    between atoms: C_4  and  C_6 
REMARK    5  A    between atoms: C_6  and  N_7 
REMARK    6  A    between atoms: C_9  and  C_14 
REMARK    7  A    between atoms: C_18  and  N_19 
ROOT
HETATM    1  N   UNL     1     -40.085 -50.504  12.645  1.00  0.00    -0.339 N 
HETATM    2  C   UNL     1     -41.419 -50.543  12.282  1.00  0.00     0.237 C 
HETATM    3  O   UNL     1     -42.098 -49.535  12.098  1.00  0.00    -0.272 OA
HETATM    4  H   UNL     1     -39.704 -51.343  13.080  1.00  0.00     0.164 HD
ENDROOT
BRANCH   2   5
HETATM    5  C   UNL     1     -42.031 -51.939  12.191  1.00  0.00     0.234 C 
BRANCH   5   6
HETATM    6  N   UNL     1     -42.897 -52.183  13.340  1.00  0.00    -0.315 N 
HETATM    7  C   UNL     1     -44.259 -51.927  13.251  1.00  0.00     0.110 A 
HETATM    8  C   UNL     1     -45.086 -52.125  14.293  1.00  0.00     0.063 A 
HETATM    9  C   UNL     1     -44.526 -52.634  15.534  1.00  0.00     0.023 A 
HETATM   10  C   UNL     1     -43.212 -52.874  15.656  1.00  0.00     0.075 A 
HETATM   11  C   UNL     1     -42.296 -52.611  14.517  1.00  0.00     0.247 A 
HETATM   12  O   UNL     1     -41.082 -52.753  14.658  1.00  0.00    -0.268 OA
BRANCH   8  13
HETATM   13  C   UNL     1     -46.561 -51.830  14.216  1.00  0.00     0.418 C 
HETATM   14  F   UNL     1     -46.984 -50.981  15.191  1.00  0.00    -0.166 F 
HETATM   15  F   UNL     1     -46.898 -51.258  13.033  1.00  0.00    -0.166 F 
HETATM   16  F   UNL     1     -47.305 -52.960  14.334  1.00  0.00    -0.166 F 
ENDBRANCH   8  13
ENDBRANCH   5   6
ENDBRANCH   2   5
BRANCH   1  17
HETATM   17  C   UNL     1     -39.361 -49.241  12.836  1.00  0.00     0.104 C 
HETATM   18  C   UNL     1     -39.621 -48.641  14.228  1.00  0.00     0.054 C 
BRANCH  17  19
HETATM   19  C   UNL     1     -39.759 -48.218  11.785  1.00  0.00    -0.046 C 
BRANCH  19  20
HETATM   20  N   UNL     1     -40.089 -47.369  10.913  1.00  0.00    -0.367 N 
ATOM     21  HN2 UNL     1     -39.819 -48.072  11.600  1.00  0.00     0.165 HD
ATOM     22  HN1 UNL     1     -40.356 -46.682  10.208  1.00  0.00     0.165 HD
ENDBRANCH  19  20
ENDBRANCH  17  19
BRANCH  17  23
HETATM   23  C   UNL     1     -37.888 -49.485  12.537  1.00  0.00     0.027 A 
HETATM   24  C   UNL     1     -37.427 -50.071  11.217  1.00  0.00     0.009 A 
HETATM   25  C   UNL     1     -37.263 -50.868  12.481  1.00  0.00     0.009 A 
ENDBRANCH  17  23
ENDBRANCH   1  17
TORSDOF 7
ENDMDL
MODEL 8
REMARK VINA RESULT:      -5.7      4.220      5.647
REMARK  7 active torsions:
REMARK  status: ('A' for Active; 'I' for Inactive)
REMARK    1  A    between atoms: C_2  and  N_3 
REMARK    2  A    between atoms: C_2  and  C_18 
REMARK    3  A    between atoms: C_2  and  C_22 
REMARK       I    between atoms: N_3  and  C_4 
REMARK    4  A    between atoms: C_4  and  C_6 
REMARK    5  A    between atoms: C_6  and  N_7 
REMARK    6  A    between atoms: C_9  and  C_14 
REMARK    7  A    between atoms: C_18  and  N_19 
ROOT
HETATM    1  N   UNL     1     -44.562 -52.903  14.119  1.00  0.00    -0.339 N 
HETATM    2  C   UNL     1     -43.908 -53.670  13.172  1.00  0.00     0.237 C 
HETATM    3  O   UNL     1     -44.478 -54.203  12.223  1.00  0.00    -0.272 OA
HETATM    4  H   UNL     1     -44.091 -52.779  15.013  1.00  0.00     0.164 HD
ENDROOT
BRANCH   2   5
HETATM    5  C   UNL     1     -42.416 -53.881  13.421  1.00  0.00     0.234 C 
BRANCH   5   6
HETATM    6  N   UNL     1     -41.754 -52.597  13.628  1.00  0.00    -0.315 N 
HETATM    7  C   UNL     1     -41.702 -51.667  12.599  1.00  0.00     0.110 A 
HETATM    8  C   UNL     1     -41.088 -50.479  12.748  1.00  0.00     0.063 A 
HETATM    9  C   UNL     1     -40.479 -50.172  14.031  1.00  0.00     0.023 A 
HETATM   10  C   UNL     1     -40.497 -51.058  15.039  1.00  0.00     0.075 A 
HETATM   11  C   UNL     1     -41.137 -52.385  14.855  1.00  0.00     0.247 A 
HETATM   12  O   UNL     1     -41.080 -53.225  15.752  1.00  0.00    -0.268 OA
BRANCH   8  13
HETATM   13  C   UNL     1     -41.005 -49.471  11.633  1.00  0.00     0.418 C 
HETATM   14  F   UNL     1     -40.406 -48.311  12.009  1.00  0.00    -0.166 F 
HETATM   15  F   UNL     1     -40.298 -49.946  10.577  1.00  0.00    -0.166 F 
HETATM   16  F   UNL     1     -42.236 -49.140  11.165  1.00  0.00    -0.166 F 
ENDBRANCH   8  13
ENDBRANCH   5   6
ENDBRANCH   2   5
BRANCH   1  17
HETATM   17  C   UNL     1     -46.008 -52.653  14.062  1.00  0.00     0.104 C 
HETATM   18  C   UNL     1     -46.813 -53.858  14.575  1.00  0.00     0.054 C 
BRANCH  17  19
HETATM   19  C   UNL     1     -46.454 -52.341  12.642  1.00  0.00    -0.046 C 
BRANCH  19  20
HETATM   20  N   UNL     1     -46.823 -52.082  11.465  1.00  0.00    -0.367 N 
ATOM     21  HN2 UNL     1     -46.531 -52.268  12.424  1.00  0.00     0.165 HD
ATOM     22  HN1 UNL     1     -47.122 -51.873  10.513  1.00  0.00     0.165 HD
ENDBRANCH  19  20
ENDBRANCH  17  19
BRANCH  17  23
HETATM   23  C   UNL     1     -46.298 -51.357  14.805  1.00  0.00     0.027 A 
HETATM   24  C   UNL     1     -45.419 -50.873  15.941  1.00  0.00     0.009 A 
HETATM   25  C   UNL     1     -46.829 -51.309  16.227  1.00  0.00     0.009 A 
ENDBRANCH  17  23
ENDBRANCH   1  17
TORSDOF 7
ENDMDL
MODEL 9
REMARK VINA RESULT:      -5.6      4.797      6.121
REMARK  7 active torsions:
REMARK  status: ('A' for Active; 'I' for Inactive)
REMARK    1  A    between atoms: C_2  and  N_3 
REMARK    2  A    between atoms: C_2  and  C_18 
REMARK    3  A    between atoms: C_2  and  C_22 
REMARK       I    between atoms: N_3  and  C_4 
REMARK    4  A    between atoms: C_4  and  C_6 
REMARK    5  A    between atoms: C_6  and  N_7 
REMARK    6  A    between atoms: C_9  and  C_14 
REMARK    7  A    between atoms: C_18  and  N_19 
ROOT
HETATM    1  N   UNL     1     -43.598 -53.623  12.857  1.00  0.00    -0.339 N 
HETATM    2  C   UNL     1     -42.526 -54.064  13.611  1.00  0.00     0.237 C 
HETATM    3  O   UNL     1     -42.600 -54.308  14.814  1.00  0.00    -0.272 OA
HETATM    4  H   UNL     1     -43.380 -53.151  11.982  1.00  0.00     0.164 HD
ENDROOT
BRANCH   2   5
HETATM    5  C   UNL     1     -41.198 -54.162  12.863  1.00  0.00     0.234 C 
BRANCH   5   6
HETATM    6  N   UNL     1     -40.387 -52.976  13.119  1.00  0.00    -0.315 N 
HETATM    7  C   UNL     1     -40.583 -51.824  12.369  1.00  0.00     0.110 A 
HETATM    8  C   UNL     1     -39.844 -50.717  12.566  1.00  0.00     0.063 A 
HETATM    9  C   UNL     1     -38.828 -50.739  13.605  1.00  0.00     0.023 A 
HETATM   10  C   UNL     1     -38.604 -51.843  14.334  1.00  0.00     0.075 A 
HETATM   11  C   UNL     1     -39.391 -53.077  14.082  1.00  0.00     0.247 A 
HETATM   12  O   UNL     1     -39.127 -54.111  14.694  1.00  0.00    -0.268 OA
BRANCH   8  13
HETATM   13  C   UNL     1     -40.031 -49.469  11.745  1.00  0.00     0.418 C 
HETATM   14  F   UNL     1     -40.495 -49.723  10.492  1.00  0.00    -0.166 F 
HETATM   15  F   UNL     1     -40.916 -48.616  12.319  1.00  0.00    -0.166 F 
HETATM   16  F   UNL     1     -38.866 -48.787  11.598  1.00  0.00    -0.166 F 
ENDBRANCH   8  13
ENDBRANCH   5   6
ENDBRANCH   2   5
BRANCH   1  17
HETATM   17  C   UNL     1     -44.931 -53.416  13.438  1.00  0.00     0.104 C 
HETATM   18  C   UNL     1     -45.563 -54.740  13.897  1.00  0.00     0.054 C 
BRANCH  17  19
HETATM   19  C   UNL     1     -45.866 -52.754  12.438  1.00  0.00    -0.046 C 
BRANCH  19  20
HETATM   20  N   UNL     1     -46.642 -52.205  11.609  1.00  0.00    -0.367 N 
ATOM     21  HN2 UNL     1     -46.031 -52.668  12.282  1.00  0.00     0.165 HD
ATOM     22  HN1 UNL     1     -47.269 -51.762  10.938  1.00  0.00     0.165 HD
ENDBRANCH  19  20
ENDBRANCH  17  19
BRANCH  17  23
HETATM   23  C   UNL     1     -44.815 -52.374  14.541  1.00  0.00     0.027 A 
HETATM   24  C   UNL     1     -45.909 -51.357  14.798  1.00  0.00     0.009 A 
HETATM   25  C   UNL     1     -44.576 -50.898  14.276  1.00  0.00     0.009 A 
ENDBRANCH  17  23
ENDBRANCH   1  17
TORSDOF 7
ENDMDL
