MODEL 1
REMARK VINA RESULT:      -6.7      0.000      0.000
REMARK  4 active torsions:
REMARK  status: ('A' for Active; 'I' for Inactive)
REMARK       I    between atoms: C_2  and  N_3 
REMARK       I    between atoms: C_2  and  N_14 
REMARK    1  A    between atoms: N_3  and  C_4 
REMARK    2  A    between atoms: C_4  and  C_5 
REMARK    3  A    between atoms: N_14  and  C_15 
REMARK    4  A    between atoms: C_21  and  N_22 
ROOT
HETATM    1  O   UNL     1     -43.528 -50.167  14.964  1.00  0.00    -0.247 OA
HETATM    2  C   UNL     1     -43.556 -49.983  13.749  1.00  0.00     0.320 C 
HETATM    3  N   UNL     1     -44.379 -50.665  12.913  1.00  0.00    -0.340 N 
HETATM    4  N   UNL     1     -42.768 -49.010  13.219  1.00  0.00    -0.306 N 
HETATM    5  H   UNL     1     -44.539 -50.280  11.992  1.00  0.00     0.164 HD
HETATM    6  H   UNL     1     -42.470 -48.381  13.946  1.00  0.00     0.171 HD
ENDROOT
BRANCH   3   7
HETATM    7  C   UNL     1     -45.358 -51.610  13.429  1.00  0.00     0.158 C 
BRANCH   7   8
HETATM    8  C   UNL     1     -45.266 -53.031  12.822  1.00  0.00     0.167 C 
HETATM    9  C   UNL     1     -43.812 -53.475  12.501  1.00  0.00     0.306 C 
HETATM   10  N   UNL     1     -43.068 -53.684  13.745  1.00  0.00     0.097 N 
HETATM   11  C   UNL     1     -41.709 -54.191  13.608  1.00  0.00     0.273 C 
HETATM   12  C   UNL     1     -43.760 -54.698  14.559  1.00  0.00     0.246 C 
HETATM   13  C   UNL     1     -41.417 -54.726  15.016  1.00  0.00     0.032 C 
HETATM   14  C   UNL     1     -42.782 -54.816  15.713  1.00  0.00     0.040 C 
HETATM   15  C   UNL     1     -45.180 -54.259  14.897  1.00  0.00     0.204 C 
HETATM   16  O   UNL     1     -45.920 -54.001  13.687  1.00  0.00    -0.380 OA
ENDBRANCH   7   8
ENDBRANCH   3   7
BRANCH   4  17
HETATM   17  C   UNL     1     -42.708 -48.539  11.894  1.00  0.00     0.080 A 
HETATM   18  C   UNL     1     -43.784 -47.771  11.422  1.00  0.00     0.035 A 
HETATM   19  C   UNL     1     -43.800 -47.335  10.106  1.00  0.00     0.019 A 
HETATM   20  C   UNL     1     -42.718 -47.656   9.313  1.00  0.00     0.090 A 
HETATM   21  N   UNL     1     -41.665 -48.388   9.747  1.00  0.00    -0.351 N 
HETATM   22  C   UNL     1     -41.647 -48.867  11.016  1.00  0.00     0.130 A 
ATOM     23  HN  UNL     1     -40.884 -48.579   9.119  1.00  0.00     0.166 HD
BRANCH  22  24
HETATM   24  N   UNL     1     -40.515 -49.574  11.406  1.00  0.00    -0.365 N 
HETATM   25  C   UNL     1     -39.421 -48.960  12.153  1.00  0.00     0.124 C 
HETATM   26  C   UNL     1     -38.779 -50.089  12.951  1.00  0.00     0.021 C 
HETATM   27  C   UNL     1     -39.864 -51.138  13.064  1.00  0.00     0.021 C 
HETATM   28  C   UNL     1     -40.661 -50.985  11.775  1.00  0.00     0.124 C 
ENDBRANCH  22  24
ENDBRANCH   4  17
TORSDOF 4
ENDMDL
MODEL 2
REMARK VINA RESULT:      -6.6      2.516      3.595
REMARK  4 active torsions:
REMARK  status: ('A' for Active; 'I' for Inactive)
REMARK       I    between atoms: C_2  and  N_3 
REMARK       I    between atoms: C_2  and  N_14 
REMARK    1  A    between atoms: N_3  and  C_4 
REMARK    2  A    between atoms: C_4  and  C_5 
REMARK    3  A    between atoms: N_14  and  C_15 
REMARK    4  A    between atoms: C_21  and  N_22 
ROOT
HETATM    1  O   UNL     1     -39.917 -49.727  11.588  1.00  0.00    -0.247 OA
HETATM    2  C   UNL     1     -41.017 -49.303  11.241  1.00  0.00     0.320 C 
HETATM    3  N   UNL     1     -42.189 -49.833  11.674  1.00  0.00    -0.340 N 
HETATM    4  N   UNL     1     -41.070 -48.212  10.431  1.00  0.00    -0.306 N 
HETATM    5  H   UNL     1     -43.026 -49.277  11.568  1.00  0.00     0.164 HD
HETATM    6  H   UNL     1     -40.185 -47.732  10.451  1.00  0.00     0.171 HD
ENDROOT
BRANCH   3   7
HETATM    7  C   UNL     1     -42.210 -50.901  12.663  1.00  0.00     0.158 C 
BRANCH   7   8
HETATM    8  C   UNL     1     -42.217 -52.331  12.069  1.00  0.00     0.167 C 
HETATM    9  C   UNL     1     -40.875 -53.090  12.264  1.00  0.00     0.306 C 
HETATM   10  N   UNL     1     -40.682 -53.407  13.680  1.00  0.00     0.097 N 
HETATM   11  C   UNL     1     -39.505 -54.200  14.011  1.00  0.00     0.273 C 
HETATM   12  C   UNL     1     -41.817 -54.217  14.156  1.00  0.00     0.246 C 
HETATM   13  C   UNL     1     -39.852 -54.731  15.408  1.00  0.00     0.032 C 
HETATM   14  C   UNL     1     -41.360 -54.498  15.574  1.00  0.00     0.040 C 
HETATM   15  C   UNL     1     -43.136 -53.468  13.989  1.00  0.00     0.204 C 
HETATM   16  O   UNL     1     -43.327 -53.103  12.607  1.00  0.00    -0.380 OA
ENDBRANCH   7   8
ENDBRANCH   3   7
BRANCH   4  17
HETATM   17  C   UNL     1     -42.190 -47.480   9.997  1.00  0.00     0.080 A 
HETATM   18  C   UNL     1     -42.859 -47.927   8.847  1.00  0.00     0.035 A 
HETATM   19  C   UNL     1     -43.932 -47.206   8.345  1.00  0.00     0.019 A 
HETATM   20  C   UNL     1     -44.321 -46.075   9.033  1.00  0.00     0.090 A 
HETATM   21  N   UNL     1     -43.698 -45.628  10.148  1.00  0.00    -0.351 N 
HETATM   22  C   UNL     1     -42.615 -46.289  10.633  1.00  0.00     0.130 A 
ATOM     23  HN  UNL     1     -44.041 -44.795  10.624  1.00  0.00     0.166 HD
BRANCH  22  24
HETATM   24  N   UNL     1     -42.052 -45.798  11.805  1.00  0.00    -0.365 N 
HETATM   25  C   UNL     1     -41.468 -44.463  11.901  1.00  0.00     0.124 C 
HETATM   26  C   UNL     1     -41.608 -44.054  13.363  1.00  0.00     0.021 C 
HETATM   27  C   UNL     1     -42.744 -44.904  13.888  1.00  0.00     0.021 C 
HETATM   28  C   UNL     1     -42.640 -46.196  13.086  1.00  0.00     0.124 C 
ENDBRANCH  22  24
ENDBRANCH   4  17
TORSDOF 4
ENDMDL
MODEL 3
REMARK VINA RESULT:      -6.6      2.520      3.780
REMARK  4 active torsions:
REMARK  status: ('A' for Active; 'I' for Inactive)
REMARK       I    between atoms: C_2  and  N_3 
REMARK       I    between atoms: C_2  and  N_14 
REMARK    1  A    between atoms: N_3  and  C_4 
REMARK    2  A    between atoms: C_4  and  C_5 
REMARK    3  A    between atoms: N_14  and  C_15 
REMARK    4  A    between atoms: C_21  and  N_22 
ROOT
HETATM    1  O   UNL     1     -40.128 -49.937  11.251  1.00  0.00    -0.247 OA
HETATM    2  C   UNL     1     -41.185 -49.336  11.073  1.00  0.00     0.320 C 
HETATM    3  N   UNL     1     -42.324 -49.615  11.758  1.00  0.00    -0.340 N 
HETATM    4  N   UNL     1     -41.206 -48.301  10.190  1.00  0.00    -0.306 N 
HETATM    5  H   UNL     1     -43.057 -48.920  11.756  1.00  0.00     0.164 HD
HETATM    6  H   UNL     1     -40.266 -47.994  10.006  1.00  0.00     0.171 HD
ENDROOT
BRANCH   3   7
HETATM    7  C   UNL     1     -42.334 -50.603  12.826  1.00  0.00     0.158 C 
BRANCH   7   8
HETATM    8  C   UNL     1     -43.524 -50.479  13.809  1.00  0.00     0.167 C 
HETATM    9  C   UNL     1     -44.762 -51.320  13.393  1.00  0.00     0.306 C 
HETATM   10  N   UNL     1     -44.466 -52.748  13.536  1.00  0.00     0.097 N 
HETATM   11  C   UNL     1     -45.564 -53.666  13.266  1.00  0.00     0.273 C 
HETATM   12  C   UNL     1     -44.085 -53.028  14.930  1.00  0.00     0.246 C 
HETATM   13  C   UNL     1     -45.084 -54.956  13.942  1.00  0.00     0.032 C 
HETATM   14  C   UNL     1     -43.928 -54.535  14.860  1.00  0.00     0.040 C 
HETATM   15  C   UNL     1     -42.856 -52.222  15.338  1.00  0.00     0.204 C 
HETATM   16  O   UNL     1     -43.107 -50.813  15.162  1.00  0.00    -0.380 OA
ENDBRANCH   7   8
ENDBRANCH   3   7
BRANCH   4  17
HETATM   17  C   UNL     1     -42.248 -47.400   9.903  1.00  0.00     0.080 A 
HETATM   18  C   UNL     1     -43.205 -47.786   8.952  1.00  0.00     0.035 A 
HETATM   19  C   UNL     1     -44.216 -46.908   8.590  1.00  0.00     0.019 A 
HETATM   20  C   UNL     1     -44.253 -45.681   9.220  1.00  0.00     0.090 A 
HETATM   21  N   UNL     1     -43.346 -45.288  10.144  1.00  0.00    -0.351 N 
HETATM   22  C   UNL     1     -42.319 -46.110  10.481  1.00  0.00     0.130 A 
ATOM     23  HN  UNL     1     -43.435 -44.375  10.588  1.00  0.00     0.166 HD
BRANCH  22  24
HETATM   24  N   UNL     1     -41.451 -45.659  11.469  1.00  0.00    -0.365 N 
HETATM   25  C   UNL     1     -40.205 -44.962  11.164  1.00  0.00     0.124 C 
HETATM   26  C   UNL     1     -39.923 -44.071  12.369  1.00  0.00     0.021 C 
HETATM   27  C   UNL     1     -41.275 -43.877  13.022  1.00  0.00     0.021 C 
HETATM   28  C   UNL     1     -42.014 -45.177  12.732  1.00  0.00     0.124 C 
ENDBRANCH  22  24
ENDBRANCH   4  17
TORSDOF 4
ENDMDL
MODEL 4
REMARK VINA RESULT:      -6.6      2.071      3.300
REMARK  4 active torsions:
REMARK  status: ('A' for Active; 'I' for Inactive)
REMARK       I    between atoms: C_2  and  N_3 
REMARK       I    between atoms: C_2  and  N_14 
REMARK    1  A    between atoms: N_3  and  C_4 
REMARK    2  A    between atoms: C_4  and  C_5 
REMARK    3  A    between atoms: N_14  and  C_15 
REMARK    4  A    between atoms: C_21  and  N_22 
ROOT
HETATM    1  O   UNL     1     -40.768 -52.818  11.842  1.00  0.00    -0.247 OA
HETATM    2  C   UNL     1     -41.063 -51.634  11.992  1.00  0.00     0.320 C 
HETATM    3  N   UNL     1     -41.859 -51.186  12.996  1.00  0.00    -0.340 N 
HETATM    4  N   UNL     1     -40.519 -50.715  11.149  1.00  0.00    -0.306 N 
HETATM    5  H   UNL     1     -41.836 -50.200  13.212  1.00  0.00     0.164 HD
HETATM    6  H   UNL     1     -39.721 -51.114  10.682  1.00  0.00     0.171 HD
ENDROOT
BRANCH   3   7
HETATM    7  C   UNL     1     -42.350 -52.092  14.025  1.00  0.00     0.158 C 
BRANCH   7   8
HETATM    8  C   UNL     1     -43.425 -53.096  13.542  1.00  0.00     0.167 C 
HETATM    9  C   UNL     1     -44.209 -53.769  14.703  1.00  0.00     0.306 C 
HETATM   10  N   UNL     1     -45.066 -52.782  15.364  1.00  0.00     0.097 N 
HETATM   11  C   UNL     1     -45.934 -53.284  16.421  1.00  0.00     0.273 C 
HETATM   12  C   UNL     1     -45.988 -52.198  14.375  1.00  0.00     0.246 C 
HETATM   13  C   UNL     1     -46.974 -52.164  16.548  1.00  0.00     0.032 C 
HETATM   14  C   UNL     1     -46.815 -51.308  15.284  1.00  0.00     0.040 C 
HETATM   15  C   UNL     1     -45.224 -51.516  13.245  1.00  0.00     0.204 C 
HETATM   16  O   UNL     1     -44.338 -52.457  12.607  1.00  0.00    -0.380 OA
ENDBRANCH   7   8
ENDBRANCH   3   7
BRANCH   4  17
HETATM   17  C   UNL     1     -40.609 -49.312  11.186  1.00  0.00     0.080 A 
HETATM   18  C   UNL     1     -41.705 -48.708  10.552  1.00  0.00     0.035 A 
HETATM   19  C   UNL     1     -41.807 -47.325  10.510  1.00  0.00     0.019 A 
HETATM   20  C   UNL     1     -40.820 -46.593  11.135  1.00  0.00     0.090 A 
HETATM   21  N   UNL     1     -39.757 -47.151  11.759  1.00  0.00    -0.351 N 
HETATM   22  C   UNL     1     -39.609 -48.500  11.774  1.00  0.00     0.130 A 
ATOM     23  HN  UNL     1     -39.067 -46.557  12.219  1.00  0.00     0.166 HD
BRANCH  22  24
HETATM   24  N   UNL     1     -38.517 -49.006  12.470  1.00  0.00    -0.365 N 
HETATM   25  C   UNL     1     -38.606 -49.458  13.856  1.00  0.00     0.124 C 
HETATM   26  C   UNL     1     -37.517 -50.512  14.019  1.00  0.00     0.021 C 
HETATM   27  C   UNL     1     -37.255 -51.007  12.613  1.00  0.00     0.021 C 
HETATM   28  C   UNL     1     -37.518 -49.788  11.737  1.00  0.00     0.124 C 
ENDBRANCH  22  24
ENDBRANCH   4  17
TORSDOF 4
ENDMDL
MODEL 5
REMARK VINA RESULT:      -6.4      1.866      4.185
REMARK  4 active torsions:
REMARK  status: ('A' for Active; 'I' for Inactive)
REMARK       I    between atoms: C_2  and  N_3 
REMARK       I    between atoms: C_2  and  N_14 
REMARK    1  A    between atoms: N_3  and  C_4 
REMARK    2  A    between atoms: C_4  and  C_5 
REMARK    3  A    between atoms: N_14  and  C_15 
REMARK    4  A    between atoms: C_21  and  N_22 
ROOT
HETATM    1  O   UNL     1     -41.468 -50.650  15.772  1.00  0.00    -0.247 OA
HETATM    2  C   UNL     1     -40.767 -50.973  14.815  1.00  0.00     0.320 C 
HETATM    3  N   UNL     1     -40.909 -52.149  14.153  1.00  0.00    -0.340 N 
HETATM    4  N   UNL     1     -39.842 -50.088  14.356  1.00  0.00    -0.306 N 
HETATM    5  H   UNL     1     -40.495 -52.226  13.234  1.00  0.00     0.164 HD
HETATM    6  H   UNL     1     -40.054 -49.166  14.702  1.00  0.00     0.171 HD
ENDROOT
BRANCH   3   7
HETATM    7  C   UNL     1     -41.979 -53.076  14.490  1.00  0.00     0.158 C 
BRANCH   7   8
HETATM    8  C   UNL     1     -42.913 -53.440  13.310  1.00  0.00     0.167 C 
HETATM    9  C   UNL     1     -44.207 -54.180  13.750  1.00  0.00     0.306 C 
HETATM   10  N   UNL     1     -45.080 -53.265  14.488  1.00  0.00     0.097 N 
HETATM   11  C   UNL     1     -46.377 -53.791  14.891  1.00  0.00     0.273 C 
HETATM   12  C   UNL     1     -45.400 -52.107  13.636  1.00  0.00     0.246 C 
HETATM   13  C   UNL     1     -47.172 -52.512  15.183  1.00  0.00     0.032 C 
HETATM   14  C   UNL     1     -46.364 -51.372  14.548  1.00  0.00     0.040 C 
HETATM   15  C   UNL     1     -44.136 -51.362  13.220  1.00  0.00     0.204 C 
HETATM   16  O   UNL     1     -43.239 -52.256  12.531  1.00  0.00    -0.380 OA
ENDBRANCH   7   8
ENDBRANCH   3   7
BRANCH   4  17
HETATM   17  C   UNL     1     -39.012 -50.177  13.224  1.00  0.00     0.080 A 
HETATM   18  C   UNL     1     -37.904 -51.035  13.289  1.00  0.00     0.035 A 
HETATM   19  C   UNL     1     -37.023 -51.111  12.220  1.00  0.00     0.019 A 
HETATM   20  C   UNL     1     -37.301 -50.347  11.106  1.00  0.00     0.090 A 
HETATM   21  N   UNL     1     -38.367 -49.518  11.016  1.00  0.00    -0.351 N 
HETATM   22  C   UNL     1     -39.218 -49.389  12.066  1.00  0.00     0.130 A 
ATOM     23  HN  UNL     1     -38.530 -48.990  10.159  1.00  0.00     0.166 HD
BRANCH  22  24
HETATM   24  N   UNL     1     -40.314 -48.553  11.887  1.00  0.00    -0.365 N 
HETATM   25  C   UNL     1     -40.182 -47.149  11.509  1.00  0.00     0.124 C 
HETATM   26  C   UNL     1     -41.467 -46.796  10.769  1.00  0.00     0.021 C 
HETATM   27  C   UNL     1     -41.996 -48.124  10.272  1.00  0.00     0.021 C 
HETATM   28  C   UNL     1     -41.547 -49.120  11.335  1.00  0.00     0.124 C 
ENDBRANCH  22  24
ENDBRANCH   4  17
TORSDOF 4
ENDMDL
MODEL 6
REMARK VINA RESULT:      -6.3      2.654      3.950
REMARK  4 active torsions:
REMARK  status: ('A' for Active; 'I' for Inactive)
REMARK       I    between atoms: C_2  and  N_3 
REMARK       I    between atoms: C_2  and  N_14 
REMARK    1  A    between atoms: N_3  and  C_4 
REMARK    2  A    between atoms: C_4  and  C_5 
REMARK    3  A    between atoms: N_14  and  C_15 
REMARK    4  A    between atoms: C_21  and  N_22 
ROOT
HETATM    1  O   UNL     1     -42.936 -49.044  14.000  1.00  0.00    -0.247 OA
HETATM    2  C   UNL     1     -42.846 -48.862  12.788  1.00  0.00     0.320 C 
HETATM    3  N   UNL     1     -42.401 -49.809  11.924  1.00  0.00    -0.340 N 
HETATM    4  N   UNL     1     -43.268 -47.675  12.273  1.00  0.00    -0.306 N 
HETATM    5  H   UNL     1     -42.607 -49.687  10.942  1.00  0.00     0.164 HD
HETATM    6  H   UNL     1     -43.860 -47.208  12.940  1.00  0.00     0.171 HD
ENDROOT
BRANCH   3   7
HETATM    7  C   UNL     1     -42.080 -51.153  12.384  1.00  0.00     0.158 C 
BRANCH   7   8
HETATM    8  C   UNL     1     -40.647 -51.627  12.041  1.00  0.00     0.167 C 
HETATM    9  C   UNL     1     -39.582 -51.186  13.083  1.00  0.00     0.306 C 
HETATM   10  N   UNL     1     -39.789 -51.903  14.343  1.00  0.00     0.097 N 
HETATM   11  C   UNL     1     -38.810 -51.661  15.394  1.00  0.00     0.273 C 
HETATM   12  C   UNL     1     -39.713 -53.353  14.095  1.00  0.00     0.246 C 
HETATM   13  C   UNL     1     -39.030 -52.858  16.327  1.00  0.00     0.032 C 
HETATM   14  C   UNL     1     -39.853 -53.867  15.515  1.00  0.00     0.040 C 
HETATM   15  C   UNL     1     -40.771 -53.797  13.090  1.00  0.00     0.204 C 
HETATM   16  O   UNL     1     -40.616 -53.070  11.855  1.00  0.00    -0.380 OA
ENDBRANCH   7   8
ENDBRANCH   3   7
BRANCH   4  17
HETATM   17  C   UNL     1     -43.373 -47.277  10.928  1.00  0.00     0.080 A 
HETATM   18  C   UNL     1     -44.401 -47.838  10.156  1.00  0.00     0.035 A 
HETATM   19  C   UNL     1     -44.509 -47.524   8.810  1.00  0.00     0.019 A 
HETATM   20  C   UNL     1     -43.598 -46.628   8.288  1.00  0.00     0.090 A 
HETATM   21  N   UNL     1     -42.603 -46.067   9.013  1.00  0.00    -0.351 N 
HETATM   22  C   UNL     1     -42.446 -46.395  10.321  1.00  0.00     0.130 A 
ATOM     23  HN  UNL     1     -41.969 -45.398   8.576  1.00  0.00     0.166 HD
BRANCH  22  24
HETATM   24  N   UNL     1     -41.430 -45.749  11.014  1.00  0.00    -0.365 N 
HETATM   25  C   UNL     1     -40.018 -45.909  10.676  1.00  0.00     0.124 C 
HETATM   26  C   UNL     1     -39.336 -44.621  11.122  1.00  0.00     0.021 C 
HETATM   27  C   UNL     1     -40.449 -43.596  11.159  1.00  0.00     0.021 C 
HETATM   28  C   UNL     1     -41.683 -44.404  11.539  1.00  0.00     0.124 C 
ENDBRANCH  22  24
ENDBRANCH   4  17
TORSDOF 4
ENDMDL
MODEL 7
REMARK VINA RESULT:      -6.2      3.506      5.360
REMARK  4 active torsions:
REMARK  status: ('A' for Active; 'I' for Inactive)
REMARK       I    between atoms: C_2  and  N_3 
REMARK       I    between atoms: C_2  and  N_14 
REMARK    1  A    between atoms: N_3  and  C_4 
REMARK    2  A    between atoms: C_4  and  C_5 
REMARK    3  A    between atoms: N_14  and  C_15 
REMARK    4  A    between atoms: C_21  and  N_22 
ROOT
HETATM    1  O   UNL     1     -42.449 -49.119  13.911  1.00  0.00    -0.247 OA
HETATM    2  C   UNL     1     -42.355 -48.775  12.735  1.00  0.00     0.320 C 
HETATM    3  N   UNL     1     -41.522 -49.377  11.848  1.00  0.00    -0.340 N 
HETATM    4  N   UNL     1     -43.167 -47.783  12.280  1.00  0.00    -0.306 N 
HETATM    5  H   UNL     1     -41.694 -49.226  10.864  1.00  0.00     0.164 HD
HETATM    6  H   UNL     1     -43.936 -47.655  12.916  1.00  0.00     0.171 HD
ENDROOT
BRANCH   3   7
HETATM    7  C   UNL     1     -40.740 -50.544  12.226  1.00  0.00     0.158 C 
BRANCH   7   8
HETATM    8  C   UNL     1     -39.228 -50.438  11.911  1.00  0.00     0.167 C 
HETATM    9  C   UNL     1     -38.624 -49.044  12.237  1.00  0.00     0.306 C 
HETATM   10  N   UNL     1     -38.593 -48.840  13.687  1.00  0.00     0.097 N 
HETATM   11  C   UNL     1     -37.969 -47.609  14.154  1.00  0.00     0.273 C 
HETATM   12  C   UNL     1     -37.803 -49.914  14.312  1.00  0.00     0.246 C 
HETATM   13  C   UNL     1     -37.684 -47.926  15.627  1.00  0.00     0.032 C 
HETATM   14  C   UNL     1     -37.828 -49.449  15.755  1.00  0.00     0.040 C 
HETATM   15  C   UNL     1     -38.404 -51.284  14.015  1.00  0.00     0.204 C 
HETATM   16  O   UNL     1     -38.488 -51.490  12.591  1.00  0.00    -0.380 OA
ENDBRANCH   7   8
ENDBRANCH   3   7
BRANCH   4  17
HETATM   17  C   UNL     1     -43.327 -47.298  10.969  1.00  0.00     0.080 A 
HETATM   18  C   UNL     1     -44.360 -47.842  10.191  1.00  0.00     0.035 A 
HETATM   19  C   UNL     1     -44.521 -47.440   8.872  1.00  0.00     0.019 A 
HETATM   20  C   UNL     1     -43.658 -46.480   8.388  1.00  0.00     0.090 A 
HETATM   21  N   UNL     1     -42.659 -45.935   9.120  1.00  0.00    -0.351 N 
HETATM   22  C   UNL     1     -42.450 -46.345  10.397  1.00  0.00     0.130 A 
ATOM     23  HN  UNL     1     -42.062 -45.215   8.712  1.00  0.00     0.166 HD
BRANCH  22  24
HETATM   24  N   UNL     1     -41.434 -45.712  11.103  1.00  0.00    -0.365 N 
HETATM   25  C   UNL     1     -40.022 -45.878  10.773  1.00  0.00     0.124 C 
HETATM   26  C   UNL     1     -39.334 -44.599  11.235  1.00  0.00     0.021 C 
HETATM   27  C   UNL     1     -40.440 -43.567  11.275  1.00  0.00     0.021 C 
HETATM   28  C   UNL     1     -41.682 -44.371  11.639  1.00  0.00     0.124 C 
ENDBRANCH  22  24
ENDBRANCH   4  17
TORSDOF 4
ENDMDL
MODEL 8
REMARK VINA RESULT:      -6.2      2.958      7.504
REMARK  4 active torsions:
REMARK  status: ('A' for Active; 'I' for Inactive)
REMARK       I    between atoms: C_2  and  N_3 
REMARK       I    between atoms: C_2  and  N_14 
REMARK    1  A    between atoms: N_3  and  C_4 
REMARK    2  A    between atoms: C_4  and  C_5 
REMARK    3  A    between atoms: N_14  and  C_15 
REMARK    4  A    between atoms: C_21  and  N_22 
ROOT
HETATM    1  O   UNL     1     -42.140 -48.670  11.253  1.00  0.00    -0.247 OA
HETATM    2  C   UNL     1     -41.940 -49.550  12.088  1.00  0.00     0.320 C 
HETATM    3  N   UNL     1     -41.592 -49.291  13.374  1.00  0.00    -0.340 N 
HETATM    4  N   UNL     1     -42.133 -50.848  11.726  1.00  0.00    -0.306 N 
HETATM    5  H   UNL     1     -41.710 -50.031  14.052  1.00  0.00     0.164 HD
HETATM    6  H   UNL     1     -42.688 -50.887  10.887  1.00  0.00     0.171 HD
ENDROOT
BRANCH   3   7
HETATM    7  C   UNL     1     -41.520 -47.925  13.871  1.00  0.00     0.158 C 
BRANCH   7   8
HETATM    8  C   UNL     1     -40.086 -47.350  13.972  1.00  0.00     0.167 C 
HETATM    9  C   UNL     1     -39.520 -46.854  12.612  1.00  0.00     0.306 C 
HETATM   10  N   UNL     1     -40.242 -45.656  12.179  1.00  0.00     0.097 N 
HETATM   11  C   UNL     1     -39.764 -45.019  10.959  1.00  0.00     0.273 C 
HETATM   12  C   UNL     1     -40.117 -44.613  13.212  1.00  0.00     0.246 C 
HETATM   13  C   UNL     1     -40.380 -43.618  11.059  1.00  0.00     0.032 C 
HETATM   14  C   UNL     1     -40.835 -43.472  12.518  1.00  0.00     0.040 C 
HETATM   15  C   UNL     1     -40.692 -45.086  14.544  1.00  0.00     0.204 C 
HETATM   16  O   UNL     1     -40.028 -46.293  14.969  1.00  0.00    -0.380 OA
ENDBRANCH   7   8
ENDBRANCH   3   7
BRANCH   4  17
HETATM   17  C   UNL     1     -42.082 -52.008  12.519  1.00  0.00     0.080 A 
HETATM   18  C   UNL     1     -40.917 -52.788  12.466  1.00  0.00     0.035 A 
HETATM   19  C   UNL     1     -40.842 -53.973  13.183  1.00  0.00     0.019 A 
HETATM   20  C   UNL     1     -41.928 -54.321  13.958  1.00  0.00     0.090 A 
HETATM   21  N   UNL     1     -43.060 -53.582  14.033  1.00  0.00    -0.351 N 
HETATM   22  C   UNL     1     -43.178 -52.443  13.304  1.00  0.00     0.130 A 
ATOM     23  HN  UNL     1     -43.825 -53.882  14.637  1.00  0.00     0.166 HD
BRANCH  22  24
HETATM   24  N   UNL     1     -44.350 -51.713  13.462  1.00  0.00    -0.365 N 
HETATM   25  C   UNL     1     -45.631 -52.149  12.913  1.00  0.00     0.124 C 
HETATM   26  C   UNL     1     -46.697 -51.544  13.818  1.00  0.00     0.021 C 
HETATM   27  C   UNL     1     -45.981 -51.285  15.127  1.00  0.00     0.021 C 
HETATM   28  C   UNL     1     -44.551 -50.970  14.709  1.00  0.00     0.124 C 
ENDBRANCH  22  24
ENDBRANCH   4  17
TORSDOF 4
ENDMDL
MODEL 9
REMARK VINA RESULT:      -6.1      2.250      4.109
REMARK  4 active torsions:
REMARK  status: ('A' for Active; 'I' for Inactive)
REMARK       I    between atoms: C_2  and  N_3 
REMARK       I    between atoms: C_2  and  N_14 
REMARK    1  A    between atoms: N_3  and  C_4 
REMARK    2  A    between atoms: C_4  and  C_5 
REMARK    3  A    between atoms: N_14  and  C_15 
REMARK    4  A    between atoms: C_21  and  N_22 
ROOT
HETATM    1  O   UNL     1     -40.730 -50.464  11.285  1.00  0.00    -0.247 OA
HETATM    2  C   UNL     1     -41.067 -49.319  11.580  1.00  0.00     0.320 C 
HETATM    3  N   UNL     1     -41.755 -49.013  12.709  1.00  0.00    -0.340 N 
HETATM    4  N   UNL     1     -40.683 -48.297  10.768  1.00  0.00    -0.306 N 
HETATM    5  H   UNL     1     -41.758 -48.049  13.013  1.00  0.00     0.164 HD
HETATM    6  H   UNL     1     -39.929 -48.602  10.174  1.00  0.00     0.171 HD
ENDROOT
BRANCH   3   7
HETATM    7  C   UNL     1     -42.064 -50.034  13.699  1.00  0.00     0.158 C 
BRANCH   7   8
HETATM    8  C   UNL     1     -43.512 -50.579  13.635  1.00  0.00     0.167 C 
HETATM    9  C   UNL     1     -43.601 -52.038  13.109  1.00  0.00     0.306 C 
HETATM   10  N   UNL     1     -43.030 -52.959  14.094  1.00  0.00     0.097 N 
HETATM   11  C   UNL     1     -43.122 -54.379  13.781  1.00  0.00     0.273 C 
HETATM   12  C   UNL     1     -43.751 -52.815  15.370  1.00  0.00     0.246 C 
HETATM   13  C   UNL     1     -42.891 -55.031  15.151  1.00  0.00     0.032 C 
HETATM   14  C   UNL     1     -43.071 -53.904  16.178  1.00  0.00     0.040 C 
HETATM   15  C   UNL     1     -43.647 -51.390  15.903  1.00  0.00     0.204 C 
HETATM   16  O   UNL     1     -44.162 -50.459  14.930  1.00  0.00    -0.380 OA
ENDBRANCH   7   8
ENDBRANCH   3   7
BRANCH   4  17
HETATM   17  C   UNL     1     -40.843 -46.911  10.947  1.00  0.00     0.080 A 
HETATM   18  C   UNL     1     -39.824 -46.214  11.614  1.00  0.00     0.035 A 
HETATM   19  C   UNL     1     -39.963 -44.858  11.870  1.00  0.00     0.019 A 
HETATM   20  C   UNL     1     -41.109 -44.237  11.417  1.00  0.00     0.090 A 
HETATM   21  N   UNL     1     -42.102 -44.885  10.765  1.00  0.00    -0.351 N 
HETATM   22  C   UNL     1     -42.012 -46.221  10.545  1.00  0.00     0.130 A 
ATOM     23  HN  UNL     1     -42.919 -44.369  10.439  1.00  0.00     0.166 HD
BRANCH  22  24
HETATM   24  N   UNL     1     -43.048 -46.813   9.832  1.00  0.00    -0.365 N 
HETATM   25  C   UNL     1     -44.079 -47.628  10.469  1.00  0.00     0.124 C 
HETATM   26  C   UNL     1     -45.314 -47.502   9.584  1.00  0.00     0.021 C 
HETATM   27  C   UNL     1     -45.109 -46.205   8.831  1.00  0.00     0.021 C 
HETATM   28  C   UNL     1     -43.597 -46.104   8.673  1.00  0.00     0.124 C 
ENDBRANCH  22  24
ENDBRANCH   4  17
TORSDOF 4
ENDMDL
