MODEL 1
REMARK VINA RESULT:      -5.9      0.000      0.000
REMARK  6 active torsions:
REMARK  status: ('A' for Active; 'I' for Inactive)
REMARK    1  A    between atoms: C_2  and  N_3 
REMARK    2  A    between atoms: C_2  and  C_13 
REMARK    3  A    between atoms: N_3  and  C_4 
REMARK    4  A    between atoms: C_4  and  C_5 
REMARK    5  A    between atoms: C_5  and  N_6 
REMARK    6  A    between atoms: C_13  and  N_15 
ROOT
HETATM    1  N   UNL     1     -41.999 -50.312  12.574  1.00  0.00     0.091 N 
HETATM    2  H   UNL     1     -42.943 -49.958  12.737  1.00  0.00     0.316 HD
ENDROOT
BRANCH   1   3
HETATM    3  C   UNL     1     -41.377 -49.564  11.452  1.00  0.00     0.240 C 
HETATM    4  C   UNL     1     -39.857 -49.787  11.450  1.00  0.00     0.045 C 
BRANCH   3   5
HETATM    5  C   UNL     1     -41.769 -48.052  11.371  1.00  0.00     0.136 C 
HETATM    6  C   UNL     1     -40.578 -47.122  11.112  1.00  0.00     0.036 C 
BRANCH   5   7
HETATM    7  N   UNL     1     -42.807 -47.813  10.365  1.00  0.00    -0.297 N 
HETATM    8  C   UNL     1     -44.131 -47.546  10.585  1.00  0.00     0.118 A 
HETATM    9  C   UNL     1     -44.718 -47.417   9.343  1.00  0.00    -0.028 A 
HETATM   10  C   UNL     1     -46.128 -47.114   9.023  1.00  0.00     0.051 C 
HETATM   11  C   UNL     1     -43.655 -47.641   8.441  1.00  0.00     0.115 A 
HETATM   12  N   UNL     1     -42.503 -47.920   9.055  1.00  0.00    -0.309 N 
ATOM     13  HN  UNL     1     -41.606 -48.159   8.633  1.00  0.00     0.186 HD
ENDBRANCH   5   7
ENDBRANCH   3   5
ENDBRANCH   1   3
BRANCH   1  14
HETATM   14  C   UNL     1     -42.052 -51.766  12.367  1.00  0.00     0.290 C 
BRANCH  14  15
HETATM   15  C   UNL     1     -42.738 -52.505  13.529  1.00  0.00     0.166 C 
BRANCH  15  16
HETATM   16  N   UNL     1     -44.186 -52.389  13.454  1.00  0.00    -0.267 N 
HETATM   17  C   UNL     1     -44.924 -51.354  13.954  1.00  0.00     0.245 A 
HETATM   18  O   UNL     1     -44.506 -50.355  14.520  1.00  0.00    -0.271 OA
HETATM   19  C   UNL     1     -46.393 -51.629  13.670  1.00  0.00     0.227 A 
HETATM   20  N   UNL     1     -46.303 -52.893  12.998  1.00  0.00    -0.334 N 
HETATM   21  C   UNL     1     -44.999 -53.312  12.866  1.00  0.00     0.325 A 
HETATM   22  H   UNL     1     -47.072 -53.437  12.629  1.00  0.00     0.164 HD
HETATM   23  O   UNL     1     -44.675 -54.351  12.316  1.00  0.00    -0.247 OA
ENDBRANCH  15  16
ENDBRANCH  14  15
ENDBRANCH   1  14
TORSDOF 6
ENDMDL
MODEL 2
REMARK VINA RESULT:      -5.8      2.175      2.881
REMARK  6 active torsions:
REMARK  status: ('A' for Active; 'I' for Inactive)
REMARK    1  A    between atoms: C_2  and  N_3 
REMARK    2  A    between atoms: C_2  and  C_13 
REMARK    3  A    between atoms: N_3  and  C_4 
REMARK    4  A    between atoms: C_4  and  C_5 
REMARK    5  A    between atoms: C_5  and  N_6 
REMARK    6  A    between atoms: C_13  and  N_15 
ROOT
HETATM    1  N   UNL     1     -41.686 -50.103  11.425  1.00  0.00     0.091 N 
HETATM    2  H   UNL     1     -42.077 -50.590  10.619  1.00  0.00     0.316 HD
ENDROOT
BRANCH   1   3
HETATM    3  C   UNL     1     -40.949 -48.898  10.965  1.00  0.00     0.240 C 
HETATM    4  C   UNL     1     -39.600 -48.797  11.694  1.00  0.00     0.045 C 
BRANCH   3   5
HETATM    5  C   UNL     1     -41.767 -47.566  11.014  1.00  0.00     0.136 C 
HETATM    6  C   UNL     1     -40.917 -46.314  10.772  1.00  0.00     0.036 C 
BRANCH   5   7
HETATM    7  N   UNL     1     -42.893 -47.585  10.077  1.00  0.00    -0.297 N 
HETATM    8  C   UNL     1     -44.218 -47.403  10.367  1.00  0.00     0.118 A 
HETATM    9  C   UNL     1     -44.902 -47.529   9.175  1.00  0.00    -0.028 A 
HETATM   10  C   UNL     1     -46.355 -47.406   8.934  1.00  0.00     0.051 C 
HETATM   11  C   UNL     1     -43.888 -47.801   8.230  1.00  0.00     0.115 A 
HETATM   12  N   UNL     1     -42.674 -47.875   8.778  1.00  0.00    -0.309 N 
ATOM     13  HN  UNL     1     -41.789 -48.099   8.322  1.00  0.00     0.186 HD
ENDBRANCH   5   7
ENDBRANCH   3   5
ENDBRANCH   1   3
BRANCH   1  14
HETATM   14  C   UNL     1     -40.871 -51.038  12.213  1.00  0.00     0.290 C 
BRANCH  14  15
HETATM   15  C   UNL     1     -41.128 -52.508  11.839  1.00  0.00     0.166 C 
BRANCH  15  16
HETATM   16  N   UNL     1     -41.265 -53.344  13.021  1.00  0.00    -0.267 N 
HETATM   17  C   UNL     1     -40.231 -53.837  13.766  1.00  0.00     0.245 A 
HETATM   18  O   UNL     1     -39.037 -53.649  13.587  1.00  0.00    -0.271 OA
HETATM   19  C   UNL     1     -40.809 -54.663  14.905  1.00  0.00     0.227 A 
HETATM   20  N   UNL     1     -42.213 -54.536  14.640  1.00  0.00    -0.334 N 
HETATM   21  C   UNL     1     -42.460 -53.744  13.543  1.00  0.00     0.325 A 
HETATM   22  H   UNL     1     -42.969 -54.942  15.178  1.00  0.00     0.164 HD
HETATM   23  O   UNL     1     -43.578 -53.480  13.135  1.00  0.00    -0.247 OA
ENDBRANCH  15  16
ENDBRANCH  14  15
ENDBRANCH   1  14
TORSDOF 6
ENDMDL
MODEL 3
REMARK VINA RESULT:      -5.7      3.027      6.035
REMARK  6 active torsions:
REMARK  status: ('A' for Active; 'I' for Inactive)
REMARK    1  A    between atoms: C_2  and  N_3 
REMARK    2  A    between atoms: C_2  and  C_13 
REMARK    3  A    between atoms: N_3  and  C_4 
REMARK    4  A    between atoms: C_4  and  C_5 
REMARK    5  A    between atoms: C_5  and  N_6 
REMARK    6  A    between atoms: C_13  and  N_15 
ROOT
HETATM    1  N   UNL     1     -39.533 -47.889  11.380  1.00  0.00     0.091 N 
HETATM    2  H   UNL     1     -40.271 -48.241  10.768  1.00  0.00     0.316 HD
ENDROOT
BRANCH   1   3
HETATM    3  C   UNL     1     -39.291 -48.864  12.474  1.00  0.00     0.240 C 
HETATM    4  C   UNL     1     -38.332 -48.261  13.513  1.00  0.00     0.045 C 
BRANCH   3   5
HETATM    5  C   UNL     1     -38.857 -50.290  12.002  1.00  0.00     0.136 C 
HETATM    6  C   UNL     1     -37.523 -50.755  12.597  1.00  0.00     0.036 C 
BRANCH   5   7
HETATM    7  N   UNL     1     -39.891 -51.291  12.273  1.00  0.00    -0.297 N 
HETATM    8  C   UNL     1     -39.929 -52.189  13.305  1.00  0.00     0.118 A 
HETATM    9  C   UNL     1     -41.076 -52.936  13.134  1.00  0.00    -0.028 A 
HETATM   10  C   UNL     1     -41.592 -54.030  13.984  1.00  0.00     0.051 C 
HETATM   11  C   UNL     1     -41.649 -52.414  11.954  1.00  0.00     0.115 A 
HETATM   12  N   UNL     1     -40.915 -51.444  11.407  1.00  0.00    -0.309 N 
ATOM     13  HN  UNL     1     -41.087 -50.937  10.538  1.00  0.00     0.186 HD
ENDBRANCH   5   7
ENDBRANCH   3   5
ENDBRANCH   1   3
BRANCH   1  14
HETATM   14  C   UNL     1     -39.887 -46.541  11.847  1.00  0.00     0.290 C 
BRANCH  14  15
HETATM   15  C   UNL     1     -41.348 -46.444  12.321  1.00  0.00     0.166 C 
BRANCH  15  16
HETATM   16  N   UNL     1     -42.279 -46.735  11.243  1.00  0.00    -0.267 N 
HETATM   17  C   UNL     1     -42.720 -45.837  10.313  1.00  0.00     0.245 A 
HETATM   18  O   UNL     1     -42.400 -44.661  10.212  1.00  0.00    -0.271 OA
HETATM   19  C   UNL     1     -43.683 -46.548   9.375  1.00  0.00     0.227 A 
HETATM   20  N   UNL     1     -43.679 -47.867   9.938  1.00  0.00    -0.334 N 
HETATM   21  C   UNL     1     -42.835 -47.960  11.021  1.00  0.00     0.325 A 
HETATM   22  H   UNL     1     -44.197 -48.669   9.603  1.00  0.00     0.164 HD
HETATM   23  O   UNL     1     -42.656 -48.987  11.653  1.00  0.00    -0.247 OA
ENDBRANCH  15  16
ENDBRANCH  14  15
ENDBRANCH   1  14
TORSDOF 6
ENDMDL
MODEL 4
REMARK VINA RESULT:      -5.7      3.617      6.520
REMARK  6 active torsions:
REMARK  status: ('A' for Active; 'I' for Inactive)
REMARK    1  A    between atoms: C_2  and  N_3 
REMARK    2  A    between atoms: C_2  and  C_13 
REMARK    3  A    between atoms: N_3  and  C_4 
REMARK    4  A    between atoms: C_4  and  C_5 
REMARK    5  A    between atoms: C_5  and  N_6 
REMARK    6  A    between atoms: C_13  and  N_15 
ROOT
HETATM    1  N   UNL     1     -40.860 -53.884  12.445  1.00  0.00     0.091 N 
HETATM    2  H   UNL     1     -41.187 -54.734  11.985  1.00  0.00     0.316 HD
ENDROOT
BRANCH   1   3
HETATM    3  C   UNL     1     -41.373 -53.846  13.838  1.00  0.00     0.240 C 
HETATM    4  C   UNL     1     -40.272 -54.286  14.816  1.00  0.00     0.045 C 
BRANCH   3   5
HETATM    5  C   UNL     1     -42.724 -54.601  14.064  1.00  0.00     0.136 C 
HETATM    6  C   UNL     1     -42.852 -55.226  15.458  1.00  0.00     0.036 C 
BRANCH   5   7
HETATM    7  N   UNL     1     -43.879 -53.738  13.804  1.00  0.00    -0.297 N 
HETATM    8  C   UNL     1     -44.545 -52.948  14.702  1.00  0.00     0.118 A 
HETATM    9  C   UNL     1     -45.571 -52.343  14.006  1.00  0.00    -0.028 A 
HETATM   10  C   UNL     1     -46.577 -51.382  14.508  1.00  0.00     0.051 C 
HETATM   11  C   UNL     1     -45.440 -52.852  12.696  1.00  0.00     0.115 A 
HETATM   12  N   UNL     1     -44.441 -53.729  12.578  1.00  0.00    -0.309 N 
ATOM     13  HN  UNL     1     -44.167 -54.265  11.754  1.00  0.00     0.186 HD
ENDBRANCH   5   7
ENDBRANCH   3   5
ENDBRANCH   1   3
BRANCH   1  14
HETATM   14  C   UNL     1     -41.236 -52.715  11.636  1.00  0.00     0.290 C 
BRANCH  14  15
HETATM   15  C   UNL     1     -41.201 -51.404  12.440  1.00  0.00     0.166 C 
BRANCH  15  16
HETATM   16  N   UNL     1     -40.035 -50.601  12.101  1.00  0.00    -0.267 N 
HETATM   17  C   UNL     1     -38.750 -50.875  12.474  1.00  0.00     0.245 A 
HETATM   18  O   UNL     1     -38.358 -51.833  13.124  1.00  0.00    -0.271 OA
HETATM   19  C   UNL     1     -37.845 -49.787  11.918  1.00  0.00     0.227 A 
HETATM   20  N   UNL     1     -38.806 -48.955  11.253  1.00  0.00    -0.334 N 
HETATM   21  C   UNL     1     -40.082 -49.460  11.357  1.00  0.00     0.325 A 
HETATM   22  H   UNL     1     -38.616 -48.104  10.739  1.00  0.00     0.164 HD
HETATM   23  O   UNL     1     -41.061 -48.933  10.858  1.00  0.00    -0.247 OA
ENDBRANCH  15  16
ENDBRANCH  14  15
ENDBRANCH   1  14
TORSDOF 6
ENDMDL
MODEL 5
REMARK VINA RESULT:      -5.6      3.507      6.528
REMARK  6 active torsions:
REMARK  status: ('A' for Active; 'I' for Inactive)
REMARK    1  A    between atoms: C_2  and  N_3 
REMARK    2  A    between atoms: C_2  and  C_13 
REMARK    3  A    between atoms: N_3  and  C_4 
REMARK    4  A    between atoms: C_4  and  C_5 
REMARK    5  A    between atoms: C_5  and  N_6 
REMARK    6  A    between atoms: C_13  and  N_15 
ROOT
HETATM    1  N   UNL     1     -42.984 -52.575  11.829  1.00  0.00     0.091 N 
HETATM    2  H   UNL     1     -43.208 -51.726  11.310  1.00  0.00     0.316 HD
ENDROOT
BRANCH   1   3
HETATM    3  C   UNL     1     -43.873 -52.679  13.014  1.00  0.00     0.240 C 
HETATM    4  C   UNL     1     -44.286 -54.143  13.235  1.00  0.00     0.045 C 
BRANCH   3   5
HETATM    5  C   UNL     1     -45.090 -51.698  13.013  1.00  0.00     0.136 C 
HETATM    6  C   UNL     1     -46.262 -52.174  12.147  1.00  0.00     0.036 C 
BRANCH   5   7
HETATM    7  N   UNL     1     -45.565 -51.418  14.371  1.00  0.00    -0.297 N 
HETATM    8  C   UNL     1     -46.849 -51.500  14.836  1.00  0.00     0.118 A 
HETATM    9  C   UNL     1     -46.812 -51.123  16.162  1.00  0.00    -0.028 A 
HETATM   10  C   UNL     1     -47.929 -51.053  17.127  1.00  0.00     0.051 C 
HETATM   11  C   UNL     1     -45.452 -50.818  16.390  1.00  0.00     0.115 A 
HETATM   12  N   UNL     1     -44.699 -50.957  15.297  1.00  0.00    -0.309 N 
ATOM     13  HN  UNL     1     -43.704 -50.761  15.188  1.00  0.00     0.186 HD
ENDBRANCH   5   7
ENDBRANCH   3   5
ENDBRANCH   1   3
BRANCH   1  14
HETATM   14  C   UNL     1     -41.551 -52.588  12.153  1.00  0.00     0.290 C 
BRANCH  14  15
HETATM   15  C   UNL     1     -41.117 -51.355  12.964  1.00  0.00     0.166 C 
BRANCH  15  16
HETATM   16  N   UNL     1     -40.007 -50.661  12.329  1.00  0.00    -0.267 N 
HETATM   17  C   UNL     1     -38.684 -50.941  12.521  1.00  0.00     0.245 A 
HETATM   18  O   UNL     1     -38.210 -51.818  13.227  1.00  0.00    -0.271 OA
HETATM   19  C   UNL     1     -37.861 -49.981  11.676  1.00  0.00     0.227 A 
HETATM   20  N   UNL     1     -38.901 -49.204  11.065  1.00  0.00    -0.334 N 
HETATM   21  C   UNL     1     -40.152 -49.631  11.447  1.00  0.00     0.325 A 
HETATM   22  H   UNL     1     -38.781 -48.441  10.412  1.00  0.00     0.164 HD
HETATM   23  O   UNL     1     -41.189 -49.132  11.046  1.00  0.00    -0.247 OA
ENDBRANCH  15  16
ENDBRANCH  14  15
ENDBRANCH   1  14
TORSDOF 6
ENDMDL
MODEL 6
REMARK VINA RESULT:      -5.5      2.482      6.228
REMARK  6 active torsions:
REMARK  status: ('A' for Active; 'I' for Inactive)
REMARK    1  A    between atoms: C_2  and  N_3 
REMARK    2  A    between atoms: C_2  and  C_13 
REMARK    3  A    between atoms: N_3  and  C_4 
REMARK    4  A    between atoms: C_4  and  C_5 
REMARK    5  A    between atoms: C_5  and  N_6 
REMARK    6  A    between atoms: C_13  and  N_15 
ROOT
HETATM    1  N   UNL     1     -41.774 -50.742  11.593  1.00  0.00     0.091 N 
HETATM    2  H   UNL     1     -42.476 -50.957  10.884  1.00  0.00     0.316 HD
ENDROOT
BRANCH   1   3
HETATM    3  C   UNL     1     -42.066 -51.515  12.828  1.00  0.00     0.240 C 
HETATM    4  C   UNL     1     -40.753 -51.951  13.497  1.00  0.00     0.045 C 
BRANCH   3   5
HETATM    5  C   UNL     1     -43.075 -52.695  12.645  1.00  0.00     0.136 C 
HETATM    6  C   UNL     1     -42.650 -53.983  13.358  1.00  0.00     0.036 C 
BRANCH   5   7
HETATM    7  N   UNL     1     -44.428 -52.324  13.065  1.00  0.00    -0.297 N 
HETATM    8  C   UNL     1     -44.848 -52.008  14.329  1.00  0.00     0.118 A 
HETATM    9  C   UNL     1     -46.201 -51.751  14.241  1.00  0.00    -0.028 A 
HETATM   10  C   UNL     1     -47.130 -51.352  15.318  1.00  0.00     0.051 C 
HETATM   11  C   UNL     1     -46.497 -51.957  12.875  1.00  0.00     0.115 A 
HETATM   12  N   UNL     1     -45.434 -52.342  12.167  1.00  0.00    -0.309 N 
ATOM     13  HN  UNL     1     -45.393 -52.592  11.179  1.00  0.00     0.186 HD
ENDBRANCH   5   7
ENDBRANCH   3   5
ENDBRANCH   1   3
BRANCH   1  14
HETATM   14  C   UNL     1     -41.715 -49.288  11.797  1.00  0.00     0.290 C 
BRANCH  14  15
HETATM   15  C   UNL     1     -41.434 -48.519  10.495  1.00  0.00     0.166 C 
BRANCH  15  16
HETATM   16  N   UNL     1     -41.921 -47.150  10.567  1.00  0.00    -0.267 N 
HETATM   17  C   UNL     1     -41.180 -46.065  10.937  1.00  0.00     0.245 A 
HETATM   18  O   UNL     1     -39.997 -46.048  11.245  1.00  0.00    -0.271 OA
HETATM   19  C   UNL     1     -42.070 -44.832  10.884  1.00  0.00     0.227 A 
HETATM   20  N   UNL     1     -43.311 -45.418  10.466  1.00  0.00    -0.334 N 
HETATM   21  C   UNL     1     -43.198 -46.774  10.268  1.00  0.00     0.325 A 
HETATM   22  H   UNL     1     -44.183 -44.932  10.302  1.00  0.00     0.164 HD
HETATM   23  O   UNL     1     -44.117 -47.484   9.898  1.00  0.00    -0.247 OA
ENDBRANCH  15  16
ENDBRANCH  14  15
ENDBRANCH   1  14
TORSDOF 6
ENDMDL
MODEL 7
REMARK VINA RESULT:      -5.5      3.897      6.021
REMARK  6 active torsions:
REMARK  status: ('A' for Active; 'I' for Inactive)
REMARK    1  A    between atoms: C_2  and  N_3 
REMARK    2  A    between atoms: C_2  and  C_13 
REMARK    3  A    between atoms: N_3  and  C_4 
REMARK    4  A    between atoms: C_4  and  C_5 
REMARK    5  A    between atoms: C_5  and  N_6 
REMARK    6  A    between atoms: C_13  and  N_15 
ROOT
HETATM    1  N   UNL     1     -40.277 -51.848  15.165  1.00  0.00     0.091 N 
HETATM    2  H   UNL     1     -40.496 -51.971  16.155  1.00  0.00     0.316 HD
ENDROOT
BRANCH   1   3
HETATM    3  C   UNL     1     -41.218 -52.653  14.346  1.00  0.00     0.240 C 
HETATM    4  C   UNL     1     -40.576 -54.001  13.980  1.00  0.00     0.045 C 
BRANCH   3   5
HETATM    5  C   UNL     1     -41.817 -51.910  13.108  1.00  0.00     0.136 C 
HETATM    6  C   UNL     1     -41.193 -52.337  11.775  1.00  0.00     0.036 C 
BRANCH   5   7
HETATM    7  N   UNL     1     -43.273 -52.055  13.038  1.00  0.00    -0.297 N 
HETATM    8  C   UNL     1     -44.211 -51.391  13.780  1.00  0.00     0.118 A 
HETATM    9  C   UNL     1     -45.441 -51.873  13.381  1.00  0.00    -0.028 A 
HETATM   10  C   UNL     1     -46.781 -51.475  13.862  1.00  0.00     0.051 C 
HETATM   11  C   UNL     1     -45.126 -52.839  12.401  1.00  0.00     0.115 A 
HETATM   12  N   UNL     1     -43.812 -52.982  12.218  1.00  0.00    -0.309 N 
ATOM     13  HN  UNL     1     -43.328 -53.636  11.603  1.00  0.00     0.186 HD
ENDBRANCH   5   7
ENDBRANCH   3   5
ENDBRANCH   1   3
BRANCH   1  14
HETATM   14  C   UNL     1     -38.861 -52.165  14.935  1.00  0.00     0.290 C 
BRANCH  14  15
HETATM   15  C   UNL     1     -38.013 -50.914  14.648  1.00  0.00     0.166 C 
BRANCH  15  16
HETATM   16  N   UNL     1     -38.298 -50.366  13.331  1.00  0.00    -0.267 N 
HETATM   17  C   UNL     1     -39.199 -49.375  13.065  1.00  0.00     0.245 A 
HETATM   18  O   UNL     1     -39.894 -48.772  13.869  1.00  0.00    -0.271 OA
HETATM   19  C   UNL     1     -39.191 -49.107  11.568  1.00  0.00     0.227 A 
HETATM   20  N   UNL     1     -38.215 -50.062  11.131  1.00  0.00    -0.334 N 
HETATM   21  C   UNL     1     -37.690 -50.777  12.182  1.00  0.00     0.325 A 
HETATM   22  H   UNL     1     -37.901 -50.214  10.181  1.00  0.00     0.164 HD
HETATM   23  O   UNL     1     -36.833 -51.635  12.057  1.00  0.00    -0.247 OA
ENDBRANCH  15  16
ENDBRANCH  14  15
ENDBRANCH   1  14
TORSDOF 6
ENDMDL
MODEL 8
REMARK VINA RESULT:      -5.4      1.929      2.811
REMARK  6 active torsions:
REMARK  status: ('A' for Active; 'I' for Inactive)
REMARK    1  A    between atoms: C_2  and  N_3 
REMARK    2  A    between atoms: C_2  and  C_13 
REMARK    3  A    between atoms: N_3  and  C_4 
REMARK    4  A    between atoms: C_4  and  C_5 
REMARK    5  A    between atoms: C_5  and  N_6 
REMARK    6  A    between atoms: C_13  and  N_15 
ROOT
HETATM    1  N   UNL     1     -42.128 -52.386  11.669  1.00  0.00     0.091 N 
HETATM    2  H   UNL     1     -41.629 -53.215  11.344  1.00  0.00     0.316 HD
ENDROOT
BRANCH   1   3
HETATM    3  C   UNL     1     -41.150 -51.318  11.997  1.00  0.00     0.240 C 
HETATM    4  C   UNL     1     -39.990 -51.901  12.821  1.00  0.00     0.045 C 
BRANCH   3   5
HETATM    5  C   UNL     1     -41.768 -50.034  12.643  1.00  0.00     0.136 C 
HETATM    6  C   UNL     1     -41.221 -49.726  14.041  1.00  0.00     0.036 C 
BRANCH   5   7
HETATM    7  N   UNL     1     -41.606 -48.860  11.782  1.00  0.00    -0.297 N 
HETATM    8  C   UNL     1     -40.689 -47.853  11.914  1.00  0.00     0.118 A 
HETATM    9  C   UNL     1     -40.934 -46.962  10.889  1.00  0.00    -0.028 A 
HETATM   10  C   UNL     1     -40.216 -45.709  10.573  1.00  0.00     0.051 C 
HETATM   11  C   UNL     1     -42.034 -47.525  10.205  1.00  0.00     0.115 A 
HETATM   12  N   UNL     1     -42.470 -48.655  10.766  1.00  0.00    -0.309 N 
ATOM     13  HN  UNL     1     -43.268 -49.228  10.491  1.00  0.00     0.186 HD
ENDBRANCH   5   7
ENDBRANCH   3   5
ENDBRANCH   1   3
BRANCH   1  14
HETATM   14  C   UNL     1     -43.010 -52.754  12.786  1.00  0.00     0.290 C 
BRANCH  14  15
HETATM   15  C   UNL     1     -44.296 -53.457  12.318  1.00  0.00     0.166 C 
BRANCH  15  16
HETATM   16  N   UNL     1     -45.292 -53.507  13.376  1.00  0.00    -0.267 N 
HETATM   17  C   UNL     1     -46.200 -52.525  13.656  1.00  0.00     0.245 A 
HETATM   18  O   UNL     1     -46.345 -51.464  13.066  1.00  0.00    -0.271 OA
HETATM   19  C   UNL     1     -47.047 -52.974  14.836  1.00  0.00     0.227 A 
HETATM   20  N   UNL     1     -46.464 -54.256  15.111  1.00  0.00    -0.334 N 
HETATM   21  C   UNL     1     -45.449 -54.557  14.232  1.00  0.00     0.325 A 
HETATM   22  H   UNL     1     -46.744 -54.904  15.836  1.00  0.00     0.164 HD
HETATM   23  O   UNL     1     -44.816 -55.598  14.261  1.00  0.00    -0.247 OA
ENDBRANCH  15  16
ENDBRANCH  14  15
ENDBRANCH   1  14
TORSDOF 6
ENDMDL
MODEL 9
REMARK VINA RESULT:      -5.4      1.850      2.910
REMARK  6 active torsions:
REMARK  status: ('A' for Active; 'I' for Inactive)
REMARK    1  A    between atoms: C_2  and  N_3 
REMARK    2  A    between atoms: C_2  and  C_13 
REMARK    3  A    between atoms: N_3  and  C_4 
REMARK    4  A    between atoms: C_4  and  C_5 
REMARK    5  A    between atoms: C_5  and  N_6 
REMARK    6  A    between atoms: C_13  and  N_15 
ROOT
HETATM    1  N   UNL     1     -41.166 -48.855  11.031  1.00  0.00     0.091 N 
HETATM    2  H   UNL     1     -41.367 -49.278  10.124  1.00  0.00     0.316 HD
ENDROOT
BRANCH   1   3
HETATM    3  C   UNL     1     -41.004 -47.388  10.868  1.00  0.00     0.240 C 
HETATM    4  C   UNL     1     -39.962 -46.859  11.867  1.00  0.00     0.045 C 
BRANCH   3   5
HETATM    5  C   UNL     1     -42.337 -46.571  10.893  1.00  0.00     0.136 C 
HETATM    6  C   UNL     1     -42.136 -45.061  10.723  1.00  0.00     0.036 C 
BRANCH   5   7
HETATM    7  N   UNL     1     -43.290 -47.055   9.891  1.00  0.00    -0.297 N 
HETATM    8  C   UNL     1     -44.594 -47.418  10.093  1.00  0.00     0.118 A 
HETATM    9  C   UNL     1     -45.082 -47.826   8.868  1.00  0.00    -0.028 A 
HETATM   10  C   UNL     1     -46.441 -48.303   8.535  1.00  0.00     0.051 C 
HETATM   11  C   UNL     1     -43.979 -47.682   7.998  1.00  0.00     0.115 A 
HETATM   12  N   UNL     1     -42.880 -47.252   8.621  1.00  0.00    -0.309 N 
ATOM     13  HN  UNL     1     -41.949 -47.108   8.230  1.00  0.00     0.186 HD
ENDBRANCH   5   7
ENDBRANCH   3   5
ENDBRANCH   1   3
BRANCH   1  14
HETATM   14  C   UNL     1     -40.003 -49.522  11.634  1.00  0.00     0.290 C 
BRANCH  14  15
HETATM   15  C   UNL     1     -40.352 -50.251  12.943  1.00  0.00     0.166 C 
BRANCH  15  16
HETATM   16  N   UNL     1     -41.524 -51.098  12.786  1.00  0.00    -0.267 N 
HETATM   17  C   UNL     1     -41.507 -52.410  12.408  1.00  0.00     0.245 A 
HETATM   18  O   UNL     1     -40.525 -53.095  12.160  1.00  0.00    -0.271 OA
HETATM   19  C   UNL     1     -42.940 -52.917  12.362  1.00  0.00     0.227 A 
HETATM   20  N   UNL     1     -43.654 -51.732  12.742  1.00  0.00    -0.334 N 
HETATM   21  C   UNL     1     -42.804 -50.683  13.004  1.00  0.00     0.325 A 
HETATM   22  H   UNL     1     -44.656 -51.636  12.840  1.00  0.00     0.164 HD
HETATM   23  O   UNL     1     -43.181 -49.578  13.357  1.00  0.00    -0.247 OA
ENDBRANCH  15  16
ENDBRANCH  14  15
ENDBRANCH   1  14
TORSDOF 6
ENDMDL
