MODEL 1
REMARK VINA RESULT:      -5.5      0.000      0.000
REMARK  2 active torsions:
REMARK  status: ('A' for Active; 'I' for Inactive)
REMARK    1  A    between atoms: C_2  and  C_5 
REMARK    2  A    between atoms: C_9  and  C_12 
ROOT
HETATM    1  C   UNL     1     -43.373 -47.474  10.328  1.00  0.00     0.105 A 
HETATM    2  N   UNL     1     -43.588 -46.823  11.481  1.00  0.00    -0.287 N 
ATOM      3  HN  UNL     1     -44.284 -46.109  11.698  1.00  0.00     0.188 HD
HETATM    4  N   UNL     1     -42.648 -47.357  12.273  1.00  0.00    -0.285 N 
HETATM    5  C   UNL     1     -41.903 -48.293  11.612  1.00  0.00     0.128 A 
HETATM    6  N   UNL     1     -42.365 -48.406  10.385  1.00  0.00    -0.331 N 
ATOM      7  HN  UNL     1     -42.050 -49.037   9.649  1.00  0.00     0.168 HD
HETATM    8  H   UNL     1     -42.522 -47.019  13.224  1.00  0.00     0.188 HD
ENDROOT
BRANCH   5   9
HETATM    9  C   UNL     1     -40.733 -48.984  12.239  1.00  0.00     0.218 C 
HETATM   10  C   UNL     1     -40.089 -50.071  11.346  1.00  0.00     0.309 C 
HETATM   11  N   UNL     1     -40.983 -51.234  11.131  1.00  0.00     0.088 N 
HETATM   12  C   UNL     1     -41.372 -51.764  12.456  1.00  0.00     0.295 C 
HETATM   13  H   UNL     1     -40.459 -51.962  10.637  1.00  0.00     0.316 HD
HETATM   14  C   UNL     1     -41.987 -50.690  13.368  1.00  0.00     0.198 C 
HETATM   15  O   UNL     1     -41.132 -49.546  13.507  1.00  0.00    -0.375 OA
ENDBRANCH   5   9
BRANCH   1  16
HETATM   16  C   UNL     1     -44.122 -47.156   9.059  1.00  0.00     0.009 C 
HETATM   17  C   UNL     1     -43.385 -47.774   7.853  1.00  0.00     0.023 C 
HETATM   18  C   UNL     1     -44.226 -45.633   8.860  1.00  0.00     0.023 C 
HETATM   19  C   UNL     1     -45.551 -47.736   9.096  1.00  0.00     0.023 C 
ENDBRANCH   1  16
TORSDOF 2
ENDMDL
MODEL 2
REMARK VINA RESULT:      -5.4      2.166      5.575
REMARK  2 active torsions:
REMARK  status: ('A' for Active; 'I' for Inactive)
REMARK    1  A    between atoms: C_2  and  C_5 
REMARK    2  A    between atoms: C_9  and  C_12 
ROOT
HETATM    1  C   UNL     1     -39.707 -49.620  11.750  1.00  0.00     0.105 A 
HETATM    2  N   UNL     1     -39.950 -49.881  10.457  1.00  0.00    -0.287 N 
ATOM      3  HN  UNL     1     -39.378 -50.391   9.784  1.00  0.00     0.188 HD
HETATM    4  N   UNL     1     -41.143 -49.295  10.281  1.00  0.00    -0.285 N 
HETATM    5  C   UNL     1     -41.591 -48.708  11.432  1.00  0.00     0.128 A 
HETATM    6  N   UNL     1     -40.710 -48.929  12.386  1.00  0.00    -0.331 N 
ATOM      7  HN  UNL     1     -40.761 -48.652  13.365  1.00  0.00     0.168 HD
HETATM    8  H   UNL     1     -41.578 -49.276   9.362  1.00  0.00     0.188 HD
ENDROOT
BRANCH   5   9
HETATM    9  C   UNL     1     -42.858 -47.913  11.494  1.00  0.00     0.218 C 
HETATM   10  C   UNL     1     -43.338 -47.383  10.122  1.00  0.00     0.309 C 
HETATM   11  N   UNL     1     -42.425 -46.360   9.557  1.00  0.00     0.088 N 
HETATM   12  C   UNL     1     -42.281 -45.275  10.551  1.00  0.00     0.295 C 
HETATM   13  H   UNL     1     -42.856 -45.967   8.716  1.00  0.00     0.316 HD
HETATM   14  C   UNL     1     -41.832 -45.788  11.929  1.00  0.00     0.198 C 
HETATM   15  O   UNL     1     -42.693 -46.823  12.425  1.00  0.00    -0.375 OA
ENDBRANCH   5   9
BRANCH   1  16
HETATM   16  C   UNL     1     -38.412 -49.989  12.428  1.00  0.00     0.009 C 
HETATM   17  C   UNL     1     -37.320 -50.230  11.366  1.00  0.00     0.023 C 
HETATM   18  C   UNL     1     -38.588 -51.267  13.269  1.00  0.00     0.023 C 
HETATM   19  C   UNL     1     -37.931 -48.859  13.362  1.00  0.00     0.023 C 
ENDBRANCH   1  16
TORSDOF 2
ENDMDL
MODEL 3
REMARK VINA RESULT:      -5.2      5.091      5.955
REMARK  2 active torsions:
REMARK  status: ('A' for Active; 'I' for Inactive)
REMARK    1  A    between atoms: C_2  and  C_5 
REMARK    2  A    between atoms: C_9  and  C_12 
ROOT
HETATM    1  C   UNL     1     -44.591 -52.587  13.498  1.00  0.00     0.105 A 
HETATM    2  N   UNL     1     -44.561 -52.637  12.159  1.00  0.00    -0.287 N 
ATOM      3  HN  UNL     1     -45.283 -52.377  11.487  1.00  0.00     0.188 HD
HETATM    4  N   UNL     1     -43.331 -53.121  11.933  1.00  0.00    -0.285 N 
HETATM    5  C   UNL     1     -42.656 -53.347  13.101  1.00  0.00     0.128 A 
HETATM    6  N   UNL     1     -43.426 -52.986  14.106  1.00  0.00    -0.331 N 
ATOM      7  HN  UNL     1     -43.208 -52.999  15.102  1.00  0.00     0.168 HD
HETATM    8  H   UNL     1     -43.023 -53.326  10.986  1.00  0.00     0.188 HD
ENDROOT
BRANCH   5   9
HETATM    9  C   UNL     1     -41.293 -53.964  13.140  1.00  0.00     0.218 C 
HETATM   10  C   UNL     1     -40.720 -54.140  14.566  1.00  0.00     0.309 C 
HETATM   11  N   UNL     1     -40.429 -52.843  15.225  1.00  0.00     0.088 N 
HETATM   12  C   UNL     1     -39.515 -52.079  14.351  1.00  0.00     0.295 C 
HETATM   13  H   UNL     1     -39.947 -53.028  16.109  1.00  0.00     0.316 HD
HETATM   14  C   UNL     1     -40.056 -51.920  12.920  1.00  0.00     0.198 C 
HETATM   15  O   UNL     1     -40.392 -53.182  12.327  1.00  0.00    -0.375 OA
ENDBRANCH   5   9
BRANCH   1  16
HETATM   16  C   UNL     1     -45.825 -52.195  14.273  1.00  0.00     0.009 C 
HETATM   17  C   UNL     1     -46.489 -53.457  14.862  1.00  0.00     0.023 C 
HETATM   18  C   UNL     1     -46.832 -51.476  13.357  1.00  0.00     0.023 C 
HETATM   19  C   UNL     1     -45.473 -51.250  15.440  1.00  0.00     0.023 C 
ENDBRANCH   1  16
TORSDOF 2
ENDMDL
MODEL 4
REMARK VINA RESULT:      -5.2      4.478      5.563
REMARK  2 active torsions:
REMARK  status: ('A' for Active; 'I' for Inactive)
REMARK    1  A    between atoms: C_2  and  C_5 
REMARK    2  A    between atoms: C_9  and  C_12 
ROOT
HETATM    1  C   UNL     1     -39.570 -50.846  12.148  1.00  0.00     0.105 A 
HETATM    2  N   UNL     1     -40.358 -50.636  11.083  1.00  0.00    -0.287 N 
ATOM      3  HN  UNL     1     -40.234 -49.985  10.308  1.00  0.00     0.188 HD
HETATM    4  N   UNL     1     -41.352 -51.507  11.306  1.00  0.00    -0.285 N 
HETATM    5  C   UNL     1     -41.157 -52.210  12.462  1.00  0.00     0.128 A 
HETATM    6  N   UNL     1     -40.017 -51.828  12.998  1.00  0.00    -0.331 N 
ATOM      7  HN  UNL     1     -39.570 -52.179  13.845  1.00  0.00     0.168 HD
HETATM    8  H   UNL     1     -42.152 -51.548  10.680  1.00  0.00     0.188 HD
ENDROOT
BRANCH   5   9
HETATM    9  C   UNL     1     -42.158 -53.190  12.991  1.00  0.00     0.218 C 
HETATM   10  C   UNL     1     -43.572 -53.039  12.382  1.00  0.00     0.309 C 
HETATM   11  N   UNL     1     -44.229 -51.770  12.777  1.00  0.00     0.088 N 
HETATM   12  C   UNL     1     -44.252 -51.706  14.254  1.00  0.00     0.295 C 
HETATM   13  H   UNL     1     -45.196 -51.786  12.443  1.00  0.00     0.316 HD
HETATM   14  C   UNL     1     -42.858 -51.883  14.878  1.00  0.00     0.198 C 
HETATM   15  O   UNL     1     -42.216 -53.085  14.430  1.00  0.00    -0.375 OA
ENDBRANCH   5   9
BRANCH   1  16
HETATM   16  C   UNL     1     -38.338 -50.022  12.427  1.00  0.00     0.009 C 
HETATM   17  C   UNL     1     -38.751 -48.591  12.830  1.00  0.00     0.023 C 
HETATM   18  C   UNL     1     -37.440 -49.954  11.179  1.00  0.00     0.023 C 
HETATM   19  C   UNL     1     -37.514 -50.626  13.583  1.00  0.00     0.023 C 
ENDBRANCH   1  16
TORSDOF 2
ENDMDL
MODEL 5
REMARK VINA RESULT:      -5.2      2.728      5.604
REMARK  2 active torsions:
REMARK  status: ('A' for Active; 'I' for Inactive)
REMARK    1  A    between atoms: C_2  and  C_5 
REMARK    2  A    between atoms: C_9  and  C_12 
ROOT
HETATM    1  C   UNL     1     -39.573 -49.276  11.486  1.00  0.00     0.105 A 
HETATM    2  N   UNL     1     -40.354 -50.002  10.673  1.00  0.00    -0.287 N 
ATOM      3  HN  UNL     1     -40.289 -50.991  10.430  1.00  0.00     0.188 HD
HETATM    4  N   UNL     1     -41.243 -49.087  10.262  1.00  0.00    -0.285 N 
HETATM    5  C   UNL     1     -40.997 -47.861  10.815  1.00  0.00     0.128 A 
HETATM    6  N   UNL     1     -39.959 -47.964  11.620  1.00  0.00    -0.331 N 
ATOM      7  HN  UNL     1     -39.542 -47.241  12.204  1.00  0.00     0.168 HD
HETATM    8  H   UNL     1     -41.954 -49.329   9.577  1.00  0.00     0.188 HD
ENDROOT
BRANCH   5   9
HETATM    9  C   UNL     1     -41.789 -46.641  10.462  1.00  0.00     0.218 C 
HETATM   10  C   UNL     1     -41.106 -45.309  10.854  1.00  0.00     0.309 C 
HETATM   11  N   UNL     1     -41.011 -45.131  12.323  1.00  0.00     0.088 N 
HETATM   12  C   UNL     1     -42.372 -45.243  12.889  1.00  0.00     0.295 C 
HETATM   13  H   UNL     1     -40.662 -44.188  12.515  1.00  0.00     0.316 HD
HETATM   14  C   UNL     1     -43.077 -46.549  12.484  1.00  0.00     0.198 C 
HETATM   15  O   UNL     1     -43.099 -46.732  11.062  1.00  0.00    -0.375 OA
ENDBRANCH   5   9
BRANCH   1  16
HETATM   16  C   UNL     1     -38.332 -49.833  12.139  1.00  0.00     0.009 C 
HETATM   17  C   UNL     1     -37.237 -50.046  11.074  1.00  0.00     0.023 C 
HETATM   18  C   UNL     1     -38.640 -51.178  12.822  1.00  0.00     0.023 C 
HETATM   19  C   UNL     1     -37.782 -48.864  13.206  1.00  0.00     0.023 C 
ENDBRANCH   1  16
TORSDOF 2
ENDMDL
MODEL 6
REMARK VINA RESULT:      -5.1      2.184      3.336
REMARK  2 active torsions:
REMARK  status: ('A' for Active; 'I' for Inactive)
REMARK    1  A    between atoms: C_2  and  C_5 
REMARK    2  A    between atoms: C_9  and  C_12 
ROOT
HETATM    1  C   UNL     1     -41.300 -48.961  11.193  1.00  0.00     0.105 A 
HETATM    2  N   UNL     1     -40.006 -49.176  10.916  1.00  0.00    -0.287 N 
ATOM      3  HN  UNL     1     -39.304 -48.523  10.566  1.00  0.00     0.188 HD
HETATM    4  N   UNL     1     -39.876 -50.475  11.220  1.00  0.00    -0.285 N 
HETATM    5  C   UNL     1     -41.054 -51.010  11.663  1.00  0.00     0.128 A 
HETATM    6  N   UNL     1     -41.964 -50.059  11.683  1.00  0.00    -0.331 N 
ATOM      7  HN  UNL     1     -42.934 -50.122  11.991  1.00  0.00     0.168 HD
HETATM    8  H   UNL     1     -38.994 -50.957  11.061  1.00  0.00     0.188 HD
ENDROOT
BRANCH   5   9
HETATM    9  C   UNL     1     -41.209 -52.461  11.991  1.00  0.00     0.218 C 
HETATM   10  C   UNL     1     -42.495 -52.795  12.784  1.00  0.00     0.309 C 
HETATM   11  N   UNL     1     -42.482 -52.227  14.154  1.00  0.00     0.088 N 
HETATM   12  C   UNL     1     -41.265 -52.713  14.840  1.00  0.00     0.295 C 
HETATM   13  H   UNL     1     -43.297 -52.580  14.662  1.00  0.00     0.316 HD
HETATM   14  C   UNL     1     -39.980 -52.415  14.051  1.00  0.00     0.198 C 
HETATM   15  O   UNL     1     -40.043 -52.917  12.708  1.00  0.00    -0.375 OA
ENDBRANCH   5   9
BRANCH   1  16
HETATM   16  C   UNL     1     -41.986 -47.646  10.919  1.00  0.00     0.009 C 
HETATM   17  C   UNL     1     -42.773 -47.737   9.596  1.00  0.00     0.023 C 
HETATM   18  C   UNL     1     -40.952 -46.510  10.813  1.00  0.00     0.023 C 
HETATM   19  C   UNL     1     -42.979 -47.291  12.044  1.00  0.00     0.023 C 
ENDBRANCH   1  16
TORSDOF 2
ENDMDL
MODEL 7
REMARK VINA RESULT:      -5.1      2.269      3.332
REMARK  2 active torsions:
REMARK  status: ('A' for Active; 'I' for Inactive)
REMARK    1  A    between atoms: C_2  and  C_5 
REMARK    2  A    between atoms: C_9  and  C_12 
ROOT
HETATM    1  C   UNL     1     -41.647 -48.418  11.191  1.00  0.00     0.105 A 
HETATM    2  N   UNL     1     -41.212 -48.968  10.048  1.00  0.00    -0.287 N 
ATOM      3  HN  UNL     1     -41.366 -48.663   9.086  1.00  0.00     0.188 HD
HETATM    4  N   UNL     1     -40.521 -50.023  10.500  1.00  0.00    -0.285 N 
HETATM    5  C   UNL     1     -40.545 -50.095  11.865  1.00  0.00     0.128 A 
HETATM    6  N   UNL     1     -41.229 -49.068  12.327  1.00  0.00    -0.331 N 
ATOM      7  HN  UNL     1     -41.406 -48.815  13.298  1.00  0.00     0.168 HD
HETATM    8  H   UNL     1     -40.103 -50.684   9.849  1.00  0.00     0.188 HD
ENDROOT
BRANCH   5   9
HETATM    9  C   UNL     1     -39.923 -51.223  12.627  1.00  0.00     0.218 C 
HETATM   10  C   UNL     1     -39.998 -51.065  14.164  1.00  0.00     0.309 C 
HETATM   11  N   UNL     1     -39.171 -49.938  14.661  1.00  0.00     0.088 N 
HETATM   12  C   UNL     1     -37.784 -50.146  14.192  1.00  0.00     0.295 C 
HETATM   13  H   UNL     1     -39.170 -49.962  15.684  1.00  0.00     0.316 HD
HETATM   14  C   UNL     1     -37.694 -50.334  12.669  1.00  0.00     0.198 C 
HETATM   15  O   UNL     1     -38.552 -51.386  12.204  1.00  0.00    -0.375 OA
ENDBRANCH   5   9
BRANCH   1  16
HETATM   16  C   UNL     1     -42.578 -47.232  11.224  1.00  0.00     0.009 C 
HETATM   17  C   UNL     1     -43.861 -47.556  10.433  1.00  0.00     0.023 C 
HETATM   18  C   UNL     1     -41.900 -45.997  10.602  1.00  0.00     0.023 C 
HETATM   19  C   UNL     1     -42.983 -46.882  12.671  1.00  0.00     0.023 C 
ENDBRANCH   1  16
TORSDOF 2
ENDMDL
MODEL 8
REMARK VINA RESULT:      -5.1      1.754      2.787
REMARK  2 active torsions:
REMARK  status: ('A' for Active; 'I' for Inactive)
REMARK    1  A    between atoms: C_2  and  C_5 
REMARK    2  A    between atoms: C_9  and  C_12 
ROOT
HETATM    1  C   UNL     1     -41.410 -48.116  11.084  1.00  0.00     0.105 A 
HETATM    2  N   UNL     1     -41.054 -48.818   9.999  1.00  0.00    -0.287 N 
ATOM      3  HN  UNL     1     -41.030 -48.526   9.022  1.00  0.00     0.188 HD
HETATM    4  N   UNL     1     -40.740 -50.005  10.535  1.00  0.00    -0.285 N 
HETATM    5  C   UNL     1     -40.902 -50.005  11.893  1.00  0.00     0.128 A 
HETATM    6  N   UNL     1     -41.297 -48.806  12.267  1.00  0.00    -0.331 N 
ATOM      7  HN  UNL     1     -41.477 -48.469  13.212  1.00  0.00     0.168 HD
HETATM    8  H   UNL     1     -40.475 -50.786   9.940  1.00  0.00     0.188 HD
ENDROOT
BRANCH   5   9
HETATM    9  C   UNL     1     -40.700 -51.227  12.731  1.00  0.00     0.218 C 
HETATM   10  C   UNL     1     -40.969 -52.556  11.986  1.00  0.00     0.309 C 
HETATM   11  N   UNL     1     -42.399 -52.728  11.630  1.00  0.00     0.088 N 
HETATM   12  C   UNL     1     -43.197 -52.616  12.870  1.00  0.00     0.295 C 
HETATM   13  H   UNL     1     -42.530 -53.669  11.250  1.00  0.00     0.316 HD
HETATM   14  C   UNL     1     -42.919 -51.313  13.639  1.00  0.00     0.198 C 
HETATM   15  O   UNL     1     -41.523 -51.137  13.914  1.00  0.00    -0.375 OA
ENDBRANCH   5   9
BRANCH   1  16
HETATM   16  C   UNL     1     -41.957 -46.712  11.006  1.00  0.00     0.009 C 
HETATM   17  C   UNL     1     -40.817 -45.729  10.669  1.00  0.00     0.023 C 
HETATM   18  C   UNL     1     -42.593 -46.306  12.348  1.00  0.00     0.023 C 
HETATM   19  C   UNL     1     -43.033 -46.594   9.907  1.00  0.00     0.023 C 
ENDBRANCH   1  16
TORSDOF 2
ENDMDL
MODEL 9
REMARK VINA RESULT:      -4.9      3.033      5.134
REMARK  2 active torsions:
REMARK  status: ('A' for Active; 'I' for Inactive)
REMARK    1  A    between atoms: C_2  and  C_5 
REMARK    2  A    between atoms: C_9  and  C_12 
ROOT
HETATM    1  C   UNL     1     -44.099 -52.077  12.878  1.00  0.00     0.105 A 
HETATM    2  N   UNL     1     -43.683 -52.951  11.949  1.00  0.00    -0.287 N 
ATOM      3  HN  UNL     1     -44.194 -53.717  11.510  1.00  0.00     0.188 HD
HETATM    4  N   UNL     1     -42.418 -52.553  11.751  1.00  0.00    -0.285 N 
HETATM    5  C   UNL     1     -42.098 -51.480  12.534  1.00  0.00     0.128 A 
HETATM    6  N   UNL     1     -43.160 -51.141  13.235  1.00  0.00    -0.331 N 
ATOM      7  HN  UNL     1     -43.261 -50.366  13.890  1.00  0.00     0.168 HD
HETATM    8  H   UNL     1     -41.808 -53.069  11.122  1.00  0.00     0.188 HD
ENDROOT
BRANCH   5   9
HETATM    9  C   UNL     1     -40.724 -50.887  12.571  1.00  0.00     0.218 C 
HETATM   10  C   UNL     1     -40.502 -49.879  13.723  1.00  0.00     0.309 C 
HETATM   11  N   UNL     1     -41.305 -48.643  13.559  1.00  0.00     0.088 N 
HETATM   12  C   UNL     1     -40.982 -48.057  12.240  1.00  0.00     0.295 C 
HETATM   13  H   UNL     1     -41.026 -47.974  14.283  1.00  0.00     0.316 HD
HETATM   14  C   UNL     1     -41.170 -49.056  11.086  1.00  0.00     0.198 C 
HETATM   15  O   UNL     1     -40.436 -50.270  11.299  1.00  0.00    -0.375 OA
ENDBRANCH   5   9
BRANCH   1  16
HETATM   16  C   UNL     1     -45.458 -52.161  13.527  1.00  0.00     0.009 C 
HETATM   17  C   UNL     1     -45.763 -53.626  13.903  1.00  0.00     0.023 C 
HETATM   18  C   UNL     1     -46.548 -51.649  12.568  1.00  0.00     0.023 C 
HETATM   19  C   UNL     1     -45.512 -51.315  14.816  1.00  0.00     0.023 C 
ENDBRANCH   1  16
TORSDOF 2
ENDMDL
