MODEL 1
REMARK VINA RESULT:      -5.5      0.000      0.000
REMARK  8 active torsions:
REMARK  status: ('A' for Active; 'I' for Inactive)
REMARK    1  A    between atoms: C_2  and  C_3 
REMARK    2  A    between atoms: C_3  and  C_4 
REMARK    3  A    between atoms: C_3  and  C_6 
REMARK    4  A    between atoms: C_6  and  N_7 
REMARK    5  A    between atoms: N_7  and  C_8 
REMARK    6  A    between atoms: C_8  and  C_9 
REMARK    7  A    between atoms: C_9  and  O_11 
REMARK    8  A    between atoms: C_9  and  C_12 
ROOT
HETATM    1  C   UNL     1     -40.897 -49.209  11.317  1.00  0.00     0.110 C 
HETATM    2  C   UNL     1     -39.634 -48.863  12.121  1.00  0.00     0.053 C 
ENDROOT
BRANCH   1   3
HETATM    3  C   UNL     1     -41.943 -49.907  12.267  1.00  0.00     0.311 C 
BRANCH   3   4
HETATM    4  N   UNL     1     -42.334 -51.297  11.965  1.00  0.00     0.087 N 
HETATM    5  H   UNL     1     -43.030 -51.310  11.222  1.00  0.00     0.316 HD
BRANCH   4   6
HETATM    6  C   UNL     1     -42.835 -52.033  13.123  1.00  0.00     0.274 C 
BRANCH   6   7
HETATM    7  C   UNL     1     -44.162 -52.763  12.825  1.00  0.00     0.013 C 
BRANCH   7   8
HETATM    8  C   UNL     1     -44.056 -54.258  13.208  1.00  0.00     0.002 C 
HETATM    9  C   UNL     1     -45.358 -54.864  13.708  1.00  0.00     0.005 C 
ENDBRANCH   7   8
BRANCH   7  10
HETATM   10  C   UNL     1     -45.336 -52.030  13.517  1.00  0.00     0.002 C 
HETATM   11  C   UNL     1     -46.467 -51.591  12.593  1.00  0.00     0.005 C 
ENDBRANCH   7  10
ENDBRANCH   6   7
ENDBRANCH   4   6
ENDBRANCH   3   4
ENDBRANCH   1   3
BRANCH   1  12
HETATM   12  O   UNL     1     -40.434 -50.142  10.317  1.00  0.00    -0.383 OA
HETATM   13  H   UNL     1     -39.560 -50.453  10.597  1.00  0.00     0.211 HD
ENDBRANCH   1  12
BRANCH   1  14
HETATM   14  C   UNL     1     -41.471 -47.976  10.668  1.00  0.00     0.011 A 
HETATM   15  C   UNL     1     -40.936 -46.663  10.669  1.00  0.00     0.119 A 
HETATM   16  N   UNL     1     -41.698 -45.787  10.008  1.00  0.00    -0.310 N 
HETATM   17  N   UNL     1     -42.744 -46.527   9.604  1.00  0.00    -0.307 N 
ATOM     18  HN  UNL     1     -41.526 -44.795   9.848  1.00  0.00     0.186 HD
HETATM   19  C   UNL     1     -43.825 -45.914   8.872  1.00  0.00     0.177 C 
HETATM   20  C   UNL     1     -42.651 -47.838   9.961  1.00  0.00     0.121 A 
ENDBRANCH   1  14
TORSDOF 8
ENDMDL
MODEL 2
REMARK VINA RESULT:      -5.4      3.783      4.765
REMARK  8 active torsions:
REMARK  status: ('A' for Active; 'I' for Inactive)
REMARK    1  A    between atoms: C_2  and  C_3 
REMARK    2  A    between atoms: C_3  and  C_4 
REMARK    3  A    between atoms: C_3  and  C_6 
REMARK    4  A    between atoms: C_6  and  N_7 
REMARK    5  A    between atoms: N_7  and  C_8 
REMARK    6  A    between atoms: C_8  and  C_9 
REMARK    7  A    between atoms: C_9  and  O_11 
REMARK    8  A    between atoms: C_9  and  C_12 
ROOT
HETATM    1  C   UNL     1     -40.975 -52.945  12.608  1.00  0.00     0.110 C 
HETATM    2  C   UNL     1     -41.072 -54.163  13.541  1.00  0.00     0.053 C 
ENDROOT
BRANCH   1   3
HETATM    3  C   UNL     1     -42.388 -52.254  12.507  1.00  0.00     0.311 C 
BRANCH   3   4
HETATM    4  N   UNL     1     -43.475 -52.993  11.838  1.00  0.00     0.087 N 
HETATM    5  H   UNL     1     -43.588 -52.660  10.883  1.00  0.00     0.316 HD
BRANCH   4   6
HETATM    6  C   UNL     1     -44.755 -52.923  12.541  1.00  0.00     0.274 C 
BRANCH   6   7
HETATM    7  C   UNL     1     -44.578 -52.714  14.060  1.00  0.00     0.013 C 
BRANCH   7   8
HETATM    8  C   UNL     1     -45.277 -51.411  14.512  1.00  0.00     0.002 C 
HETATM    9  C   UNL     1     -46.794 -51.454  14.415  1.00  0.00     0.005 C 
ENDBRANCH   7   8
BRANCH   7  10
HETATM   10  C   UNL     1     -45.057 -53.970  14.827  1.00  0.00     0.002 C 
HETATM   11  C   UNL     1     -45.530 -55.128  13.955  1.00  0.00     0.005 C 
ENDBRANCH   7  10
ENDBRANCH   6   7
ENDBRANCH   4   6
ENDBRANCH   3   4
ENDBRANCH   1   3
BRANCH   1  12
HETATM   12  O   UNL     1     -40.605 -53.507  11.331  1.00  0.00    -0.383 OA
HETATM   13  H   UNL     1     -41.139 -53.061  10.655  1.00  0.00     0.211 HD
ENDBRANCH   1  12
BRANCH   1  14
HETATM   14  C   UNL     1     -39.919 -51.986  13.092  1.00  0.00     0.011 A 
HETATM   15  C   UNL     1     -39.071 -52.121  14.220  1.00  0.00     0.119 A 
HETATM   16  N   UNL     1     -38.247 -51.083  14.382  1.00  0.00    -0.310 N 
HETATM   17  N   UNL     1     -38.582 -50.258  13.377  1.00  0.00    -0.307 N 
ATOM     18  HN  UNL     1     -37.533 -50.949  15.098  1.00  0.00     0.186 HD
HETATM   19  C   UNL     1     -37.923 -48.984  13.234  1.00  0.00     0.177 C 
HETATM   20  C   UNL     1     -39.564 -50.754  12.573  1.00  0.00     0.121 A 
ENDBRANCH   1  14
TORSDOF 8
ENDMDL
MODEL 3
REMARK VINA RESULT:      -5.3      3.564      4.853
REMARK  8 active torsions:
REMARK  status: ('A' for Active; 'I' for Inactive)
REMARK    1  A    between atoms: C_2  and  C_3 
REMARK    2  A    between atoms: C_3  and  C_4 
REMARK    3  A    between atoms: C_3  and  C_6 
REMARK    4  A    between atoms: C_6  and  N_7 
REMARK    5  A    between atoms: N_7  and  C_8 
REMARK    6  A    between atoms: C_8  and  C_9 
REMARK    7  A    between atoms: C_9  and  O_11 
REMARK    8  A    between atoms: C_9  and  C_12 
ROOT
HETATM    1  C   UNL     1     -41.099 -52.782  12.472  1.00  0.00     0.110 C 
HETATM    2  C   UNL     1     -41.153 -54.016  13.387  1.00  0.00     0.053 C 
ENDROOT
BRANCH   1   3
HETATM    3  C   UNL     1     -42.529 -52.121  12.406  1.00  0.00     0.311 C 
BRANCH   3   4
HETATM    4  N   UNL     1     -43.671 -52.976  12.033  1.00  0.00     0.087 N 
HETATM    5  H   UNL     1     -44.032 -52.699  11.123  1.00  0.00     0.316 HD
BRANCH   4   6
HETATM    6  C   UNL     1     -44.753 -52.975  13.015  1.00  0.00     0.274 C 
BRANCH   6   7
HETATM    7  C   UNL     1     -45.781 -51.853  12.752  1.00  0.00     0.013 C 
BRANCH   7   8
HETATM    8  C   UNL     1     -46.787 -52.285  11.661  1.00  0.00     0.002 C 
HETATM    9  C   UNL     1     -47.491 -51.127  10.970  1.00  0.00     0.005 C 
ENDBRANCH   7   8
BRANCH   7  10
HETATM   10  C   UNL     1     -46.454 -51.429  14.080  1.00  0.00     0.002 C 
HETATM   11  C   UNL     1     -45.505 -51.206  15.252  1.00  0.00     0.005 C 
ENDBRANCH   7  10
ENDBRANCH   6   7
ENDBRANCH   4   6
ENDBRANCH   3   4
ENDBRANCH   1   3
BRANCH   1  12
HETATM   12  O   UNL     1     -40.740 -53.317  11.179  1.00  0.00    -0.383 OA
HETATM   13  H   UNL     1     -40.669 -54.279  11.276  1.00  0.00     0.211 HD
ENDBRANCH   1  12
BRANCH   1  14
HETATM   14  C   UNL     1     -40.056 -51.807  12.952  1.00  0.00     0.011 A 
HETATM   15  C   UNL     1     -39.568 -50.655  12.284  1.00  0.00     0.119 A 
HETATM   16  N   UNL     1     -38.631 -50.006  12.979  1.00  0.00    -0.310 N 
HETATM   17  N   UNL     1     -38.488 -50.754  14.085  1.00  0.00    -0.307 N 
ATOM     18  HN  UNL     1     -38.141 -49.146  12.730  1.00  0.00     0.186 HD
HETATM   19  C   UNL     1     -37.518 -50.388  15.088  1.00  0.00     0.177 C 
HETATM   20  C   UNL     1     -39.321 -51.831  14.123  1.00  0.00     0.121 A 
ENDBRANCH   1  14
TORSDOF 8
ENDMDL
MODEL 4
REMARK VINA RESULT:      -5.2      2.179      3.182
REMARK  8 active torsions:
REMARK  status: ('A' for Active; 'I' for Inactive)
REMARK    1  A    between atoms: C_2  and  C_3 
REMARK    2  A    between atoms: C_3  and  C_4 
REMARK    3  A    between atoms: C_3  and  C_6 
REMARK    4  A    between atoms: C_6  and  N_7 
REMARK    5  A    between atoms: N_7  and  C_8 
REMARK    6  A    between atoms: C_8  and  C_9 
REMARK    7  A    between atoms: C_9  and  O_11 
REMARK    8  A    between atoms: C_9  and  C_12 
ROOT
HETATM    1  C   UNL     1     -41.005 -52.204  12.326  1.00  0.00     0.110 C 
HETATM    2  C   UNL     1     -40.357 -52.564  13.672  1.00  0.00     0.053 C 
ENDROOT
BRANCH   1   3
HETATM    3  C   UNL     1     -42.569 -52.362  12.444  1.00  0.00     0.311 C 
BRANCH   3   4
HETATM    4  N   UNL     1     -43.209 -51.994  13.721  1.00  0.00     0.087 N 
HETATM    5  H   UNL     1     -43.421 -52.832  14.259  1.00  0.00     0.316 HD
BRANCH   4   6
HETATM    6  C   UNL     1     -44.418 -51.188  13.564  1.00  0.00     0.274 C 
BRANCH   6   7
HETATM    7  C   UNL     1     -45.703 -52.039  13.638  1.00  0.00     0.013 C 
BRANCH   7   8
HETATM    8  C   UNL     1     -46.801 -51.294  14.433  1.00  0.00     0.002 C 
HETATM    9  C   UNL     1     -47.197 -51.976  15.734  1.00  0.00     0.005 C 
ENDBRANCH   7   8
BRANCH   7  10
HETATM   10  C   UNL     1     -46.147 -52.455  12.215  1.00  0.00     0.002 C 
HETATM   11  C   UNL     1     -47.210 -51.568  11.577  1.00  0.00     0.005 C 
ENDBRANCH   7  10
ENDBRANCH   6   7
ENDBRANCH   4   6
ENDBRANCH   3   4
ENDBRANCH   1   3
BRANCH   1  12
HETATM   12  O   UNL     1     -40.475 -53.182  11.406  1.00  0.00    -0.383 OA
HETATM   13  H   UNL     1     -40.621 -52.842  10.510  1.00  0.00     0.211 HD
ENDBRANCH   1  12
BRANCH   1  14
HETATM   14  C   UNL     1     -40.616 -50.811  11.902  1.00  0.00     0.011 A 
HETATM   15  C   UNL     1     -39.311 -50.291  11.716  1.00  0.00     0.119 A 
HETATM   16  N   UNL     1     -39.307 -49.008  11.346  1.00  0.00    -0.310 N 
HETATM   17  N   UNL     1     -40.611 -48.686  11.324  1.00  0.00    -0.307 N 
ATOM     18  HN  UNL     1     -38.506 -48.413  11.132  1.00  0.00     0.186 HD
HETATM   19  C   UNL     1     -41.021 -47.343  10.996  1.00  0.00     0.177 C 
HETATM   20  C   UNL     1     -41.432 -49.727  11.636  1.00  0.00     0.121 A 
ENDBRANCH   1  14
TORSDOF 8
ENDMDL
MODEL 5
REMARK VINA RESULT:      -5.2      3.523      4.285
REMARK  8 active torsions:
REMARK  status: ('A' for Active; 'I' for Inactive)
REMARK    1  A    between atoms: C_2  and  C_3 
REMARK    2  A    between atoms: C_3  and  C_4 
REMARK    3  A    between atoms: C_3  and  C_6 
REMARK    4  A    between atoms: C_6  and  N_7 
REMARK    5  A    between atoms: N_7  and  C_8 
REMARK    6  A    between atoms: C_8  and  C_9 
REMARK    7  A    between atoms: C_9  and  O_11 
REMARK    8  A    between atoms: C_9  and  C_12 
ROOT
HETATM    1  C   UNL     1     -41.188 -53.003  12.540  1.00  0.00     0.110 C 
HETATM    2  C   UNL     1     -41.308 -54.121  13.587  1.00  0.00     0.053 C 
ENDROOT
BRANCH   1   3
HETATM    3  C   UNL     1     -42.631 -52.525  12.122  1.00  0.00     0.311 C 
BRANCH   3   4
HETATM    4  N   UNL     1     -43.219 -51.383  12.846  1.00  0.00     0.087 N 
HETATM    5  H   UNL     1     -42.495 -50.883  13.357  1.00  0.00     0.316 HD
BRANCH   4   6
HETATM    6  C   UNL     1     -44.299 -51.756  13.758  1.00  0.00     0.274 C 
BRANCH   6   7
HETATM    7  C   UNL     1     -45.434 -52.517  13.039  1.00  0.00     0.013 C 
BRANCH   7   8
HETATM    8  C   UNL     1     -45.936 -53.691  13.912  1.00  0.00     0.002 C 
HETATM    9  C   UNL     1     -45.122 -54.967  13.765  1.00  0.00     0.005 C 
ENDBRANCH   7   8
BRANCH   7  10
HETATM   10  C   UNL     1     -46.554 -51.532  12.627  1.00  0.00     0.002 C 
HETATM   11  C   UNL     1     -47.202 -51.807  11.274  1.00  0.00     0.005 C 
ENDBRANCH   7  10
ENDBRANCH   6   7
ENDBRANCH   4   6
ENDBRANCH   3   4
ENDBRANCH   1   3
BRANCH   1  12
HETATM   12  O   UNL     1     -40.532 -53.637  11.420  1.00  0.00    -0.383 OA
HETATM   13  H   UNL     1     -39.702 -53.161  11.266  1.00  0.00     0.211 HD
ENDBRANCH   1  12
BRANCH   1  14
HETATM   14  C   UNL     1     -40.354 -51.865  13.068  1.00  0.00     0.011 A 
HETATM   15  C   UNL     1     -40.075 -51.545  14.420  1.00  0.00     0.119 A 
HETATM   16  N   UNL     1     -39.309 -50.459  14.553  1.00  0.00    -0.310 N 
HETATM   17  N   UNL     1     -39.117 -50.056  13.287  1.00  0.00    -0.307 N 
ATOM     18  HN  UNL     1     -38.954 -50.037  15.412  1.00  0.00     0.186 HD
HETATM   19  C   UNL     1     -38.350 -48.865  13.014  1.00  0.00     0.177 C 
HETATM   20  C   UNL     1     -39.709 -50.864  12.364  1.00  0.00     0.121 A 
ENDBRANCH   1  14
TORSDOF 8
ENDMDL
MODEL 6
REMARK VINA RESULT:      -4.9      1.213      2.311
REMARK  8 active torsions:
REMARK  status: ('A' for Active; 'I' for Inactive)
REMARK    1  A    between atoms: C_2  and  C_3 
REMARK    2  A    between atoms: C_3  and  C_4 
REMARK    3  A    between atoms: C_3  and  C_6 
REMARK    4  A    between atoms: C_6  and  N_7 
REMARK    5  A    between atoms: N_7  and  C_8 
REMARK    6  A    between atoms: C_8  and  C_9 
REMARK    7  A    between atoms: C_9  and  O_11 
REMARK    8  A    between atoms: C_9  and  C_12 
ROOT
HETATM    1  C   UNL     1     -40.425 -49.254  11.429  1.00  0.00     0.110 C 
HETATM    2  C   UNL     1     -39.001 -49.409  11.987  1.00  0.00     0.053 C 
ENDROOT
BRANCH   1   3
HETATM    3  C   UNL     1     -41.461 -49.769  12.500  1.00  0.00     0.311 C 
BRANCH   3   4
HETATM    4  N   UNL     1     -42.532 -50.676  12.048  1.00  0.00     0.087 N 
HETATM    5  H   UNL     1     -43.428 -50.193  12.063  1.00  0.00     0.316 HD
BRANCH   4   6
HETATM    6  C   UNL     1     -42.623 -51.912  12.823  1.00  0.00     0.274 C 
BRANCH   6   7
HETATM    7  C   UNL     1     -43.761 -51.867  13.866  1.00  0.00     0.013 C 
BRANCH   7   8
HETATM    8  C   UNL     1     -44.939 -51.011  13.344  1.00  0.00     0.002 C 
HETATM    9  C   UNL     1     -46.311 -51.584  13.663  1.00  0.00     0.005 C 
ENDBRANCH   7   8
BRANCH   7  10
HETATM   10  C   UNL     1     -44.171 -53.304  14.265  1.00  0.00     0.002 C 
HETATM   11  C   UNL     1     -43.086 -54.363  14.101  1.00  0.00     0.005 C 
ENDBRANCH   7  10
ENDBRANCH   6   7
ENDBRANCH   4   6
ENDBRANCH   3   4
ENDBRANCH   1   3
BRANCH   1  12
HETATM   12  O   UNL     1     -40.444 -50.112  10.268  1.00  0.00    -0.383 OA
HETATM   13  H   UNL     1     -39.796 -49.759   9.638  1.00  0.00     0.211 HD
ENDBRANCH   1  12
BRANCH   1  14
HETATM   14  C   UNL     1     -40.692 -47.824  11.037  1.00  0.00     0.011 A 
HETATM   15  C   UNL     1     -41.768 -47.320  10.264  1.00  0.00     0.119 A 
HETATM   16  N   UNL     1     -41.708 -45.998  10.086  1.00  0.00    -0.310 N 
HETATM   17  N   UNL     1     -40.575 -45.648  10.717  1.00  0.00    -0.307 N 
ATOM     18  HN  UNL     1     -42.366 -45.396   9.590  1.00  0.00     0.186 HD
HETATM   19  C   UNL     1     -40.140 -44.273  10.717  1.00  0.00     0.177 C 
HETATM   20  C   UNL     1     -39.939 -46.697  11.310  1.00  0.00     0.121 A 
ENDBRANCH   1  14
TORSDOF 8
ENDMDL
MODEL 7
REMARK VINA RESULT:      -4.9      1.779      2.722
REMARK  8 active torsions:
REMARK  status: ('A' for Active; 'I' for Inactive)
REMARK    1  A    between atoms: C_2  and  C_3 
REMARK    2  A    between atoms: C_3  and  C_4 
REMARK    3  A    between atoms: C_3  and  C_6 
REMARK    4  A    between atoms: C_6  and  N_7 
REMARK    5  A    between atoms: N_7  and  C_8 
REMARK    6  A    between atoms: C_8  and  C_9 
REMARK    7  A    between atoms: C_9  and  O_11 
REMARK    8  A    between atoms: C_9  and  C_12 
ROOT
HETATM    1  C   UNL     1     -40.497 -49.493  11.615  1.00  0.00     0.110 C 
HETATM    2  C   UNL     1     -39.614 -48.587  12.488  1.00  0.00     0.053 C 
ENDROOT
BRANCH   1   3
HETATM    3  C   UNL     1     -40.862 -50.797  12.423  1.00  0.00     0.311 C 
BRANCH   3   4
HETATM    4  N   UNL     1     -41.343 -51.968  11.668  1.00  0.00     0.087 N 
HETATM    5  H   UNL     1     -41.571 -51.699  10.713  1.00  0.00     0.316 HD
BRANCH   4   6
HETATM    6  C   UNL     1     -42.490 -52.634  12.281  1.00  0.00     0.274 C 
BRANCH   6   7
HETATM    7  C   UNL     1     -42.080 -53.531  13.468  1.00  0.00     0.013 C 
BRANCH   7   8
HETATM    8  C   UNL     1     -43.285 -54.371  13.954  1.00  0.00     0.002 C 
HETATM    9  C   UNL     1     -42.994 -55.225  15.178  1.00  0.00     0.005 C 
ENDBRANCH   7   8
BRANCH   7  10
HETATM   10  C   UNL     1     -40.847 -54.385  13.086  1.00  0.00     0.002 C 
HETATM   11  C   UNL     1     -39.613 -54.177  13.957  1.00  0.00     0.005 C 
ENDBRANCH   7  10
ENDBRANCH   6   7
ENDBRANCH   4   6
ENDBRANCH   3   4
ENDBRANCH   1   3
BRANCH   1  12
HETATM   12  O   UNL     1     -39.657 -49.826  10.489  1.00  0.00    -0.383 OA
HETATM   13  H   UNL     1     -38.934 -49.180  10.469  1.00  0.00     0.211 HD
ENDBRANCH   1  12
BRANCH   1  14
HETATM   14  C   UNL     1     -41.730 -48.757  11.159  1.00  0.00     0.011 A 
HETATM   15  C   UNL     1     -42.996 -48.701  11.794  1.00  0.00     0.119 A 
HETATM   16  N   UNL     1     -43.886 -47.967  11.123  1.00  0.00    -0.310 N 
HETATM   17  N   UNL     1     -43.207 -47.572  10.034  1.00  0.00    -0.307 N 
ATOM     18  HN  UNL     1     -44.852 -47.756  11.376  1.00  0.00     0.186 HD
HETATM   19  C   UNL     1     -43.856 -46.771   9.025  1.00  0.00     0.177 C 
HETATM   20  C   UNL     1     -41.916 -48.005  10.013  1.00  0.00     0.121 A 
ENDBRANCH   1  14
TORSDOF 8
ENDMDL
MODEL 8
REMARK VINA RESULT:      -4.8      3.590      6.365
REMARK  8 active torsions:
REMARK  status: ('A' for Active; 'I' for Inactive)
REMARK    1  A    between atoms: C_2  and  C_3 
REMARK    2  A    between atoms: C_3  and  C_4 
REMARK    3  A    between atoms: C_3  and  C_6 
REMARK    4  A    between atoms: C_6  and  N_7 
REMARK    5  A    between atoms: N_7  and  C_8 
REMARK    6  A    between atoms: C_8  and  C_9 
REMARK    7  A    between atoms: C_9  and  O_11 
REMARK    8  A    between atoms: C_9  and  C_12 
ROOT
HETATM    1  C   UNL     1     -41.703 -51.886  12.414  1.00  0.00     0.110 C 
HETATM    2  C   UNL     1     -41.464 -50.413  12.048  1.00  0.00     0.053 C 
ENDROOT
BRANCH   1   3
HETATM    3  C   UNL     1     -40.780 -52.274  13.632  1.00  0.00     0.311 C 
BRANCH   3   4
HETATM    4  N   UNL     1     -39.321 -52.144  13.465  1.00  0.00     0.087 N 
HETATM    5  H   UNL     1     -38.876 -53.054  13.561  1.00  0.00     0.316 HD
BRANCH   4   6
HETATM    6  C   UNL     1     -38.705 -51.192  14.388  1.00  0.00     0.274 C 
BRANCH   6   7
HETATM    7  C   UNL     1     -37.546 -50.410  13.735  1.00  0.00     0.013 C 
BRANCH   7   8
HETATM    8  C   UNL     1     -37.282 -50.929  12.302  1.00  0.00     0.002 C 
HETATM    9  C   UNL     1     -37.437 -49.872  11.219  1.00  0.00     0.005 C 
ENDBRANCH   7   8
BRANCH   7  10
HETATM   10  C   UNL     1     -37.831 -48.890  13.797  1.00  0.00     0.002 C 
HETATM   11  C   UNL     1     -39.208 -48.504  14.327  1.00  0.00     0.005 C 
ENDBRANCH   7  10
ENDBRANCH   6   7
ENDBRANCH   4   6
ENDBRANCH   3   4
ENDBRANCH   1   3
BRANCH   1  12
HETATM   12  O   UNL     1     -41.299 -52.613  11.234  1.00  0.00    -0.383 OA
HETATM   13  H   UNL     1     -40.426 -52.993  11.416  1.00  0.00     0.211 HD
ENDBRANCH   1  12
BRANCH   1  14
HETATM   14  C   UNL     1     -43.158 -52.131  12.717  1.00  0.00     0.011 A 
HETATM   15  C   UNL     1     -43.937 -53.269  12.386  1.00  0.00     0.119 A 
HETATM   16  N   UNL     1     -45.205 -53.170  12.790  1.00  0.00    -0.310 N 
HETATM   17  N   UNL     1     -45.258 -51.953  13.356  1.00  0.00    -0.307 N 
ATOM     18  HN  UNL     1     -45.955 -53.855  12.693  1.00  0.00     0.186 HD
HETATM   19  C   UNL     1     -46.502 -51.457  13.893  1.00  0.00     0.177 C 
HETATM   20  C   UNL     1     -44.064 -51.299  13.349  1.00  0.00     0.121 A 
ENDBRANCH   1  14
TORSDOF 8
ENDMDL
MODEL 9
REMARK VINA RESULT:      -4.8      3.110      7.417
REMARK  8 active torsions:
REMARK  status: ('A' for Active; 'I' for Inactive)
REMARK    1  A    between atoms: C_2  and  C_3 
REMARK    2  A    between atoms: C_3  and  C_4 
REMARK    3  A    between atoms: C_3  and  C_6 
REMARK    4  A    between atoms: C_6  and  N_7 
REMARK    5  A    between atoms: N_7  and  C_8 
REMARK    6  A    between atoms: C_8  and  C_9 
REMARK    7  A    between atoms: C_9  and  O_11 
REMARK    8  A    between atoms: C_9  and  C_12 
ROOT
HETATM    1  C   UNL     1     -41.200 -52.900  12.612  1.00  0.00     0.110 C 
HETATM    2  C   UNL     1     -42.690 -53.262  12.504  1.00  0.00     0.053 C 
ENDROOT
BRANCH   1   3
HETATM    3  C   UNL     1     -41.054 -51.336  12.746  1.00  0.00     0.311 C 
BRANCH   3   4
HETATM    4  N   UNL     1     -41.492 -50.500  11.613  1.00  0.00     0.087 N 
HETATM    5  H   UNL     1     -41.929 -51.079  10.900  1.00  0.00     0.316 HD
BRANCH   4   6
HETATM    6  C   UNL     1     -40.419 -49.707  11.017  1.00  0.00     0.274 C 
BRANCH   6   7
HETATM    7  C   UNL     1     -39.332 -49.327  12.045  1.00  0.00     0.013 C 
BRANCH   7   8
HETATM    8  C   UNL     1     -37.934 -49.751  11.537  1.00  0.00     0.002 C 
HETATM    9  C   UNL     1     -37.323 -50.916  12.300  1.00  0.00     0.005 C 
ENDBRANCH   7   8
BRANCH   7  10
HETATM   10  C   UNL     1     -39.432 -47.821  12.390  1.00  0.00     0.002 C 
HETATM   11  C   UNL     1     -40.201 -46.971  11.385  1.00  0.00     0.005 C 
ENDBRANCH   7  10
ENDBRANCH   6   7
ENDBRANCH   4   6
ENDBRANCH   3   4
ENDBRANCH   1   3
BRANCH   1  12
HETATM   12  O   UNL     1     -40.636 -53.346  11.360  1.00  0.00    -0.383 OA
HETATM   13  H   UNL     1     -41.250 -53.996  10.984  1.00  0.00     0.211 HD
ENDBRANCH   1  12
BRANCH   1  14
HETATM   14  C   UNL     1     -40.559 -53.621  13.770  1.00  0.00     0.011 A 
HETATM   15  C   UNL     1     -39.184 -53.665  14.113  1.00  0.00     0.119 A 
HETATM   16  N   UNL     1     -38.940 -54.405  15.198  1.00  0.00    -0.310 N 
HETATM   17  N   UNL     1     -40.154 -54.868  15.539  1.00  0.00    -0.307 N 
ATOM     18  HN  UNL     1     -38.046 -54.577  15.657  1.00  0.00     0.186 HD
HETATM   19  C   UNL     1     -40.300 -55.754  16.668  1.00  0.00     0.177 C 
HETATM   20  C   UNL     1     -41.153 -54.421  14.728  1.00  0.00     0.121 A 
ENDBRANCH   1  14
TORSDOF 8
ENDMDL
