REMARK  Name = 
REMARK  7 active torsions:
REMARK  status: ('A' for Active; 'I' for Inactive)
REMARK    1  A    between atoms: N_1  and  C_3
REMARK    2  A    between atoms: C_13  and  N_15
REMARK    3  A    between atoms: C_14  and  C_24
REMARK    4  A    between atoms: C_16  and  C_26
REMARK    5  A    between atoms: C_19  and  O_23
REMARK    6  A    between atoms: C_19  and  C_28
REMARK    7  A    between atoms: O_23  and  C_24
REMARK                            x       y       z     vdW  Elec       q    Type
REMARK                         _______ _______ _______ _____ _____    ______ ____
ROOT
ATOM      1  C   UNL     1       2.467   1.867   0.000  0.00  0.00    +0.240 C 
ATOM      2  O   UNL     1       1.983   2.533   0.000  0.00  0.00    -0.329 OA
ATOM      3  C   UNL     1       2.467   3.200   0.000  0.00  0.00    +0.193 C 
ATOM      4  C   UNL     1       3.250   2.946   0.000  0.00  0.00    +0.212 C 
ATOM      5  O   UNL     1       4.037   3.200   0.000  0.00  0.00    -0.199 OA
ATOM      6  S   UNL     1       4.521   2.533   0.000  0.00  0.00    +0.212 S 
ATOM      7  O   UNL     1       5.133   1.983   0.000  0.00  0.00    -0.118 OA
ATOM      8  O   UNL     1       5.133   3.087   0.000  0.00  0.00    -0.118 OA
ATOM      9  O   UNL     1       4.037   1.867   0.000  0.00  0.00    -0.197 OA
ATOM     10  C   UNL     1       3.250   2.121   0.000  0.00  0.00    +0.228 C 
ENDROOT
BRANCH   1  11
ATOM     11  N   UNL     1       2.212   1.083   0.000  0.00  0.00    -0.269 N 
ATOM     12  C   UNL     1       2.696   0.412   0.000  0.00  0.00    +0.182 A 
ATOM     13  N   UNL     1       2.212  -0.254   0.000  0.00  0.00    -0.219 NA
ATOM     14  C   UNL     1       1.425   0.000   0.000  0.00  0.00    +0.150 A 
ATOM     15  C   UNL     1       0.713  -0.412   0.000  0.00  0.00    +0.177 A 
ATOM     16  N   UNL     1       0.000   0.000   0.000  0.00  0.00    -0.205 NA
ATOM     17  C   UNL     1       0.000   0.825   0.000  0.00  0.00    +0.202 A 
ATOM     18  N   UNL     1       0.713   1.238   0.000  0.00  0.00    -0.205 NA
ATOM     19  C   UNL     1       1.425   0.825   0.000  0.00  0.00    +0.169 A 
BRANCH  15  20
ATOM     20  N   UNL     1       0.713  -1.238   0.000  0.00  0.00    -0.155 NA
ATOM     21  C   UNL     1       1.425  -1.650   0.000  0.00  0.00    +0.270 C 
ATOM     22  O   UNL     1       2.142  -1.238   0.000  0.00  0.00    -0.268 OA
BRANCH  21  23
ATOM     23  C   UNL     1       1.425  -2.475   0.000  0.00  0.00    +0.055 A 
ATOM     24  C   UNL     1       0.713  -2.888   0.000  0.00  0.00    +0.005 A 
ATOM     25  C   UNL     1       0.713  -3.712   0.000  0.00  0.00    +0.000 A 
ATOM     26  C   UNL     1       1.425  -4.125   0.000  0.00  0.00    +0.000 A 
ATOM     27  C   UNL     1       2.142  -3.712   0.000  0.00  0.00    +0.000 A 
ATOM     28  C   UNL     1       2.142  -2.888   0.000  0.00  0.00    +0.005 A 
ENDBRANCH  21  23
ENDBRANCH  15  20
ENDBRANCH   1  11
BRANCH   3  29
ATOM     29  C   UNL     1       2.212   3.987   0.000  0.00  0.00    +0.241 C 
BRANCH  29  30
ATOM     30  O   UNL     1       2.763   4.596   0.000  0.00  0.00    -0.443 OA
BRANCH  30  31
ATOM     31  C   UNL     1       2.508   5.379   0.000  0.00  0.00    +0.341 C 
ATOM     32  O   UNL     1       1.700   5.550   0.000  0.00  0.00    -0.245 OA
BRANCH  31  33
ATOM     33  C   UNL     1       3.062   5.992   0.000  0.00  0.00    +0.076 A 
ATOM     34  C   UNL     1       3.867   5.821   0.000  0.00  0.00    +0.006 A 
ATOM     35  C   UNL     1       4.421   6.433   0.000  0.00  0.00    +0.000 A 
ATOM     36  C   UNL     1       4.167   7.221   0.000  0.00  0.00    +0.000 A 
ATOM     37  C   UNL     1       3.358   7.392   0.000  0.00  0.00    +0.000 A 
ATOM     38  C   UNL     1       2.804   6.779   0.000  0.00  0.00    +0.006 A 
ENDBRANCH  31  33
ENDBRANCH  30  31
ENDBRANCH  29  30
ENDBRANCH   3  29
TORSDOF 7
