MODEL 1
REMARK VINA RESULT:      -6.6      0.000      0.000
REMARK  2 active torsions:
REMARK  status: ('A' for Active; 'I' for Inactive)
REMARK    1  A    between atoms: C_8  and  N_9 
REMARK       I    between atoms: N_9  and  C_10 
REMARK       I    between atoms: C_10  and  N_12 
REMARK    2  A    between atoms: N_12  and  C_13 
ROOT
HETATM    1  N   UNL     1     -42.867 -53.085  12.545  1.00  0.00    -0.295 N 
HETATM    2  C   UNL     1     -41.725 -52.422  12.181  1.00  0.00     0.322 C 
HETATM    3  O   UNL     1     -40.713 -53.054  11.898  1.00  0.00    -0.247 OA
HETATM    4  N   UNL     1     -41.846 -51.069  12.038  1.00  0.00    -0.338 N 
HETATM    5  H   UNL     1     -42.799 -54.087  12.447  1.00  0.00     0.172 HD
HETATM    6  H   UNL     1     -42.657 -50.675  12.509  1.00  0.00     0.164 HD
ENDROOT
BRANCH   1   7
HETATM    7  C   UNL     1     -44.085 -52.523  12.934  1.00  0.00     0.109 A 
HETATM    8  N   UNL     1     -45.091 -52.485  12.033  1.00  0.00    -0.346 N 
HETATM    9  C   UNL     1     -46.273 -51.945  12.394  1.00  0.00     0.007 A 
ATOM     10  HN  UNL     1     -44.959 -52.859  11.093  1.00  0.00     0.167 HD
HETATM   11  C   UNL     1     -46.503 -51.462  13.673  1.00  0.00     0.031 A 
HETATM   12  C   UNL     1     -47.315 -51.893  11.322  1.00  0.00     0.068 C 
HETATM   13  C   UNL     1     -45.468 -51.523  14.612  1.00  0.00    -0.057 A 
HETATM   14  C   UNL     1     -45.688 -51.061  16.022  1.00  0.00     0.048 C 
HETATM   15  C   UNL     1     -44.228 -52.038  14.224  1.00  0.00     0.055 A 
ENDBRANCH   1   7
BRANCH   4  16
HETATM   16  C   UNL     1     -40.865 -50.176  11.448  1.00  0.00     0.091 C 
HETATM   17  C   UNL     1     -39.701 -49.910  12.413  1.00  0.00     0.051 C 
HETATM   18  C   UNL     1     -40.037 -48.888  13.497  1.00  0.00     0.171 C 
HETATM   19  O   UNL     1     -40.635 -47.700  12.976  1.00  0.00    -0.381 OA
HETATM   20  C   UNL     1     -41.821 -47.921  12.198  1.00  0.00     0.055 C 
HETATM   21  C   UNL     1     -42.972 -48.425  13.087  1.00  0.00     0.045 C 
HETATM   22  C   UNL     1     -42.249 -46.560  11.630  1.00  0.00     0.045 C 
HETATM   23  C   UNL     1     -41.473 -48.840  11.015  1.00  0.00     0.062 C 
ENDBRANCH   4  16
TORSDOF 2
ENDMDL
MODEL 2
REMARK VINA RESULT:      -6.1      1.491      2.481
REMARK  2 active torsions:
REMARK  status: ('A' for Active; 'I' for Inactive)
REMARK    1  A    between atoms: C_8  and  N_9 
REMARK       I    between atoms: N_9  and  C_10 
REMARK       I    between atoms: C_10  and  N_12 
REMARK    2  A    between atoms: N_12  and  C_13 
ROOT
HETATM    1  N   UNL     1     -43.549 -53.947  14.079  1.00  0.00    -0.295 N 
HETATM    2  C   UNL     1     -42.236 -53.614  13.880  1.00  0.00     0.322 C 
HETATM    3  O   UNL     1     -41.362 -54.469  13.993  1.00  0.00    -0.247 OA
HETATM    4  N   UNL     1     -42.008 -52.343  13.436  1.00  0.00    -0.338 N 
HETATM    5  H   UNL     1     -43.698 -54.937  14.209  1.00  0.00     0.172 HD
HETATM    6  H   UNL     1     -42.783 -51.704  13.600  1.00  0.00     0.164 HD
ENDROOT
BRANCH   1   7
HETATM    7  C   UNL     1     -44.656 -53.096  14.030  1.00  0.00     0.109 A 
HETATM    8  N   UNL     1     -45.030 -52.465  15.164  1.00  0.00    -0.346 N 
HETATM    9  C   UNL     1     -46.096 -51.640  15.132  1.00  0.00     0.007 A 
ATOM     10  HN  UNL     1     -44.514 -52.610  16.032  1.00  0.00     0.167 HD
HETATM   11  C   UNL     1     -46.799 -51.387  13.964  1.00  0.00     0.031 A 
HETATM   12  C   UNL     1     -46.477 -51.024  16.442  1.00  0.00     0.068 C 
HETATM   13  C   UNL     1     -46.397 -52.024  12.786  1.00  0.00    -0.057 A 
HETATM   14  C   UNL     1     -47.094 -51.741  11.488  1.00  0.00     0.048 C 
HETATM   15  C   UNL     1     -45.321 -52.917  12.829  1.00  0.00     0.055 A 
ENDBRANCH   1   7
BRANCH   4  16
HETATM   16  C   UNL     1     -40.750 -51.819  12.936  1.00  0.00     0.091 C 
HETATM   17  C   UNL     1     -39.954 -51.121  14.048  1.00  0.00     0.051 C 
HETATM   18  C   UNL     1     -40.461 -49.714  14.360  1.00  0.00     0.171 C 
HETATM   19  O   UNL     1     -40.637 -48.914  13.190  1.00  0.00    -0.381 OA
HETATM   20  C   UNL     1     -41.508 -49.486  12.202  1.00  0.00     0.055 C 
HETATM   21  C   UNL     1     -42.960 -49.527  12.711  1.00  0.00     0.045 C 
HETATM   22  C   UNL     1     -41.483 -48.553  10.982  1.00  0.00     0.045 C 
HETATM   23  C   UNL     1     -40.940 -50.848  11.769  1.00  0.00     0.062 C 
ENDBRANCH   4  16
TORSDOF 2
ENDMDL
MODEL 3
REMARK VINA RESULT:      -6.0      1.931      5.115
REMARK  2 active torsions:
REMARK  status: ('A' for Active; 'I' for Inactive)
REMARK    1  A    between atoms: C_8  and  N_9 
REMARK       I    between atoms: N_9  and  C_10 
REMARK       I    between atoms: C_10  and  N_12 
REMARK    2  A    between atoms: N_12  and  C_13 
ROOT
HETATM    1  N   UNL     1     -40.796 -50.428  11.837  1.00  0.00    -0.295 N 
HETATM    2  C   UNL     1     -41.236 -51.707  12.054  1.00  0.00     0.322 C 
HETATM    3  O   UNL     1     -40.431 -52.631  12.105  1.00  0.00    -0.247 OA
HETATM    4  N   UNL     1     -42.567 -51.836  12.331  1.00  0.00    -0.338 N 
HETATM    5  H   UNL     1     -39.790 -50.343  11.837  1.00  0.00     0.172 HD
HETATM    6  H   UNL     1     -43.128 -51.038  12.041  1.00  0.00     0.164 HD
ENDROOT
BRANCH   1   7
HETATM    7  C   UNL     1     -41.574 -49.274  11.712  1.00  0.00     0.109 A 
HETATM    8  N   UNL     1     -42.050 -48.950  10.490  1.00  0.00    -0.346 N 
HETATM    9  C   UNL     1     -42.802 -47.840  10.354  1.00  0.00     0.007 A 
ATOM     10  HN  UNL     1     -41.843 -49.537   9.681  1.00  0.00     0.167 HD
HETATM   11  C   UNL     1     -43.137 -47.039  11.435  1.00  0.00     0.031 A 
HETATM   12  C   UNL     1     -43.243 -47.524   8.960  1.00  0.00     0.068 C 
HETATM   13  C   UNL     1     -42.663 -47.388  12.703  1.00  0.00    -0.057 A 
HETATM   14  C   UNL     1     -43.042 -46.581  13.910  1.00  0.00     0.048 C 
HETATM   15  C   UNL     1     -41.842 -48.512  12.837  1.00  0.00     0.055 A 
ENDBRANCH   1   7
BRANCH   4  16
HETATM   16  C   UNL     1     -43.231 -53.031  12.817  1.00  0.00     0.091 C 
HETATM   17  C   UNL     1     -44.692 -53.088  12.348  1.00  0.00     0.051 C 
HETATM   18  C   UNL     1     -45.622 -52.192  13.164  1.00  0.00     0.171 C 
HETATM   19  O   UNL     1     -45.464 -52.361  14.573  1.00  0.00    -0.381 OA
HETATM   20  C   UNL     1     -44.125 -52.155  15.052  1.00  0.00     0.055 C 
HETATM   21  C   UNL     1     -43.718 -50.677  14.918  1.00  0.00     0.045 C 
HETATM   22  C   UNL     1     -44.125 -52.491  16.550  1.00  0.00     0.045 C 
HETATM   23  C   UNL     1     -43.189 -53.148  14.342  1.00  0.00     0.062 C 
ENDBRANCH   4  16
TORSDOF 2
ENDMDL
MODEL 4
REMARK VINA RESULT:      -5.9      2.462      5.636
REMARK  2 active torsions:
REMARK  status: ('A' for Active; 'I' for Inactive)
REMARK    1  A    between atoms: C_8  and  N_9 
REMARK       I    between atoms: N_9  and  C_10 
REMARK       I    between atoms: C_10  and  N_12 
REMARK    2  A    between atoms: N_12  and  C_13 
ROOT
HETATM    1  N   UNL     1     -43.036 -53.369  12.067  1.00  0.00    -0.295 N 
HETATM    2  C   UNL     1     -44.136 -53.667  12.826  1.00  0.00     0.322 C 
HETATM    3  O   UNL     1     -44.897 -54.563  12.477  1.00  0.00    -0.247 OA
HETATM    4  N   UNL     1     -44.232 -53.004  14.016  1.00  0.00    -0.338 N 
HETATM    5  H   UNL     1     -42.889 -54.010  11.303  1.00  0.00     0.172 HD
HETATM    6  H   UNL     1     -43.667 -52.158  14.064  1.00  0.00     0.164 HD
ENDROOT
BRANCH   1   7
HETATM    7  C   UNL     1     -42.096 -52.361  12.297  1.00  0.00     0.109 A 
HETATM    8  N   UNL     1     -42.410 -51.096  11.939  1.00  0.00    -0.346 N 
HETATM    9  C   UNL     1     -41.513 -50.114  12.154  1.00  0.00     0.007 A 
ATOM     10  HN  UNL     1     -43.313 -50.888  11.511  1.00  0.00     0.167 HD
HETATM   11  C   UNL     1     -40.292 -50.350  12.767  1.00  0.00     0.031 A 
HETATM   12  C   UNL     1     -41.917 -48.753  11.680  1.00  0.00     0.068 C 
HETATM   13  C   UNL     1     -39.978 -51.656  13.158  1.00  0.00    -0.057 A 
HETATM   14  C   UNL     1     -38.691 -51.950  13.871  1.00  0.00     0.048 C 
HETATM   15  C   UNL     1     -40.887 -52.683  12.891  1.00  0.00     0.055 A 
ENDBRANCH   1   7
BRANCH   4  16
HETATM   16  C   UNL     1     -45.160 -53.298  15.093  1.00  0.00     0.091 C 
HETATM   17  C   UNL     1     -46.591 -52.882  14.725  1.00  0.00     0.051 C 
HETATM   18  C   UNL     1     -46.838 -51.381  14.871  1.00  0.00     0.171 C 
HETATM   19  O   UNL     1     -46.392 -50.863  16.124  1.00  0.00    -0.381 OA
HETATM   20  C   UNL     1     -45.007 -51.109  16.413  1.00  0.00     0.055 C 
HETATM   21  C   UNL     1     -44.099 -50.310  15.462  1.00  0.00     0.045 C 
HETATM   22  C   UNL     1     -44.742 -50.590  17.834  1.00  0.00     0.045 C 
HETATM   23  C   UNL     1     -44.764 -52.628  16.410  1.00  0.00     0.062 C 
ENDBRANCH   4  16
TORSDOF 2
ENDMDL
MODEL 5
REMARK VINA RESULT:      -5.8      2.743      6.075
REMARK  2 active torsions:
REMARK  status: ('A' for Active; 'I' for Inactive)
REMARK    1  A    between atoms: C_8  and  N_9 
REMARK       I    between atoms: N_9  and  C_10 
REMARK       I    between atoms: C_10  and  N_12 
REMARK    2  A    between atoms: N_12  and  C_13 
ROOT
HETATM    1  N   UNL     1     -43.540 -53.032  11.970  1.00  0.00    -0.295 N 
HETATM    2  C   UNL     1     -44.737 -52.920  12.627  1.00  0.00     0.322 C 
HETATM    3  O   UNL     1     -45.784 -53.168  12.039  1.00  0.00    -0.247 OA
HETATM    4  N   UNL     1     -44.656 -52.653  13.964  1.00  0.00    -0.338 N 
HETATM    5  H   UNL     1     -43.624 -53.424  11.044  1.00  0.00     0.172 HD
HETATM    6  H   UNL     1     -43.761 -52.264  14.253  1.00  0.00     0.164 HD
ENDROOT
BRANCH   1   7
HETATM    7  C   UNL     1     -42.268 -52.752  12.475  1.00  0.00     0.109 A 
HETATM    8  N   UNL     1     -41.834 -51.473  12.448  1.00  0.00    -0.346 N 
HETATM    9  C   UNL     1     -40.608 -51.187  12.931  1.00  0.00     0.007 A 
ATOM     10  HN  UNL     1     -42.425 -50.733  12.067  1.00  0.00     0.167 HD
HETATM   11  C   UNL     1     -39.791 -52.157  13.491  1.00  0.00     0.031 A 
HETATM   12  C   UNL     1     -40.183 -49.757  12.814  1.00  0.00     0.068 C 
HETATM   13  C   UNL     1     -40.251 -53.478  13.539  1.00  0.00    -0.057 A 
HETATM   14  C   UNL     1     -39.424 -54.551  14.183  1.00  0.00     0.048 C 
HETATM   15  C   UNL     1     -41.502 -53.782  12.994  1.00  0.00     0.055 A 
ENDBRANCH   1   7
BRANCH   4  16
HETATM   16  C   UNL     1     -45.746 -52.711  14.920  1.00  0.00     0.091 C 
HETATM   17  C   UNL     1     -46.173 -51.306  15.367  1.00  0.00     0.051 C 
HETATM   18  C   UNL     1     -45.240 -50.696  16.411  1.00  0.00     0.171 C 
HETATM   19  O   UNL     1     -44.960 -51.583  17.494  1.00  0.00    -0.381 OA
HETATM   20  C   UNL     1     -44.410 -52.850  17.100  1.00  0.00     0.055 C 
HETATM   21  C   UNL     1     -42.991 -52.677  16.531  1.00  0.00     0.045 C 
HETATM   22  C   UNL     1     -44.287 -53.704  18.371  1.00  0.00     0.045 C 
HETATM   23  C   UNL     1     -45.402 -53.548  16.154  1.00  0.00     0.062 C 
ENDBRANCH   4  16
TORSDOF 2
ENDMDL
MODEL 6
REMARK VINA RESULT:      -5.7      2.446      3.656
REMARK  2 active torsions:
REMARK  status: ('A' for Active; 'I' for Inactive)
REMARK    1  A    between atoms: C_8  and  N_9 
REMARK       I    between atoms: N_9  and  C_10 
REMARK       I    between atoms: C_10  and  N_12 
REMARK    2  A    between atoms: N_12  and  C_13 
ROOT
HETATM    1  N   UNL     1     -44.458 -54.624  15.260  1.00  0.00    -0.295 N 
HETATM    2  C   UNL     1     -43.104 -54.722  15.074  1.00  0.00     0.322 C 
HETATM    3  O   UNL     1     -42.514 -55.750  15.392  1.00  0.00    -0.247 OA
HETATM    4  N   UNL     1     -42.520 -53.679  14.413  1.00  0.00    -0.338 N 
HETATM    5  H   UNL     1     -44.885 -55.485  15.565  1.00  0.00     0.172 HD
HETATM    6  H   UNL     1     -43.078 -52.828  14.412  1.00  0.00     0.164 HD
ENDROOT
BRANCH   1   7
HETATM    7  C   UNL     1     -45.272 -53.521  14.993  1.00  0.00     0.109 A 
HETATM    8  N   UNL     1     -45.654 -52.739  16.026  1.00  0.00    -0.346 N 
HETATM    9  C   UNL     1     -46.439 -51.671  15.783  1.00  0.00     0.007 A 
ATOM     10  HN  UNL     1     -45.352 -52.953  16.977  1.00  0.00     0.167 HD
HETATM   11  C   UNL     1     -46.838 -51.324  14.501  1.00  0.00     0.031 A 
HETATM   12  C   UNL     1     -46.861 -50.890  16.988  1.00  0.00     0.068 C 
HETATM   13  C   UNL     1     -46.424 -52.122  13.429  1.00  0.00    -0.057 A 
HETATM   14  C   UNL     1     -46.787 -51.757  12.020  1.00  0.00     0.048 C 
HETATM   15  C   UNL     1     -45.649 -53.257  13.686  1.00  0.00     0.055 A 
ENDBRANCH   1   7
BRANCH   4  16
HETATM   16  C   UNL     1     -41.166 -53.642  13.893  1.00  0.00     0.091 C 
HETATM   17  C   UNL     1     -40.173 -53.152  14.956  1.00  0.00     0.051 C 
HETATM   18  C   UNL     1     -40.186 -51.635  15.140  1.00  0.00     0.171 C 
HETATM   19  O   UNL     1     -40.103 -50.924  13.904  1.00  0.00    -0.381 OA
HETATM   20  C   UNL     1     -41.125 -51.260  12.953  1.00  0.00     0.055 C 
HETATM   21  C   UNL     1     -42.504 -50.779  13.438  1.00  0.00     0.045 C 
HETATM   22  C   UNL     1     -40.808 -50.494  11.660  1.00  0.00     0.045 C 
HETATM   23  C   UNL     1     -41.040 -52.765  12.646  1.00  0.00     0.062 C 
ENDBRANCH   4  16
TORSDOF 2
ENDMDL
MODEL 7
REMARK VINA RESULT:      -5.6      2.767      6.105
REMARK  2 active torsions:
REMARK  status: ('A' for Active; 'I' for Inactive)
REMARK    1  A    between atoms: C_8  and  N_9 
REMARK       I    between atoms: N_9  and  C_10 
REMARK       I    between atoms: C_10  and  N_12 
REMARK    2  A    between atoms: N_12  and  C_13 
ROOT
HETATM    1  N   UNL     1     -43.547 -53.031  11.971  1.00  0.00    -0.295 N 
HETATM    2  C   UNL     1     -44.738 -52.939  12.641  1.00  0.00     0.322 C 
HETATM    3  O   UNL     1     -45.784 -53.249  12.079  1.00  0.00    -0.247 OA
HETATM    4  N   UNL     1     -44.649 -52.618  13.966  1.00  0.00    -0.338 N 
HETATM    5  H   UNL     1     -43.629 -53.460  11.061  1.00  0.00     0.172 HD
HETATM    6  H   UNL     1     -43.766 -52.185  14.226  1.00  0.00     0.164 HD
ENDROOT
BRANCH   1   7
HETATM    7  C   UNL     1     -42.280 -52.684  12.445  1.00  0.00     0.109 A 
HETATM    8  N   UNL     1     -41.513 -53.650  12.995  1.00  0.00    -0.346 N 
HETATM    9  C   UNL     1     -40.288 -53.330  13.456  1.00  0.00     0.007 A 
ATOM     10  HN  UNL     1     -41.856 -54.609  13.060  1.00  0.00     0.167 HD
HETATM   11  C   UNL     1     -39.771 -52.048  13.350  1.00  0.00     0.031 A 
HETATM   12  C   UNL     1     -39.527 -54.446  14.099  1.00  0.00     0.068 C 
HETATM   13  C   UNL     1     -40.557 -51.053  12.760  1.00  0.00    -0.057 A 
HETATM   14  C   UNL     1     -40.020 -49.664  12.576  1.00  0.00     0.048 C 
HETATM   15  C   UNL     1     -41.846 -51.373  12.325  1.00  0.00     0.055 A 
ENDBRANCH   1   7
BRANCH   4  16
HETATM   16  C   UNL     1     -45.723 -52.682  14.939  1.00  0.00     0.091 C 
HETATM   17  C   UNL     1     -46.144 -51.279  15.399  1.00  0.00     0.051 C 
HETATM   18  C   UNL     1     -45.194 -50.671  16.429  1.00  0.00     0.171 C 
HETATM   19  O   UNL     1     -44.894 -51.562  17.504  1.00  0.00    -0.381 OA
HETATM   20  C   UNL     1     -44.350 -52.827  17.096  1.00  0.00     0.055 C 
HETATM   21  C   UNL     1     -42.941 -52.650  16.503  1.00  0.00     0.045 C 
HETATM   22  C   UNL     1     -44.204 -53.685  18.361  1.00  0.00     0.045 C 
HETATM   23  C   UNL     1     -45.357 -53.522  16.164  1.00  0.00     0.062 C 
ENDBRANCH   4  16
TORSDOF 2
ENDMDL
MODEL 8
REMARK VINA RESULT:      -5.6      3.352      5.654
REMARK  2 active torsions:
REMARK  status: ('A' for Active; 'I' for Inactive)
REMARK    1  A    between atoms: C_8  and  N_9 
REMARK       I    between atoms: N_9  and  C_10 
REMARK       I    between atoms: C_10  and  N_12 
REMARK    2  A    between atoms: N_12  and  C_13 
ROOT
HETATM    1  N   UNL     1     -41.246 -47.939  10.319  1.00  0.00    -0.295 N 
HETATM    2  C   UNL     1     -41.334 -46.633  10.721  1.00  0.00     0.322 C 
HETATM    3  O   UNL     1     -41.666 -45.766   9.919  1.00  0.00    -0.247 OA
HETATM    4  N   UNL     1     -41.160 -46.412  12.057  1.00  0.00    -0.338 N 
HETATM    5  H   UNL     1     -41.574 -48.093   9.377  1.00  0.00     0.172 HD
HETATM    6  H   UNL     1     -40.685 -47.170  12.542  1.00  0.00     0.164 HD
ENDROOT
BRANCH   1   7
HETATM    7  C   UNL     1     -40.847 -49.037  11.086  1.00  0.00     0.109 A 
HETATM    8  N   UNL     1     -41.789 -49.922  11.477  1.00  0.00    -0.346 N 
HETATM    9  C   UNL     1     -41.420 -50.986  12.218  1.00  0.00     0.007 A 
ATOM     10  HN  UNL     1     -42.766 -49.788  11.216  1.00  0.00     0.167 HD
HETATM   11  C   UNL     1     -40.097 -51.224  12.560  1.00  0.00     0.031 A 
HETATM   12  C   UNL     1     -42.531 -51.888  12.655  1.00  0.00     0.068 C 
HETATM   13  C   UNL     1     -39.120 -50.318  12.136  1.00  0.00    -0.057 A 
HETATM   14  C   UNL     1     -37.670 -50.562  12.437  1.00  0.00     0.048 C 
HETATM   15  C   UNL     1     -39.509 -49.189  11.408  1.00  0.00     0.055 A 
ENDBRANCH   1   7
BRANCH   4  16
HETATM   16  C   UNL     1     -41.427 -45.174  12.765  1.00  0.00     0.091 C 
HETATM   17  C   UNL     1     -40.523 -44.039  12.265  1.00  0.00     0.051 C 
HETATM   18  C   UNL     1     -39.105 -44.102  12.831  1.00  0.00     0.171 C 
HETATM   19  O   UNL     1     -39.079 -44.276  14.248  1.00  0.00    -0.381 OA
HETATM   20  C   UNL     1     -39.793 -45.428  14.721  1.00  0.00     0.055 C 
HETATM   21  C   UNL     1     -39.088 -46.725  14.287  1.00  0.00     0.045 C 
HETATM   22  C   UNL     1     -39.755 -45.385  16.256  1.00  0.00     0.045 C 
HETATM   23  C   UNL     1     -41.262 -45.315  14.280  1.00  0.00     0.062 C 
ENDBRANCH   4  16
TORSDOF 2
ENDMDL
MODEL 9
REMARK VINA RESULT:      -5.6      2.362      3.945
REMARK  2 active torsions:
REMARK  status: ('A' for Active; 'I' for Inactive)
REMARK    1  A    between atoms: C_8  and  N_9 
REMARK       I    between atoms: N_9  and  C_10 
REMARK       I    between atoms: C_10  and  N_12 
REMARK    2  A    between atoms: N_12  and  C_13 
ROOT
HETATM    1  N   UNL     1     -42.932 -49.830  13.083  1.00  0.00    -0.295 N 
HETATM    2  C   UNL     1     -41.771 -50.472  12.743  1.00  0.00     0.322 C 
HETATM    3  O   UNL     1     -40.805 -49.826  12.351  1.00  0.00    -0.247 OA
HETATM    4  N   UNL     1     -41.740 -51.814  12.997  1.00  0.00    -0.338 N 
HETATM    5  H   UNL     1     -42.853 -48.824  13.073  1.00  0.00     0.172 HD
HETATM    6  H   UNL     1     -42.661 -52.234  13.109  1.00  0.00     0.164 HD
ENDROOT
BRANCH   1   7
HETATM    7  C   UNL     1     -44.129 -50.412  13.507  1.00  0.00     0.109 A 
HETATM    8  N   UNL     1     -44.974 -50.897  12.571  1.00  0.00    -0.346 N 
HETATM    9  C   UNL     1     -46.133 -51.461  12.965  1.00  0.00     0.007 A 
ATOM     10  HN  UNL     1     -44.739 -50.836  11.580  1.00  0.00     0.167 HD
HETATM   11  C   UNL     1     -46.470 -51.597  14.303  1.00  0.00     0.031 A 
HETATM   12  C   UNL     1     -47.036 -51.923  11.865  1.00  0.00     0.068 C 
HETATM   13  C   UNL     1     -45.584 -51.115  15.272  1.00  0.00    -0.057 A 
HETATM   14  C   UNL     1     -45.882 -51.287  16.733  1.00  0.00     0.048 C 
HETATM   15  C   UNL     1     -44.405 -50.487  14.862  1.00  0.00     0.055 A 
ENDBRANCH   1   7
BRANCH   4  16
HETATM   16  C   UNL     1     -40.571 -52.672  12.946  1.00  0.00     0.091 C 
HETATM   17  C   UNL     1     -40.962 -54.154  13.027  1.00  0.00     0.051 C 
HETATM   18  C   UNL     1     -41.286 -54.615  14.447  1.00  0.00     0.171 C 
HETATM   19  O   UNL     1     -40.293 -54.230  15.398  1.00  0.00    -0.381 OA
HETATM   20  C   UNL     1     -40.028 -52.819  15.444  1.00  0.00     0.055 C 
HETATM   21  C   UNL     1     -41.239 -52.053  16.006  1.00  0.00     0.045 C 
HETATM   22  C   UNL     1     -38.866 -52.610  16.426  1.00  0.00     0.045 C 
HETATM   23  C   UNL     1     -39.563 -52.357  14.053  1.00  0.00     0.062 C 
ENDBRANCH   4  16
TORSDOF 2
ENDMDL
