MODEL 1
REMARK VINA RESULT:      -4.9      0.000      0.000
REMARK  8 active torsions:
REMARK  status: ('A' for Active; 'I' for Inactive)
REMARK    1  A    between atoms: C_2  and  C_3 
REMARK    2  A    between atoms: C_3  and  C_4 
REMARK    3  A    between atoms: C_4  and  N_5 
REMARK    4  A    between atoms: C_6  and  N_7 
REMARK    5  A    between atoms: C_8  and  N_9 
REMARK    6  A    between atoms: N_9  and  C_11 
REMARK    7  A    between atoms: C_11  and  C_12 
REMARK    8  A    between atoms: C_12  and  O_13 
ROOT
HETATM    1  N   UNL     1     -43.603 -54.097  14.149  1.00  0.00    -0.288 N 
HETATM    2  C   UNL     1     -42.384 -54.113  14.807  1.00  0.00     0.116 C 
HETATM    3  C   UNL     1     -41.244 -53.717  14.188  1.00  0.00     0.137 C 
HETATM    4  C   UNL     1     -41.352 -53.235  12.770  1.00  0.00     0.279 C 
HETATM    5  O   UNL     1     -40.419 -52.699  12.178  1.00  0.00    -0.265 OA
HETATM    6  N   UNL     1     -42.559 -53.430  12.168  1.00  0.00    -0.273 N 
HETATM    7  C   UNL     1     -43.717 -53.756  12.807  1.00  0.00     0.330 C 
HETATM    8  O   UNL     1     -44.775 -53.723  12.180  1.00  0.00    -0.246 OA
HETATM    9  H   UNL     1     -42.650 -53.114  11.216  1.00  0.00     0.173 HD
ENDROOT
BRANCH   3  10
HETATM   10  N   UNL     1     -39.981 -53.734  14.817  1.00  0.00    -0.376 N 
HETATM   11  C   UNL     1     -39.381 -52.477  15.261  1.00  0.00     0.150 C 
BRANCH  10  12
HETATM   12  C   UNL     1     -39.018 -54.804  14.482  1.00  0.00     0.149 C 
BRANCH  12  13
HETATM   13  C   UNL     1     -38.554 -55.523  15.760  1.00  0.00     0.186 C 
BRANCH  13  14
HETATM   14  O   UNL     1     -39.611 -56.347  16.266  1.00  0.00    -0.394 OA
HETATM   15  C   UNL     1     -39.231 -57.054  17.435  1.00  0.00     0.201 C 
ENDBRANCH  13  14
ENDBRANCH  12  13
ENDBRANCH  10  12
ENDBRANCH   3  10
BRANCH   2  16
HETATM   16  N   UNL     1     -42.279 -54.557  16.130  1.00  0.00    -0.286 NA
HETATM   17  H   UNL     1     -41.391 -54.284  16.528  1.00  0.00     0.125 HD
HETATM   18  H   UNL     1     -43.029 -54.098  16.660  1.00  0.00     0.125 HD
ENDBRANCH   2  16
BRANCH   1  19
HETATM   19  C   UNL     1     -44.841 -54.421  14.875  1.00  0.00     0.135 C 
BRANCH  19  20
HETATM   20  C   UNL     1     -45.454 -53.202  15.574  1.00  0.00     0.020 C 
BRANCH  20  21
HETATM   21  C   UNL     1     -46.768 -52.778  14.922  1.00  0.00    -0.003 C 
HETATM   22  C   UNL     1     -46.613 -51.448  14.201  1.00  0.00     0.005 C 
ENDBRANCH  20  21
ENDBRANCH  19  20
ENDBRANCH   1  19
TORSDOF 8
ENDMDL
MODEL 2
REMARK VINA RESULT:      -4.8      5.531      6.844
REMARK  8 active torsions:
REMARK  status: ('A' for Active; 'I' for Inactive)
REMARK    1  A    between atoms: C_2  and  C_3 
REMARK    2  A    between atoms: C_3  and  C_4 
REMARK    3  A    between atoms: C_4  and  N_5 
REMARK    4  A    between atoms: C_6  and  N_7 
REMARK    5  A    between atoms: C_8  and  N_9 
REMARK    6  A    between atoms: N_9  and  C_11 
REMARK    7  A    between atoms: C_11  and  C_12 
REMARK    8  A    between atoms: C_12  and  O_13 
ROOT
HETATM    1  N   UNL     1     -41.721 -47.507  10.618  1.00  0.00    -0.288 N 
HETATM    2  C   UNL     1     -41.310 -48.492  11.501  1.00  0.00     0.116 C 
HETATM    3  C   UNL     1     -40.402 -48.232  12.474  1.00  0.00     0.137 C 
HETATM    4  C   UNL     1     -39.874 -46.831  12.577  1.00  0.00     0.279 C 
HETATM    5  O   UNL     1     -39.183 -46.449  13.519  1.00  0.00    -0.265 OA
HETATM    6  N   UNL     1     -40.207 -45.994  11.555  1.00  0.00    -0.273 N 
HETATM    7  C   UNL     1     -41.173 -46.231  10.624  1.00  0.00     0.330 C 
HETATM    8  O   UNL     1     -41.506 -45.322   9.864  1.00  0.00    -0.246 OA
HETATM    9  H   UNL     1     -39.860 -45.050  11.606  1.00  0.00     0.173 HD
ENDROOT
BRANCH   3  10
HETATM   10  N   UNL     1     -39.945 -49.211  13.382  1.00  0.00    -0.376 N 
HETATM   11  C   UNL     1     -40.436 -49.199  14.759  1.00  0.00     0.150 C 
BRANCH  10  12
HETATM   12  C   UNL     1     -38.602 -49.799  13.201  1.00  0.00     0.149 C 
BRANCH  12  13
HETATM   13  C   UNL     1     -38.670 -51.331  13.322  1.00  0.00     0.186 C 
BRANCH  13  14
HETATM   14  O   UNL     1     -39.673 -51.845  12.438  1.00  0.00    -0.394 OA
HETATM   15  C   UNL     1     -40.482 -52.833  13.056  1.00  0.00     0.201 C 
ENDBRANCH  13  14
ENDBRANCH  12  13
ENDBRANCH  10  12
ENDBRANCH   3  10
BRANCH   2  16
HETATM   16  N   UNL     1     -41.804 -49.799  11.412  1.00  0.00    -0.286 NA
HETATM   17  H   UNL     1     -42.814 -49.802  11.444  1.00  0.00     0.125 HD
HETATM   18  H   UNL     1     -41.506 -50.170  10.502  1.00  0.00     0.125 HD
ENDBRANCH   2  16
BRANCH   1  19
HETATM   19  C   UNL     1     -42.791 -47.783   9.647  1.00  0.00     0.135 C 
BRANCH  19  20
HETATM   20  C   UNL     1     -44.186 -47.463  10.195  1.00  0.00     0.020 C 
BRANCH  20  21
HETATM   21  C   UNL     1     -45.142 -47.022   9.089  1.00  0.00    -0.003 C 
HETATM   22  C   UNL     1     -46.358 -47.933   9.025  1.00  0.00     0.005 C 
ENDBRANCH  20  21
ENDBRANCH  19  20
ENDBRANCH   1  19
TORSDOF 8
ENDMDL
MODEL 3
REMARK VINA RESULT:      -4.8      8.682     10.708
REMARK  8 active torsions:
REMARK  status: ('A' for Active; 'I' for Inactive)
REMARK    1  A    between atoms: C_2  and  C_3 
REMARK    2  A    between atoms: C_3  and  C_4 
REMARK    3  A    between atoms: C_4  and  N_5 
REMARK    4  A    between atoms: C_6  and  N_7 
REMARK    5  A    between atoms: C_8  and  N_9 
REMARK    6  A    between atoms: N_9  and  C_11 
REMARK    7  A    between atoms: C_11  and  C_12 
REMARK    8  A    between atoms: C_12  and  O_13 
ROOT
HETATM    1  N   UNL     1     -42.808 -45.924   9.895  1.00  0.00    -0.288 N 
HETATM    2  C   UNL     1     -42.722 -44.677  10.492  1.00  0.00     0.116 C 
HETATM    3  C   UNL     1     -41.845 -44.437  11.498  1.00  0.00     0.137 C 
HETATM    4  C   UNL     1     -40.952 -45.564  11.928  1.00  0.00     0.279 C 
HETATM    5  O   UNL     1     -40.014 -45.408  12.707  1.00  0.00    -0.265 OA
HETATM    6  N   UNL     1     -41.243 -46.786  11.401  1.00  0.00    -0.273 N 
HETATM    7  C   UNL     1     -42.069 -47.012  10.341  1.00  0.00     0.330 C 
HETATM    8  O   UNL     1     -42.107 -48.137   9.843  1.00  0.00    -0.246 OA
HETATM    9  H   UNL     1     -40.655 -47.555  11.679  1.00  0.00     0.173 HD
ENDROOT
BRANCH   3  10
HETATM   10  N   UNL     1     -41.739 -43.185  12.143  1.00  0.00    -0.376 N 
HETATM   11  C   UNL     1     -40.639 -42.288  11.795  1.00  0.00     0.150 C 
BRANCH  10  12
HETATM   12  C   UNL     1     -42.263 -43.029  13.516  1.00  0.00     0.149 C 
BRANCH  12  13
HETATM   13  C   UNL     1     -43.227 -41.833  13.586  1.00  0.00     0.186 C 
BRANCH  13  14
HETATM   14  O   UNL     1     -44.054 -41.805  12.416  1.00  0.00    -0.394 OA
HETATM   15  C   UNL     1     -44.361 -40.483  12.004  1.00  0.00     0.201 C 
ENDBRANCH  13  14
ENDBRANCH  12  13
ENDBRANCH  10  12
ENDBRANCH   3  10
BRANCH   2  16
HETATM   16  N   UNL     1     -43.549 -43.622  10.091  1.00  0.00    -0.286 NA
HETATM   17  H   UNL     1     -44.522 -43.851  10.249  1.00  0.00     0.125 HD
HETATM   18  H   UNL     1     -43.306 -42.812  10.673  1.00  0.00     0.125 HD
ENDBRANCH   2  16
BRANCH   1  19
HETATM   19  C   UNL     1     -43.683 -46.129   8.730  1.00  0.00     0.135 C 
BRANCH  19  20
HETATM   20  C   UNL     1     -45.087 -46.604   9.120  1.00  0.00     0.020 C 
BRANCH  20  21
HETATM   21  C   UNL     1     -45.426 -47.951   8.485  1.00  0.00    -0.003 C 
HETATM   22  C   UNL     1     -46.792 -48.439   8.941  1.00  0.00     0.005 C 
ENDBRANCH  20  21
ENDBRANCH  19  20
ENDBRANCH   1  19
TORSDOF 8
ENDMDL
MODEL 4
REMARK VINA RESULT:      -4.7      5.062      6.530
REMARK  8 active torsions:
REMARK  status: ('A' for Active; 'I' for Inactive)
REMARK    1  A    between atoms: C_2  and  C_3 
REMARK    2  A    between atoms: C_3  and  C_4 
REMARK    3  A    between atoms: C_4  and  N_5 
REMARK    4  A    between atoms: C_6  and  N_7 
REMARK    5  A    between atoms: C_8  and  N_9 
REMARK    6  A    between atoms: N_9  and  C_11 
REMARK    7  A    between atoms: C_11  and  C_12 
REMARK    8  A    between atoms: C_12  and  O_13 
ROOT
HETATM    1  N   UNL     1     -42.492 -47.515  11.001  1.00  0.00    -0.288 N 
HETATM    2  C   UNL     1     -42.324 -48.681  11.730  1.00  0.00     0.116 C 
HETATM    3  C   UNL     1     -41.093 -49.098  12.117  1.00  0.00     0.137 C 
HETATM    4  C   UNL     1     -39.918 -48.239  11.748  1.00  0.00     0.279 C 
HETATM    5  O   UNL     1     -38.788 -48.434  12.190  1.00  0.00    -0.265 OA
HETATM    6  N   UNL     1     -40.178 -47.219  10.884  1.00  0.00    -0.273 N 
HETATM    7  C   UNL     1     -41.417 -46.756  10.557  1.00  0.00     0.330 C 
HETATM    8  O   UNL     1     -41.515 -45.714   9.911  1.00  0.00    -0.246 OA
HETATM    9  H   UNL     1     -39.402 -46.632  10.624  1.00  0.00     0.173 HD
ENDROOT
BRANCH   3  10
HETATM   10  N   UNL     1     -40.877 -50.288  12.846  1.00  0.00    -0.376 N 
HETATM   11  C   UNL     1     -40.640 -50.216  14.286  1.00  0.00     0.150 C 
BRANCH  10  12
HETATM   12  C   UNL     1     -40.273 -51.454  12.169  1.00  0.00     0.149 C 
BRANCH  12  13
HETATM   13  C   UNL     1     -41.156 -52.699  12.360  1.00  0.00     0.186 C 
BRANCH  13  14
HETATM   14  O   UNL     1     -42.514 -52.388  12.022  1.00  0.00    -0.394 OA
HETATM   15  C   UNL     1     -43.440 -53.237  12.679  1.00  0.00     0.201 C 
ENDBRANCH  13  14
ENDBRANCH  12  13
ENDBRANCH  10  12
ENDBRANCH   3  10
BRANCH   2  16
HETATM   16  N   UNL     1     -43.416 -49.483  12.080  1.00  0.00    -0.286 NA
HETATM   17  H   UNL     1     -44.285 -49.037  11.817  1.00  0.00     0.125 HD
HETATM   18  H   UNL     1     -43.327 -50.359  11.553  1.00  0.00     0.125 HD
ENDBRANCH   2  16
BRANCH   1  19
HETATM   19  C   UNL     1     -43.845 -47.024  10.694  1.00  0.00     0.135 C 
BRANCH  19  20
HETATM   20  C   UNL     1     -44.370 -47.537   9.348  1.00  0.00     0.020 C 
BRANCH  20  21
HETATM   21  C   UNL     1     -45.896 -47.518   9.292  1.00  0.00    -0.003 C 
HETATM   22  C   UNL     1     -46.418 -48.581   8.338  1.00  0.00     0.005 C 
ENDBRANCH  20  21
ENDBRANCH  19  20
ENDBRANCH   1  19
TORSDOF 8
ENDMDL
MODEL 5
REMARK VINA RESULT:      -4.7      1.794      2.699
REMARK  8 active torsions:
REMARK  status: ('A' for Active; 'I' for Inactive)
REMARK    1  A    between atoms: C_2  and  C_3 
REMARK    2  A    between atoms: C_3  and  C_4 
REMARK    3  A    between atoms: C_4  and  N_5 
REMARK    4  A    between atoms: C_6  and  N_7 
REMARK    5  A    between atoms: C_8  and  N_9 
REMARK    6  A    between atoms: N_9  and  C_11 
REMARK    7  A    between atoms: C_11  and  C_12 
REMARK    8  A    between atoms: C_12  and  O_13 
ROOT
HETATM    1  N   UNL     1     -43.751 -53.954  13.793  1.00  0.00    -0.288 N 
HETATM    2  C   UNL     1     -42.443 -53.989  14.248  1.00  0.00     0.116 C 
HETATM    3  C   UNL     1     -41.438 -53.409  13.546  1.00  0.00     0.137 C 
HETATM    4  C   UNL     1     -41.795 -52.706  12.269  1.00  0.00     0.279 C 
HETATM    5  O   UNL     1     -40.996 -52.008  11.648  1.00  0.00    -0.265 OA
HETATM    6  N   UNL     1     -43.072 -52.887  11.829  1.00  0.00    -0.273 N 
HETATM    7  C   UNL     1     -44.095 -53.402  12.566  1.00  0.00     0.330 C 
HETATM    8  O   UNL     1     -45.241 -53.344  12.121  1.00  0.00    -0.246 OA
HETATM    9  H   UNL     1     -43.330 -52.423  10.973  1.00  0.00     0.173 HD
ENDROOT
BRANCH   3  10
HETATM   10  N   UNL     1     -40.090 -53.437  13.966  1.00  0.00    -0.376 N 
HETATM   11  C   UNL     1     -39.357 -54.701  13.945  1.00  0.00     0.150 C 
BRANCH  10  12
HETATM   12  C   UNL     1     -39.622 -52.458  14.968  1.00  0.00     0.149 C 
BRANCH  12  13
HETATM   13  C   UNL     1     -38.869 -51.308  14.279  1.00  0.00     0.186 C 
BRANCH  13  14
HETATM   14  O   UNL     1     -38.084 -51.820  13.195  1.00  0.00    -0.394 OA
HETATM   15  C   UNL     1     -37.450 -50.790  12.455  1.00  0.00     0.201 C 
ENDBRANCH  13  14
ENDBRANCH  12  13
ENDBRANCH  10  12
ENDBRANCH   3  10
BRANCH   2  16
HETATM   16  N   UNL     1     -42.106 -54.639  15.441  1.00  0.00    -0.286 NA
HETATM   17  H   UNL     1     -41.696 -55.544  15.250  1.00  0.00     0.125 HD
HETATM   18  H   UNL     1     -41.405 -54.056  15.912  1.00  0.00     0.125 HD
ENDBRANCH   2  16
BRANCH   1  19
HETATM   19  C   UNL     1     -44.839 -54.488  14.628  1.00  0.00     0.135 C 
BRANCH  19  20
HETATM   20  C   UNL     1     -45.411 -53.445  15.594  1.00  0.00     0.020 C 
BRANCH  20  21
HETATM   21  C   UNL     1     -46.779 -52.941  15.139  1.00  0.00    -0.003 C 
HETATM   22  C   UNL     1     -46.722 -51.465  14.778  1.00  0.00     0.005 C 
ENDBRANCH  20  21
ENDBRANCH  19  20
ENDBRANCH   1  19
TORSDOF 8
ENDMDL
MODEL 6
REMARK VINA RESULT:      -4.6      3.592      5.864
REMARK  8 active torsions:
REMARK  status: ('A' for Active; 'I' for Inactive)
REMARK    1  A    between atoms: C_2  and  C_3 
REMARK    2  A    between atoms: C_3  and  C_4 
REMARK    3  A    between atoms: C_4  and  N_5 
REMARK    4  A    between atoms: C_6  and  N_7 
REMARK    5  A    between atoms: C_8  and  N_9 
REMARK    6  A    between atoms: N_9  and  C_11 
REMARK    7  A    between atoms: C_11  and  C_12 
REMARK    8  A    between atoms: C_12  and  O_13 
ROOT
HETATM    1  N   UNL     1     -42.078 -49.692  12.220  1.00  0.00    -0.288 N 
HETATM    2  C   UNL     1     -42.744 -50.635  12.986  1.00  0.00     0.116 C 
HETATM    3  C   UNL     1     -42.345 -51.931  13.011  1.00  0.00     0.137 C 
HETATM    4  C   UNL     1     -41.141 -52.305  12.197  1.00  0.00     0.279 C 
HETATM    5  O   UNL     1     -40.598 -53.405  12.280  1.00  0.00    -0.265 OA
HETATM    6  N   UNL     1     -40.677 -51.346  11.348  1.00  0.00    -0.273 N 
HETATM    7  C   UNL     1     -41.026 -50.029  11.378  1.00  0.00     0.330 C 
HETATM    8  O   UNL     1     -40.402 -49.229  10.682  1.00  0.00    -0.246 OA
HETATM    9  H   UNL     1     -39.869 -51.579  10.793  1.00  0.00     0.173 HD
ENDROOT
BRANCH   3  10
HETATM   10  N   UNL     1     -43.006 -52.925  13.764  1.00  0.00    -0.376 N 
HETATM   11  C   UNL     1     -42.438 -53.356  15.040  1.00  0.00     0.150 C 
BRANCH  10  12
HETATM   12  C   UNL     1     -43.824 -53.940  13.068  1.00  0.00     0.149 C 
BRANCH  12  13
HETATM   13  C   UNL     1     -45.320 -53.614  13.220  1.00  0.00     0.186 C 
BRANCH  13  14
HETATM   14  O   UNL     1     -45.802 -52.974  12.032  1.00  0.00    -0.394 OA
HETATM   15  C   UNL     1     -46.669 -51.889  12.319  1.00  0.00     0.201 C 
ENDBRANCH  13  14
ENDBRANCH  12  13
ENDBRANCH  10  12
ENDBRANCH   3  10
BRANCH   2  16
HETATM   16  N   UNL     1     -43.864 -50.289  13.750  1.00  0.00    -0.286 NA
HETATM   17  H   UNL     1     -44.046 -49.297  13.689  1.00  0.00     0.125 HD
HETATM   18  H   UNL     1     -44.666 -50.793  13.352  1.00  0.00     0.125 HD
ENDBRANCH   2  16
BRANCH   1  19
HETATM   19  C   UNL     1     -42.457 -48.272  12.300  1.00  0.00     0.135 C 
BRANCH  19  20
HETATM   20  C   UNL     1     -43.521 -47.885  11.267  1.00  0.00     0.020 C 
BRANCH  20  21
HETATM   21  C   UNL     1     -42.938 -47.018  10.153  1.00  0.00    -0.003 C 
HETATM   22  C   UNL     1     -43.386 -47.515   8.787  1.00  0.00     0.005 C 
ENDBRANCH  20  21
ENDBRANCH  19  20
ENDBRANCH   1  19
TORSDOF 8
ENDMDL
MODEL 7
REMARK VINA RESULT:      -4.5      2.223      2.706
REMARK  8 active torsions:
REMARK  status: ('A' for Active; 'I' for Inactive)
REMARK    1  A    between atoms: C_2  and  C_3 
REMARK    2  A    between atoms: C_3  and  C_4 
REMARK    3  A    between atoms: C_4  and  N_5 
REMARK    4  A    between atoms: C_6  and  N_7 
REMARK    5  A    between atoms: C_8  and  N_9 
REMARK    6  A    between atoms: N_9  and  C_11 
REMARK    7  A    between atoms: C_11  and  C_12 
REMARK    8  A    between atoms: C_12  and  O_13 
ROOT
HETATM    1  N   UNL     1     -45.300 -53.566  14.297  1.00  0.00    -0.288 N 
HETATM    2  C   UNL     1     -44.430 -53.951  15.304  1.00  0.00     0.116 C 
HETATM    3  C   UNL     1     -43.131 -54.241  15.039  1.00  0.00     0.137 C 
HETATM    4  C   UNL     1     -42.663 -54.107  13.619  1.00  0.00     0.279 C 
HETATM    5  O   UNL     1     -41.478 -54.179  13.301  1.00  0.00    -0.265 OA
HETATM    6  N   UNL     1     -43.637 -53.898  12.690  1.00  0.00    -0.273 N 
HETATM    7  C   UNL     1     -44.922 -53.535  12.961  1.00  0.00     0.330 C 
HETATM    8  O   UNL     1     -45.656 -53.197  12.033  1.00  0.00    -0.246 OA
HETATM    9  H   UNL     1     -43.342 -53.807  11.732  1.00  0.00     0.173 HD
ENDROOT
BRANCH   3  10
HETATM   10  N   UNL     1     -42.217 -54.652  16.033  1.00  0.00    -0.376 N 
HETATM   11  C   UNL     1     -41.128 -53.758  16.422  1.00  0.00     0.150 C 
BRANCH  10  12
HETATM   12  C   UNL     1     -41.939 -56.092  16.213  1.00  0.00     0.149 C 
BRANCH  12  13
HETATM   13  C   UNL     1     -42.040 -56.472  17.700  1.00  0.00     0.186 C 
BRANCH  13  14
HETATM   14  O   UNL     1     -43.364 -56.212  18.181  1.00  0.00    -0.394 OA
HETATM   15  C   UNL     1     -43.404 -56.051  19.589  1.00  0.00     0.201 C 
ENDBRANCH  13  14
ENDBRANCH  12  13
ENDBRANCH  10  12
ENDBRANCH   3  10
BRANCH   2  16
HETATM   16  N   UNL     1     -44.861 -54.072  16.629  1.00  0.00    -0.286 NA
HETATM   17  H   UNL     1     -45.374 -54.934  16.760  1.00  0.00     0.125 HD
HETATM   18  H   UNL     1     -44.019 -54.102  17.217  1.00  0.00     0.125 HD
ENDBRANCH   2  16
BRANCH   1  19
HETATM   19  C   UNL     1     -46.672 -53.146  14.625  1.00  0.00     0.135 C 
BRANCH  19  20
HETATM   20  C   UNL     1     -46.818 -51.623  14.720  1.00  0.00     0.020 C 
BRANCH  20  21
HETATM   21  C   UNL     1     -46.669 -51.129  16.158  1.00  0.00    -0.003 C 
HETATM   22  C   UNL     1     -48.004 -51.166  16.886  1.00  0.00     0.005 C 
ENDBRANCH  20  21
ENDBRANCH  19  20
ENDBRANCH   1  19
TORSDOF 8
ENDMDL
MODEL 8
REMARK VINA RESULT:      -4.5      6.623      8.030
REMARK  8 active torsions:
REMARK  status: ('A' for Active; 'I' for Inactive)
REMARK    1  A    between atoms: C_2  and  C_3 
REMARK    2  A    between atoms: C_3  and  C_4 
REMARK    3  A    between atoms: C_4  and  N_5 
REMARK    4  A    between atoms: C_6  and  N_7 
REMARK    5  A    between atoms: C_8  and  N_9 
REMARK    6  A    between atoms: N_9  and  C_11 
REMARK    7  A    between atoms: C_11  and  C_12 
REMARK    8  A    between atoms: C_12  and  O_13 
ROOT
HETATM    1  N   UNL     1     -42.563 -46.189   9.930  1.00  0.00    -0.288 N 
HETATM    2  C   UNL     1     -41.916 -47.335  10.362  1.00  0.00     0.116 C 
HETATM    3  C   UNL     1     -41.224 -47.356  11.529  1.00  0.00     0.137 C 
HETATM    4  C   UNL     1     -41.204 -46.099  12.349  1.00  0.00     0.279 C 
HETATM    5  O   UNL     1     -40.754 -46.058  13.492  1.00  0.00    -0.265 OA
HETATM    6  N   UNL     1     -41.717 -44.990  11.748  1.00  0.00    -0.273 N 
HETATM    7  C   UNL     1     -42.475 -44.984  10.615  1.00  0.00     0.330 C 
HETATM    8  O   UNL     1     -43.033 -43.942  10.274  1.00  0.00    -0.246 OA
HETATM    9  H   UNL     1     -41.711 -44.136  12.282  1.00  0.00     0.173 HD
ENDROOT
BRANCH   3  10
HETATM   10  N   UNL     1     -40.537 -48.497  11.996  1.00  0.00    -0.376 N 
HETATM   11  C   UNL     1     -41.125 -49.302  13.065  1.00  0.00     0.150 C 
BRANCH  10  12
HETATM   12  C   UNL     1     -39.062 -48.539  11.920  1.00  0.00     0.149 C 
BRANCH  12  13
HETATM   13  C   UNL     1     -38.486 -49.277  13.140  1.00  0.00     0.186 C 
BRANCH  13  14
HETATM   14  O   UNL     1     -37.540 -48.438  13.814  1.00  0.00    -0.394 OA
HETATM   15  C   UNL     1     -37.469 -48.716  15.204  1.00  0.00     0.201 C 
ENDBRANCH  13  14
ENDBRANCH  12  13
ENDBRANCH  10  12
ENDBRANCH   3  10
BRANCH   2  16
HETATM   16  N   UNL     1     -41.936 -48.511   9.603  1.00  0.00    -0.286 NA
HETATM   17  H   UNL     1     -42.423 -49.246  10.098  1.00  0.00     0.125 HD
HETATM   18  H   UNL     1     -42.452 -48.302   8.740  1.00  0.00     0.125 HD
ENDBRANCH   2  16
BRANCH   1  19
HETATM   19  C   UNL     1     -43.402 -46.224   8.722  1.00  0.00     0.135 C 
BRANCH  19  20
HETATM   20  C   UNL     1     -44.887 -46.438   9.037  1.00  0.00     0.020 C 
BRANCH  20  21
HETATM   21  C   UNL     1     -45.348 -47.844   8.660  1.00  0.00    -0.003 C 
HETATM   22  C   UNL     1     -46.821 -48.039   8.988  1.00  0.00     0.005 C 
ENDBRANCH  20  21
ENDBRANCH  19  20
ENDBRANCH   1  19
TORSDOF 8
ENDMDL
MODEL 9
REMARK VINA RESULT:      -4.5      3.383      5.810
REMARK  8 active torsions:
REMARK  status: ('A' for Active; 'I' for Inactive)
REMARK    1  A    between atoms: C_2  and  C_3 
REMARK    2  A    between atoms: C_3  and  C_4 
REMARK    3  A    between atoms: C_4  and  N_5 
REMARK    4  A    between atoms: C_6  and  N_7 
REMARK    5  A    between atoms: C_8  and  N_9 
REMARK    6  A    between atoms: N_9  and  C_11 
REMARK    7  A    between atoms: C_11  and  C_12 
REMARK    8  A    between atoms: C_12  and  O_13 
ROOT
HETATM    1  N   UNL     1     -40.479 -52.882  13.418  1.00  0.00    -0.288 N 
HETATM    2  C   UNL     1     -40.170 -51.800  12.611  1.00  0.00     0.116 C 
HETATM    3  C   UNL     1     -39.182 -50.932  12.944  1.00  0.00     0.137 C 
HETATM    4  C   UNL     1     -38.419 -51.198  14.208  1.00  0.00     0.279 C 
HETATM    5  O   UNL     1     -37.402 -50.578  14.514  1.00  0.00    -0.265 OA
HETATM    6  N   UNL     1     -38.921 -52.178  15.010  1.00  0.00    -0.273 N 
HETATM    7  C   UNL     1     -39.861 -53.094  14.644  1.00  0.00     0.330 C 
HETATM    8  O   UNL     1     -40.098 -54.040  15.394  1.00  0.00    -0.246 OA
HETATM    9  H   UNL     1     -38.423 -52.370  15.864  1.00  0.00     0.173 HD
ENDROOT
BRANCH   3  10
HETATM   10  N   UNL     1     -38.847 -49.808  12.157  1.00  0.00    -0.376 N 
HETATM   11  C   UNL     1     -37.648 -49.848  11.322  1.00  0.00     0.150 C 
BRANCH  10  12
HETATM   12  C   UNL     1     -39.254 -48.461  12.606  1.00  0.00     0.149 C 
BRANCH  12  13
HETATM   13  C   UNL     1     -40.108 -47.775  11.526  1.00  0.00     0.186 C 
BRANCH  13  14
HETATM   14  O   UNL     1     -41.270 -48.565  11.250  1.00  0.00    -0.394 OA
HETATM   15  C   UNL     1     -42.054 -48.022  10.199  1.00  0.00     0.201 C 
ENDBRANCH  13  14
ENDBRANCH  12  13
ENDBRANCH  10  12
ENDBRANCH   3  10
BRANCH   2  16
HETATM   16  N   UNL     1     -40.876 -51.551  11.428  1.00  0.00    -0.286 NA
HETATM   17  H   UNL     1     -40.679 -50.620  11.084  1.00  0.00     0.125 HD
HETATM   18  H   UNL     1     -40.548 -52.231  10.734  1.00  0.00     0.125 HD
ENDBRANCH   2  16
BRANCH   1  19
HETATM   19  C   UNL     1     -41.475 -53.873  12.979  1.00  0.00     0.135 C 
BRANCH  19  20
HETATM   20  C   UNL     1     -42.891 -53.544  13.463  1.00  0.00     0.020 C 
BRANCH  20  21
HETATM   21  C   UNL     1     -43.463 -54.659  14.337  1.00  0.00    -0.003 C 
HETATM   22  C   UNL     1     -44.910 -54.949  13.971  1.00  0.00     0.005 C 
ENDBRANCH  20  21
ENDBRANCH  19  20
ENDBRANCH   1  19
TORSDOF 8
ENDMDL
