MODEL 1
REMARK VINA RESULT:      -6.6      0.000      0.000
REMARK  4 active torsions:
REMARK  status: ('A' for Active; 'I' for Inactive)
REMARK       I    between atoms: C_2  and  N_3 
REMARK       I    between atoms: C_2  and  N_14 
REMARK    1  A    between atoms: N_3  and  C_4 
REMARK    2  A    between atoms: C_4  and  C_5 
REMARK    3  A    between atoms: C_5  and  N_6 
REMARK    4  A    between atoms: N_14  and  C_15 
ROOT
HETATM    1  O   UNL     1     -41.465 -50.835  13.279  1.00  0.00    -0.247 OA
HETATM    2  C   UNL     1     -41.403 -51.212  12.116  1.00  0.00     0.320 C 
HETATM    3  N   UNL     1     -41.714 -52.502  11.734  1.00  0.00    -0.341 N 
HETATM    4  N   UNL     1     -41.010 -50.455  11.035  1.00  0.00    -0.308 N 
HETATM    5  H   UNL     1     -42.190 -52.553  10.843  1.00  0.00     0.164 HD
HETATM    6  H   UNL     1     -40.675 -50.982  10.240  1.00  0.00     0.170 HD
ENDROOT
BRANCH   3   7
HETATM    7  C   UNL     1     -42.217 -53.395  12.768  1.00  0.00     0.144 C 
BRANCH   7   8
HETATM    8  C   UNL     1     -43.691 -53.788  12.608  1.00  0.00     0.145 C 
BRANCH   8   9
HETATM    9  N   UNL     1     -44.484 -53.275  13.730  1.00  0.00    -0.351 N 
HETATM   10  C   UNL     1     -44.683 -51.830  13.830  1.00  0.00     0.126 C 
HETATM   11  C   UNL     1     -46.131 -51.403  13.646  1.00  0.00     0.020 C 
HETATM   12  C   UNL     1     -46.962 -51.481  14.926  1.00  0.00     0.002 C 
HETATM   13  C   UNL     1     -46.635 -52.639  15.867  1.00  0.00     0.009 C 
HETATM   14  C   UNL     1     -46.386 -53.955  15.159  1.00  0.00     0.103 C 
HETATM   15  C   UNL     1     -44.975 -54.185  14.651  1.00  0.00     0.219 C 
HETATM   16  O   UNL     1     -44.388 -55.238  14.908  1.00  0.00    -0.273 OA
ENDBRANCH   8   9
ENDBRANCH   7   8
ENDBRANCH   3   7
BRANCH   4  17
HETATM   17  C   UNL     1     -40.784 -49.062  11.033  1.00  0.00     0.051 A 
HETATM   18  C   UNL     1     -39.744 -48.447  11.729  1.00  0.00     0.032 A 
HETATM   19  C   UNL     1     -39.615 -47.058  11.701  1.00  0.00     0.019 A 
HETATM   20  C   UNL     1     -40.535 -46.323  10.973  1.00  0.00     0.088 A 
HETATM   21  N   UNL     1     -41.557 -46.876  10.289  1.00  0.00    -0.373 N 
HETATM   22  C   UNL     1     -41.656 -48.228  10.338  1.00  0.00     0.117 A 
ATOM     23  HN  UNL     1     -42.221 -46.307   9.762  1.00  0.00     0.164 HD
ENDBRANCH   4  17
TORSDOF 4
ENDMDL
MODEL 2
REMARK VINA RESULT:      -6.4      2.331      2.983
REMARK  4 active torsions:
REMARK  status: ('A' for Active; 'I' for Inactive)
REMARK       I    between atoms: C_2  and  N_3 
REMARK       I    between atoms: C_2  and  N_14 
REMARK    1  A    between atoms: N_3  and  C_4 
REMARK    2  A    between atoms: C_4  and  C_5 
REMARK    3  A    between atoms: C_5  and  N_6 
REMARK    4  A    between atoms: N_14  and  C_15 
ROOT
HETATM    1  O   UNL     1     -40.926 -53.811  12.783  1.00  0.00    -0.247 OA
HETATM    2  C   UNL     1     -41.351 -52.899  13.482  1.00  0.00     0.320 C 
HETATM    3  N   UNL     1     -42.395 -53.067  14.369  1.00  0.00    -0.341 N 
HETATM    4  N   UNL     1     -40.895 -51.600  13.490  1.00  0.00    -0.308 N 
HETATM    5  H   UNL     1     -42.279 -52.545  15.228  1.00  0.00     0.164 HD
HETATM    6  H   UNL     1     -41.555 -50.915  13.833  1.00  0.00     0.170 HD
ENDROOT
BRANCH   3   7
HETATM    7  C   UNL     1     -42.928 -54.413  14.518  1.00  0.00     0.144 C 
BRANCH   7   8
HETATM    8  C   UNL     1     -44.235 -54.667  13.756  1.00  0.00     0.145 C 
BRANCH   8   9
HETATM    9  N   UNL     1     -45.291 -53.769  14.232  1.00  0.00    -0.351 N 
HETATM   10  C   UNL     1     -45.787 -53.948  15.596  1.00  0.00     0.126 C 
HETATM   11  C   UNL     1     -45.475 -52.776  16.513  1.00  0.00     0.020 C 
HETATM   12  C   UNL     1     -46.494 -51.640  16.425  1.00  0.00     0.002 C 
HETATM   13  C   UNL     1     -47.083 -51.375  15.042  1.00  0.00     0.009 C 
HETATM   14  C   UNL     1     -46.068 -51.441  13.918  1.00  0.00     0.103 C 
HETATM   15  C   UNL     1     -45.785 -52.820  13.353  1.00  0.00     0.219 C 
HETATM   16  O   UNL     1     -45.815 -53.008  12.135  1.00  0.00    -0.273 OA
ENDBRANCH   8   9
ENDBRANCH   7   8
ENDBRANCH   3   7
BRANCH   4  17
HETATM   17  C   UNL     1     -39.740 -51.119  12.836  1.00  0.00     0.051 A 
HETATM   18  C   UNL     1     -38.444 -51.319  13.311  1.00  0.00     0.032 A 
HETATM   19  C   UNL     1     -37.361 -50.776  12.620  1.00  0.00     0.019 A 
HETATM   20  C   UNL     1     -37.608 -50.047  11.469  1.00  0.00     0.088 A 
HETATM   21  N   UNL     1     -38.844 -49.826  10.977  1.00  0.00    -0.373 N 
HETATM   22  C   UNL     1     -39.876 -50.365  11.673  1.00  0.00     0.117 A 
ATOM     23  HN  UNL     1     -38.994 -49.283  10.127  1.00  0.00     0.164 HD
ENDBRANCH   4  17
TORSDOF 4
ENDMDL
MODEL 3
REMARK VINA RESULT:      -6.4      1.584      2.224
REMARK  4 active torsions:
REMARK  status: ('A' for Active; 'I' for Inactive)
REMARK       I    between atoms: C_2  and  N_3 
REMARK       I    between atoms: C_2  and  N_14 
REMARK    1  A    between atoms: N_3  and  C_4 
REMARK    2  A    between atoms: C_4  and  C_5 
REMARK    3  A    between atoms: C_5  and  N_6 
REMARK    4  A    between atoms: N_14  and  C_15 
ROOT
HETATM    1  O   UNL     1     -42.126 -51.724  13.970  1.00  0.00    -0.247 OA
HETATM    2  C   UNL     1     -42.205 -52.087  12.803  1.00  0.00     0.320 C 
HETATM    3  N   UNL     1     -42.710 -53.320  12.440  1.00  0.00    -0.341 N 
HETATM    4  N   UNL     1     -41.801 -51.370  11.699  1.00  0.00    -0.308 N 
HETATM    5  H   UNL     1     -43.256 -53.294  11.589  1.00  0.00     0.164 HD
HETATM    6  H   UNL     1     -41.601 -51.924  10.877  1.00  0.00     0.170 HD
ENDROOT
BRANCH   3   7
HETATM    7  C   UNL     1     -43.242 -54.156  13.505  1.00  0.00     0.144 C 
BRANCH   7   8
HETATM    8  C   UNL     1     -44.679 -54.642  13.275  1.00  0.00     0.145 C 
BRANCH   8   9
HETATM    9  N   UNL     1     -45.635 -53.761  13.954  1.00  0.00    -0.351 N 
HETATM   10  C   UNL     1     -46.071 -54.124  15.302  1.00  0.00     0.126 C 
HETATM   11  C   UNL     1     -45.620 -53.141  16.371  1.00  0.00     0.020 C 
HETATM   12  C   UNL     1     -46.548 -51.938  16.530  1.00  0.00     0.002 C 
HETATM   13  C   UNL     1     -47.186 -51.410  15.246  1.00  0.00     0.009 C 
HETATM   14  C   UNL     1     -46.240 -51.364  14.063  1.00  0.00     0.103 C 
HETATM   15  C   UNL     1     -46.097 -52.650  13.270  1.00  0.00     0.219 C 
HETATM   16  O   UNL     1     -46.205 -52.634  12.043  1.00  0.00    -0.273 OA
ENDBRANCH   8   9
ENDBRANCH   7   8
ENDBRANCH   3   7
BRANCH   4  17
HETATM   17  C   UNL     1     -41.396 -50.018  11.686  1.00  0.00     0.051 A 
HETATM   18  C   UNL     1     -42.266 -48.949  11.894  1.00  0.00     0.032 A 
HETATM   19  C   UNL     1     -41.787 -47.641  11.828  1.00  0.00     0.019 A 
HETATM   20  C   UNL     1     -40.445 -47.441  11.555  1.00  0.00     0.088 A 
HETATM   21  N   UNL     1     -39.569 -48.445  11.344  1.00  0.00    -0.373 N 
HETATM   22  C   UNL     1     -40.067 -49.705  11.413  1.00  0.00     0.117 A 
ATOM     23  HN  UNL     1     -38.585 -48.266  11.143  1.00  0.00     0.164 HD
ENDBRANCH   4  17
TORSDOF 4
ENDMDL
MODEL 4
REMARK VINA RESULT:      -6.2      2.548      6.781
REMARK  4 active torsions:
REMARK  status: ('A' for Active; 'I' for Inactive)
REMARK       I    between atoms: C_2  and  N_3 
REMARK       I    between atoms: C_2  and  N_14 
REMARK    1  A    between atoms: N_3  and  C_4 
REMARK    2  A    between atoms: C_4  and  C_5 
REMARK    3  A    between atoms: C_5  and  N_6 
REMARK    4  A    between atoms: N_14  and  C_15 
ROOT
HETATM    1  O   UNL     1     -42.174 -50.644  13.122  1.00  0.00    -0.247 OA
HETATM    2  C   UNL     1     -41.901 -51.374  12.178  1.00  0.00     0.320 C 
HETATM    3  N   UNL     1     -40.923 -51.063  11.255  1.00  0.00    -0.341 N 
HETATM    4  N   UNL     1     -42.510 -52.571  11.873  1.00  0.00    -0.308 N 
HETATM    5  H   UNL     1     -40.396 -51.868  10.943  1.00  0.00     0.164 HD
HETATM    6  H   UNL     1     -42.430 -52.860  10.907  1.00  0.00     0.170 HD
ENDROOT
BRANCH   3   7
HETATM    7  C   UNL     1     -40.146 -49.857  11.496  1.00  0.00     0.144 C 
BRANCH   7   8
HETATM    8  C   UNL     1     -38.648 -50.099  11.723  1.00  0.00     0.145 C 
BRANCH   8   9
HETATM    9  N   UNL     1     -38.348 -50.158  13.157  1.00  0.00    -0.351 N 
HETATM   10  C   UNL     1     -37.743 -48.984  13.785  1.00  0.00     0.126 C 
HETATM   11  C   UNL     1     -38.643 -48.313  14.810  1.00  0.00     0.020 C 
HETATM   12  C   UNL     1     -38.565 -48.942  16.201  1.00  0.00     0.002 C 
HETATM   13  C   UNL     1     -38.382 -50.457  16.241  1.00  0.00     0.009 C 
HETATM   14  C   UNL     1     -39.219 -51.205  15.223  1.00  0.00     0.103 C 
HETATM   15  C   UNL     1     -38.624 -51.334  13.833  1.00  0.00     0.219 C 
HETATM   16  O   UNL     1     -38.581 -52.434  13.279  1.00  0.00    -0.273 OA
ENDBRANCH   8   9
ENDBRANCH   7   8
ENDBRANCH   3   7
BRANCH   4  17
HETATM   17  C   UNL     1     -43.429 -53.269  12.686  1.00  0.00     0.051 A 
HETATM   18  C   UNL     1     -43.051 -54.179  13.673  1.00  0.00     0.032 A 
HETATM   19  C   UNL     1     -44.027 -54.853  14.407  1.00  0.00     0.019 A 
HETATM   20  C   UNL     1     -45.359 -54.594  14.130  1.00  0.00     0.088 A 
HETATM   21  N   UNL     1     -45.769 -53.726  13.182  1.00  0.00    -0.373 N 
HETATM   22  C   UNL     1     -44.795 -53.089  12.485  1.00  0.00     0.117 A 
ATOM     23  HN  UNL     1     -46.758 -53.558  13.000  1.00  0.00     0.164 HD
ENDBRANCH   4  17
TORSDOF 4
ENDMDL
MODEL 5
REMARK VINA RESULT:      -6.1      2.137      3.012
REMARK  4 active torsions:
REMARK  status: ('A' for Active; 'I' for Inactive)
REMARK       I    between atoms: C_2  and  N_3 
REMARK       I    between atoms: C_2  and  N_14 
REMARK    1  A    between atoms: N_3  and  C_4 
REMARK    2  A    between atoms: C_4  and  C_5 
REMARK    3  A    between atoms: C_5  and  N_6 
REMARK    4  A    between atoms: N_14  and  C_15 
ROOT
HETATM    1  O   UNL     1     -41.156 -49.415  12.772  1.00  0.00    -0.247 OA
HETATM    2  C   UNL     1     -41.043 -49.644  11.574  1.00  0.00     0.320 C 
HETATM    3  N   UNL     1     -40.925 -50.923  11.069  1.00  0.00    -0.341 N 
HETATM    4  N   UNL     1     -40.996 -48.705  10.568  1.00  0.00    -0.308 N 
HETATM    5  H   UNL     1     -41.409 -51.054  10.192  1.00  0.00     0.164 HD
HETATM    6  H   UNL     1     -40.552 -49.014   9.713  1.00  0.00     0.170 HD
ENDROOT
BRANCH   3   7
HETATM    7  C   UNL     1     -41.032 -52.021  12.018  1.00  0.00     0.144 C 
BRANCH   7   8
HETATM    8  C   UNL     1     -42.456 -52.557  12.212  1.00  0.00     0.145 C 
BRANCH   8   9
HETATM    9  N   UNL     1     -42.459 -53.676  13.160  1.00  0.00    -0.351 N 
HETATM   10  C   UNL     1     -41.179 -54.114  13.715  1.00  0.00     0.126 C 
HETATM   11  C   UNL     1     -41.056 -53.884  15.213  1.00  0.00     0.020 C 
HETATM   12  C   UNL     1     -41.664 -55.002  16.058  1.00  0.00     0.002 C 
HETATM   13  C   UNL     1     -42.928 -55.651  15.501  1.00  0.00     0.009 C 
HETATM   14  C   UNL     1     -43.912 -54.667  14.901  1.00  0.00     0.103 C 
HETATM   15  C   UNL     1     -43.671 -54.278  13.454  1.00  0.00     0.219 C 
HETATM   16  O   UNL     1     -44.594 -54.325  12.639  1.00  0.00    -0.273 OA
ENDBRANCH   8   9
ENDBRANCH   7   8
ENDBRANCH   3   7
BRANCH   4  17
HETATM   17  C   UNL     1     -41.252 -47.324  10.704  1.00  0.00     0.051 A 
HETATM   18  C   UNL     1     -40.260 -46.374  10.941  1.00  0.00     0.032 A 
HETATM   19  C   UNL     1     -40.607 -45.032  11.099  1.00  0.00     0.019 A 
HETATM   20  C   UNL     1     -41.943 -44.680  11.014  1.00  0.00     0.088 A 
HETATM   21  N   UNL     1     -42.935 -45.566  10.791  1.00  0.00    -0.373 N 
HETATM   22  C   UNL     1     -42.565 -46.863  10.644  1.00  0.00     0.117 A 
ATOM     23  HN  UNL     1     -43.912 -45.276  10.735  1.00  0.00     0.164 HD
ENDBRANCH   4  17
TORSDOF 4
ENDMDL
MODEL 6
REMARK VINA RESULT:      -6.0      1.927      7.583
REMARK  4 active torsions:
REMARK  status: ('A' for Active; 'I' for Inactive)
REMARK       I    between atoms: C_2  and  N_3 
REMARK       I    between atoms: C_2  and  N_14 
REMARK    1  A    between atoms: N_3  and  C_4 
REMARK    2  A    between atoms: C_4  and  C_5 
REMARK    3  A    between atoms: C_5  and  N_6 
REMARK    4  A    between atoms: N_14  and  C_15 
ROOT
HETATM    1  O   UNL     1     -42.176 -50.951  13.363  1.00  0.00    -0.247 OA
HETATM    2  C   UNL     1     -42.045 -51.611  12.339  1.00  0.00     0.320 C 
HETATM    3  N   UNL     1     -41.085 -51.326  11.388  1.00  0.00    -0.341 N 
HETATM    4  N   UNL     1     -42.812 -52.692  11.965  1.00  0.00    -0.308 N 
HETATM    5  H   UNL     1     -40.679 -52.152  10.970  1.00  0.00     0.164 HD
HETATM    6  H   UNL     1     -42.819 -52.889  10.973  1.00  0.00     0.170 HD
ENDROOT
BRANCH   3   7
HETATM    7  C   UNL     1     -40.154 -50.249  11.690  1.00  0.00     0.144 C 
BRANCH   7   8
HETATM    8  C   UNL     1     -40.446 -48.932  10.960  1.00  0.00     0.145 C 
BRANCH   8   9
HETATM    9  N   UNL     1     -40.362 -47.800  11.889  1.00  0.00    -0.351 N 
HETATM   10  C   UNL     1     -40.054 -48.079  13.290  1.00  0.00     0.126 C 
HETATM   11  C   UNL     1     -38.712 -47.520  13.739  1.00  0.00     0.020 C 
HETATM   12  C   UNL     1     -38.770 -46.057  14.172  1.00  0.00     0.002 C 
HETATM   13  C   UNL     1     -39.730 -45.164  13.389  1.00  0.00     0.009 C 
HETATM   14  C   UNL     1     -39.719 -45.411  11.894  1.00  0.00     0.103 C 
HETATM   15  C   UNL     1     -40.612 -46.532  11.394  1.00  0.00     0.219 C 
HETATM   16  O   UNL     1     -41.382 -46.335  10.452  1.00  0.00    -0.273 OA
ENDBRANCH   8   9
ENDBRANCH   7   8
ENDBRANCH   3   7
BRANCH   4  17
HETATM   17  C   UNL     1     -43.765 -53.355  12.766  1.00  0.00     0.051 A 
HETATM   18  C   UNL     1     -43.439 -54.335  13.703  1.00  0.00     0.032 A 
HETATM   19  C   UNL     1     -44.449 -54.966  14.428  1.00  0.00     0.019 A 
HETATM   20  C   UNL     1     -45.762 -54.595  14.194  1.00  0.00     0.088 A 
HETATM   21  N   UNL     1     -46.123 -53.655  13.295  1.00  0.00    -0.373 N 
HETATM   22  C   UNL     1     -45.117 -53.062  12.605  1.00  0.00     0.117 A 
ATOM     23  HN  UNL     1     -47.100 -53.404  13.143  1.00  0.00     0.164 HD
ENDBRANCH   4  17
TORSDOF 4
ENDMDL
MODEL 7
REMARK VINA RESULT:      -6.0      2.146      7.663
REMARK  4 active torsions:
REMARK  status: ('A' for Active; 'I' for Inactive)
REMARK       I    between atoms: C_2  and  N_3 
REMARK       I    between atoms: C_2  and  N_14 
REMARK    1  A    between atoms: N_3  and  C_4 
REMARK    2  A    between atoms: C_4  and  C_5 
REMARK    3  A    between atoms: C_5  and  N_6 
REMARK    4  A    between atoms: N_14  and  C_15 
ROOT
HETATM    1  O   UNL     1     -42.294 -50.493  12.990  1.00  0.00    -0.247 OA
HETATM    2  C   UNL     1     -41.865 -51.173  12.066  1.00  0.00     0.320 C 
HETATM    3  N   UNL     1     -41.002 -50.671  11.112  1.00  0.00    -0.341 N 
HETATM    4  N   UNL     1     -42.170 -52.492  11.817  1.00  0.00    -0.308 N 
HETATM    5  H   UNL     1     -40.301 -51.336  10.816  1.00  0.00     0.164 HD
HETATM    6  H   UNL     1     -42.035 -52.790  10.860  1.00  0.00     0.170 HD
ENDROOT
BRANCH   3   7
HETATM    7  C   UNL     1     -40.537 -49.304  11.294  1.00  0.00     0.144 C 
BRANCH   7   8
HETATM    8  C   UNL     1     -41.383 -48.244  10.579  1.00  0.00     0.145 C 
BRANCH   8   9
HETATM    9  N   UNL     1     -41.178 -46.925  11.188  1.00  0.00    -0.351 N 
HETATM   10  C   UNL     1     -39.845 -46.330  11.110  1.00  0.00     0.126 C 
HETATM   11  C   UNL     1     -39.792 -45.067  10.265  1.00  0.00     0.020 C 
HETATM   12  C   UNL     1     -40.177 -43.801  11.028  1.00  0.00     0.002 C 
HETATM   13  C   UNL     1     -41.278 -43.959  12.074  1.00  0.00     0.009 C 
HETATM   14  C   UNL     1     -42.430 -44.837  11.628  1.00  0.00     0.103 C 
HETATM   15  C   UNL     1     -42.249 -46.330  11.831  1.00  0.00     0.219 C 
HETATM   16  O   UNL     1     -43.132 -46.990  12.382  1.00  0.00    -0.273 OA
ENDBRANCH   8   9
ENDBRANCH   7   8
ENDBRANCH   3   7
BRANCH   4  17
HETATM   17  C   UNL     1     -42.882 -53.359  12.673  1.00  0.00     0.051 A 
HETATM   18  C   UNL     1     -44.246 -53.618  12.549  1.00  0.00     0.032 A 
HETATM   19  C   UNL     1     -44.878 -54.461  13.463  1.00  0.00     0.019 A 
HETATM   20  C   UNL     1     -44.123 -55.022  14.479  1.00  0.00     0.088 A 
HETATM   21  N   UNL     1     -42.803 -54.794  14.638  1.00  0.00    -0.373 N 
HETATM   22  C   UNL     1     -42.218 -53.969  13.735  1.00  0.00     0.117 A 
ATOM     23  HN  UNL     1     -42.273 -55.221  15.399  1.00  0.00     0.164 HD
ENDBRANCH   4  17
TORSDOF 4
ENDMDL
MODEL 8
REMARK VINA RESULT:      -5.9      1.899      2.566
REMARK  4 active torsions:
REMARK  status: ('A' for Active; 'I' for Inactive)
REMARK       I    between atoms: C_2  and  N_3 
REMARK       I    between atoms: C_2  and  N_14 
REMARK    1  A    between atoms: N_3  and  C_4 
REMARK    2  A    between atoms: C_4  and  C_5 
REMARK    3  A    between atoms: C_5  and  N_6 
REMARK    4  A    between atoms: N_14  and  C_15 
ROOT
HETATM    1  O   UNL     1     -40.550 -49.079  12.901  1.00  0.00    -0.247 OA
HETATM    2  C   UNL     1     -40.673 -49.420  11.731  1.00  0.00     0.320 C 
HETATM    3  N   UNL     1     -40.528 -50.729  11.318  1.00  0.00    -0.341 N 
HETATM    4  N   UNL     1     -40.943 -48.589  10.666  1.00  0.00    -0.308 N 
HETATM    5  H   UNL     1     -41.173 -50.992  10.585  1.00  0.00     0.164 HD
HETATM    6  H   UNL     1     -40.662 -48.945   9.762  1.00  0.00     0.170 HD
ENDROOT
BRANCH   3   7
HETATM    7  C   UNL     1     -40.312 -51.729  12.354  1.00  0.00     0.144 C 
BRANCH   7   8
HETATM    8  C   UNL     1     -41.035 -53.060  12.115  1.00  0.00     0.145 C 
BRANCH   8   9
HETATM    9  N   UNL     1     -42.134 -53.227  13.072  1.00  0.00    -0.351 N 
HETATM   10  C   UNL     1     -43.364 -52.469  12.850  1.00  0.00     0.126 C 
HETATM   11  C   UNL     1     -44.566 -53.344  12.531  1.00  0.00     0.020 C 
HETATM   12  C   UNL     1     -45.274 -53.891  13.770  1.00  0.00     0.002 C 
HETATM   13  C   UNL     1     -44.375 -54.253  14.949  1.00  0.00     0.009 C 
HETATM   14  C   UNL     1     -43.095 -54.961  14.553  1.00  0.00     0.103 C 
HETATM   15  C   UNL     1     -41.934 -54.069  14.152  1.00  0.00     0.219 C 
HETATM   16  O   UNL     1     -40.820 -54.243  14.651  1.00  0.00    -0.273 OA
ENDBRANCH   8   9
ENDBRANCH   7   8
ENDBRANCH   3   7
BRANCH   4  17
HETATM   17  C   UNL     1     -41.311 -47.229  10.743  1.00  0.00     0.051 A 
HETATM   18  C   UNL     1     -40.393 -46.180  10.763  1.00  0.00     0.032 A 
HETATM   19  C   UNL     1     -40.843 -44.865  10.877  1.00  0.00     0.019 A 
HETATM   20  C   UNL     1     -42.205 -44.638  10.969  1.00  0.00     0.088 A 
HETATM   21  N   UNL     1     -43.128 -45.622  10.958  1.00  0.00    -0.373 N 
HETATM   22  C   UNL     1     -42.658 -46.890  10.848  1.00  0.00     0.117 A 
ATOM     23  HN  UNL     1     -44.126 -45.423  11.029  1.00  0.00     0.164 HD
ENDBRANCH   4  17
TORSDOF 4
ENDMDL
MODEL 9
REMARK VINA RESULT:      -5.8      2.152      7.355
REMARK  4 active torsions:
REMARK  status: ('A' for Active; 'I' for Inactive)
REMARK       I    between atoms: C_2  and  N_3 
REMARK       I    between atoms: C_2  and  N_14 
REMARK    1  A    between atoms: N_3  and  C_4 
REMARK    2  A    between atoms: C_4  and  C_5 
REMARK    3  A    between atoms: C_5  and  N_6 
REMARK    4  A    between atoms: N_14  and  C_15 
ROOT
HETATM    1  O   UNL     1     -42.242 -51.558  13.534  1.00  0.00    -0.247 OA
HETATM    2  C   UNL     1     -42.316 -52.108  12.442  1.00  0.00     0.320 C 
HETATM    3  N   UNL     1     -41.347 -51.965  11.470  1.00  0.00    -0.341 N 
HETATM    4  N   UNL     1     -43.346 -52.911  12.005  1.00  0.00    -0.308 N 
HETATM    5  H   UNL     1     -41.178 -52.812  10.945  1.00  0.00     0.164 HD
HETATM    6  H   UNL     1     -43.435 -52.986  11.000  1.00  0.00     0.170 HD
ENDROOT
BRANCH   3   7
HETATM    7  C   UNL     1     -40.162 -51.198  11.824  1.00  0.00     0.144 C 
BRANCH   7   8
HETATM    8  C   UNL     1     -40.127 -49.778  11.246  1.00  0.00     0.145 C 
BRANCH   8   9
HETATM    9  N   UNL     1     -39.400 -48.874  12.144  1.00  0.00    -0.351 N 
HETATM   10  C   UNL     1     -40.123 -47.737  12.711  1.00  0.00     0.126 C 
HETATM   11  C   UNL     1     -40.291 -47.817  14.221  1.00  0.00     0.020 C 
HETATM   12  C   UNL     1     -39.090 -47.284  15.001  1.00  0.00     0.002 C 
HETATM   13  C   UNL     1     -37.719 -47.549  14.383  1.00  0.00     0.009 C 
HETATM   14  C   UNL     1     -37.565 -48.939  13.801  1.00  0.00     0.103 C 
HETATM   15  C   UNL     1     -38.061 -49.128  12.380  1.00  0.00     0.219 C 
HETATM   16  O   UNL     1     -37.338 -49.668  11.539  1.00  0.00    -0.273 OA
ENDBRANCH   8   9
ENDBRANCH   7   8
ENDBRANCH   3   7
BRANCH   4  17
HETATM   17  C   UNL     1     -44.410 -53.402  12.790  1.00  0.00     0.051 A 
HETATM   18  C   UNL     1     -44.370 -54.616  13.474  1.00  0.00     0.032 A 
HETATM   19  C   UNL     1     -45.483 -55.042  14.199  1.00  0.00     0.019 A 
HETATM   20  C   UNL     1     -46.608 -54.237  14.217  1.00  0.00     0.088 A 
HETATM   21  N   UNL     1     -46.693 -53.058  13.567  1.00  0.00    -0.373 N 
HETATM   22  C   UNL     1     -45.594 -52.673  12.870  1.00  0.00     0.117 A 
ATOM     23  HN  UNL     1     -47.537 -52.486  13.598  1.00  0.00     0.164 HD
ENDBRANCH   4  17
TORSDOF 4
ENDMDL
