MODEL 1
REMARK VINA RESULT:      -5.9      0.000      0.000
REMARK  6 active torsions:
REMARK  status: ('A' for Active; 'I' for Inactive)
REMARK    1  A    between atoms: C_2  and  C_4 
REMARK    2  A    between atoms: C_4  and  N_5 
REMARK    3  A    between atoms: C_9  and  C_10 
REMARK    4  A    between atoms: C_10  and  N_11 
REMARK       I    between atoms: N_11  and  C_12 
REMARK    5  A    between atoms: C_12  and  C_14 
REMARK    6  A    between atoms: C_14  and  N_15 
ROOT
HETATM    1  C   UNL     1     -40.834 -53.264  12.243  1.00  0.00     0.156 C 
ENDROOT
BRANCH   1   2
HETATM    2  C   UNL     1     -42.049 -53.278  13.186  1.00  0.00     0.167 C 
HETATM    3  O   UNL     1     -42.043 -54.524  13.912  1.00  0.00    -0.381 OA
HETATM    4  C   UNL     1     -43.169 -54.614  14.798  1.00  0.00     0.198 C 
HETATM    5  C   UNL     1     -44.508 -54.417  14.062  1.00  0.00     0.298 C 
HETATM    6  N   UNL     1     -44.579 -53.186  13.241  1.00  0.00     0.093 N 
HETATM    7  C   UNL     1     -43.371 -53.156  12.392  1.00  0.00     0.305 C 
BRANCH   6   8
HETATM    8  C   UNL     1     -44.745 -51.981  14.077  1.00  0.00     0.276 C 
BRANCH   8   9
HETATM    9  C   UNL     1     -46.097 -51.241  13.909  1.00  0.00     0.006 C 
HETATM   10  C   UNL     1     -46.800 -51.599  12.599  1.00  0.00     0.011 C 
HETATM   11  C   UNL     1     -47.019 -51.550  15.092  1.00  0.00     0.011 C 
ENDBRANCH   8   9
ENDBRANCH   6   8
ENDBRANCH   1   2
BRANCH   1  12
HETATM   12  N   UNL     1     -40.676 -52.006  11.529  1.00  0.00    -0.357 N 
HETATM   13  C   UNL     1     -40.110 -50.879  12.087  1.00  0.00     0.237 C 
HETATM   14  O   UNL     1     -39.674 -50.835  13.233  1.00  0.00    -0.272 OA
HETATM   15  H   UNL     1     -41.066 -51.922  10.596  1.00  0.00     0.162 HD
BRANCH  13  16
HETATM   16  C   UNL     1     -40.051 -49.693  11.156  1.00  0.00     0.250 C 
BRANCH  16  17
HETATM   17  N   UNL     1     -41.333 -49.028  11.096  1.00  0.00    -0.295 N 
HETATM   18  C   UNL     1     -42.265 -48.957  12.091  1.00  0.00     0.112 A 
HETATM   19  C   UNL     1     -43.287 -48.181  11.600  1.00  0.00     0.037 A 
HETATM   20  C   UNL     1     -42.879 -47.833  10.300  1.00  0.00     0.108 A 
HETATM   21  N   UNL     1     -41.686 -48.348   9.984  1.00  0.00    -0.310 N 
ATOM     22  HN  UNL     1     -41.167 -48.251   9.111  1.00  0.00     0.186 HD
ENDBRANCH  16  17
ENDBRANCH  13  16
ENDBRANCH   1  12
TORSDOF 6
ENDMDL
MODEL 2
REMARK VINA RESULT:      -5.7      1.770      2.204
REMARK  6 active torsions:
REMARK  status: ('A' for Active; 'I' for Inactive)
REMARK    1  A    between atoms: C_2  and  C_4 
REMARK    2  A    between atoms: C_4  and  N_5 
REMARK    3  A    between atoms: C_9  and  C_10 
REMARK    4  A    between atoms: C_10  and  N_11 
REMARK       I    between atoms: N_11  and  C_12 
REMARK    5  A    between atoms: C_12  and  C_14 
REMARK    6  A    between atoms: C_14  and  N_15 
ROOT
HETATM    1  C   UNL     1     -40.687 -51.522  12.240  1.00  0.00     0.156 C 
ENDROOT
BRANCH   1   2
HETATM    2  C   UNL     1     -41.725 -52.127  13.200  1.00  0.00     0.167 C 
HETATM    3  O   UNL     1     -41.105 -53.223  13.903  1.00  0.00    -0.381 OA
HETATM    4  C   UNL     1     -42.029 -53.852  14.803  1.00  0.00     0.198 C 
HETATM    5  C   UNL     1     -43.313 -54.317  14.091  1.00  0.00     0.298 C 
HETATM    6  N   UNL     1     -43.986 -53.264  13.294  1.00  0.00     0.093 N 
HETATM    7  C   UNL     1     -42.959 -52.649  12.428  1.00  0.00     0.305 C 
BRANCH   6   8
HETATM    8  C   UNL     1     -44.692 -52.295  14.154  1.00  0.00     0.276 C 
BRANCH   8   9
HETATM    9  C   UNL     1     -46.228 -52.231  13.955  1.00  0.00     0.006 C 
HETATM   10  C   UNL     1     -46.924 -51.405  15.038  1.00  0.00     0.011 C 
HETATM   11  C   UNL     1     -46.557 -51.654  12.575  1.00  0.00     0.011 C 
ENDBRANCH   8   9
ENDBRANCH   6   8
ENDBRANCH   1   2
BRANCH   1  12
HETATM   12  N   UNL     1     -41.242 -50.500  11.365  1.00  0.00    -0.357 N 
HETATM   13  C   UNL     1     -41.100 -49.147  11.588  1.00  0.00     0.237 C 
HETATM   14  O   UNL     1     -40.481 -48.676  12.536  1.00  0.00    -0.272 OA
HETATM   15  H   UNL     1     -41.828 -50.789  10.588  1.00  0.00     0.162 HD
BRANCH  13  16
HETATM   16  C   UNL     1     -41.760 -48.278  10.544  1.00  0.00     0.250 C 
BRANCH  16  17
HETATM   17  N   UNL     1     -41.281 -46.917  10.639  1.00  0.00    -0.295 N 
HETATM   18  C   UNL     1     -42.029 -45.801  10.886  1.00  0.00     0.112 A 
HETATM   19  C   UNL     1     -41.141 -44.755  10.943  1.00  0.00     0.037 A 
HETATM   20  C   UNL     1     -39.882 -45.339  10.716  1.00  0.00     0.108 A 
HETATM   21  N   UNL     1     -39.959 -46.661  10.528  1.00  0.00    -0.310 N 
ATOM     22  HN  UNL     1     -39.201 -47.318  10.344  1.00  0.00     0.186 HD
ENDBRANCH  16  17
ENDBRANCH  13  16
ENDBRANCH   1  12
TORSDOF 6
ENDMDL
MODEL 3
REMARK VINA RESULT:      -5.6      1.871      2.608
REMARK  6 active torsions:
REMARK  status: ('A' for Active; 'I' for Inactive)
REMARK    1  A    between atoms: C_2  and  C_4 
REMARK    2  A    between atoms: C_4  and  N_5 
REMARK    3  A    between atoms: C_9  and  C_10 
REMARK    4  A    between atoms: C_10  and  N_11 
REMARK       I    between atoms: N_11  and  C_12 
REMARK    5  A    between atoms: C_12  and  C_14 
REMARK    6  A    between atoms: C_14  and  N_15 
ROOT
HETATM    1  C   UNL     1     -42.116 -51.380  12.445  1.00  0.00     0.156 C 
ENDROOT
BRANCH   1   2
HETATM    2  C   UNL     1     -43.185 -52.177  13.213  1.00  0.00     0.167 C 
HETATM    3  O   UNL     1     -43.568 -53.311  12.409  1.00  0.00    -0.381 OA
HETATM    4  C   UNL     1     -44.584 -54.089  13.058  1.00  0.00     0.198 C 
HETATM    5  C   UNL     1     -45.817 -53.244  13.432  1.00  0.00     0.298 C 
HETATM    6  N   UNL     1     -45.507 -52.023  14.212  1.00  0.00     0.093 N 
HETATM    7  C   UNL     1     -44.432 -51.307  13.495  1.00  0.00     0.305 C 
BRANCH   6   8
HETATM    8  C   UNL     1     -45.173 -52.340  15.614  1.00  0.00     0.276 C 
BRANCH   8   9
HETATM    9  C   UNL     1     -45.984 -51.560  16.680  1.00  0.00     0.006 C 
HETATM   10  C   UNL     1     -45.364 -50.200  17.005  1.00  0.00     0.011 C 
HETATM   11  C   UNL     1     -47.429 -51.369  16.209  1.00  0.00     0.011 C 
ENDBRANCH   8   9
ENDBRANCH   6   8
ENDBRANCH   1   2
BRANCH   1  12
HETATM   12  N   UNL     1     -42.520 -50.012  12.154  1.00  0.00    -0.357 N 
HETATM   13  C   UNL     1     -41.748 -49.128  11.431  1.00  0.00     0.237 C 
HETATM   14  O   UNL     1     -40.656 -49.414  10.952  1.00  0.00    -0.272 OA
HETATM   15  H   UNL     1     -43.378 -49.659  12.564  1.00  0.00     0.162 HD
BRANCH  13  16
HETATM   16  C   UNL     1     -42.373 -47.765  11.255  1.00  0.00     0.250 C 
BRANCH  16  17
HETATM   17  N   UNL     1     -43.170 -47.723  10.050  1.00  0.00    -0.295 N 
HETATM   18  C   UNL     1     -44.500 -47.424   9.958  1.00  0.00     0.112 A 
HETATM   19  C   UNL     1     -44.803 -47.451   8.619  1.00  0.00     0.037 A 
HETATM   20  C   UNL     1     -43.591 -47.776   7.983  1.00  0.00     0.108 A 
HETATM   21  N   UNL     1     -42.589 -47.945   8.852  1.00  0.00    -0.310 N 
ATOM     22  HN  UNL     1     -41.617 -48.185   8.656  1.00  0.00     0.186 HD
ENDBRANCH  16  17
ENDBRANCH  13  16
ENDBRANCH   1  12
TORSDOF 6
ENDMDL
MODEL 4
REMARK VINA RESULT:      -5.6      1.940      6.394
REMARK  6 active torsions:
REMARK  status: ('A' for Active; 'I' for Inactive)
REMARK    1  A    between atoms: C_2  and  C_4 
REMARK    2  A    between atoms: C_4  and  N_5 
REMARK    3  A    between atoms: C_9  and  C_10 
REMARK    4  A    between atoms: C_10  and  N_11 
REMARK       I    between atoms: N_11  and  C_12 
REMARK    5  A    between atoms: C_12  and  C_14 
REMARK    6  A    between atoms: C_14  and  N_15 
ROOT
HETATM    1  C   UNL     1     -41.556 -50.487  12.482  1.00  0.00     0.156 C 
ENDROOT
BRANCH   1   2
HETATM    2  C   UNL     1     -41.602 -49.242  11.580  1.00  0.00     0.167 C 
HETATM    3  O   UNL     1     -40.517 -48.371  11.956  1.00  0.00    -0.381 OA
HETATM    4  C   UNL     1     -40.515 -47.172  11.167  1.00  0.00     0.198 C 
HETATM    5  C   UNL     1     -41.862 -46.427  11.233  1.00  0.00     0.298 C 
HETATM    6  N   UNL     1     -43.041 -47.267  10.916  1.00  0.00     0.093 N 
HETATM    7  C   UNL     1     -42.943 -48.488  11.741  1.00  0.00     0.305 C 
BRANCH   6   8
HETATM    8  C   UNL     1     -43.146 -47.537   9.469  1.00  0.00     0.276 C 
BRANCH   8   9
HETATM    9  C   UNL     1     -44.424 -46.989   8.785  1.00  0.00     0.006 C 
HETATM   10  C   UNL     1     -45.699 -47.648   9.315  1.00  0.00     0.011 C 
HETATM   11  C   UNL     1     -44.512 -45.471   8.969  1.00  0.00     0.011 C 
ENDBRANCH   8   9
ENDBRANCH   6   8
ENDBRANCH   1   2
BRANCH   1  12
HETATM   12  N   UNL     1     -42.521 -51.508  12.101  1.00  0.00    -0.357 N 
HETATM   13  C   UNL     1     -43.160 -52.328  13.007  1.00  0.00     0.237 C 
HETATM   14  O   UNL     1     -42.987 -52.265  14.219  1.00  0.00    -0.272 OA
HETATM   15  H   UNL     1     -42.683 -51.682  11.115  1.00  0.00     0.162 HD
BRANCH  13  16
HETATM   16  C   UNL     1     -44.120 -53.310  12.379  1.00  0.00     0.250 C 
BRANCH  16  17
HETATM   17  N   UNL     1     -45.190 -53.632  13.297  1.00  0.00    -0.295 N 
HETATM   18  C   UNL     1     -45.471 -54.859  13.827  1.00  0.00     0.112 A 
HETATM   19  C   UNL     1     -46.528 -54.669  14.684  1.00  0.00     0.037 A 
HETATM   20  C   UNL     1     -46.814 -53.294  14.600  1.00  0.00     0.108 A 
HETATM   21  N   UNL     1     -46.001 -52.654  13.754  1.00  0.00    -0.310 N 
ATOM     22  HN  UNL     1     -45.996 -51.663  13.511  1.00  0.00     0.186 HD
ENDBRANCH  16  17
ENDBRANCH  13  16
ENDBRANCH   1  12
TORSDOF 6
ENDMDL
MODEL 5
REMARK VINA RESULT:      -5.5      2.128      2.842
REMARK  6 active torsions:
REMARK  status: ('A' for Active; 'I' for Inactive)
REMARK    1  A    between atoms: C_2  and  C_4 
REMARK    2  A    between atoms: C_4  and  N_5 
REMARK    3  A    between atoms: C_9  and  C_10 
REMARK    4  A    between atoms: C_10  and  N_11 
REMARK       I    between atoms: N_11  and  C_12 
REMARK    5  A    between atoms: C_12  and  C_14 
REMARK    6  A    between atoms: C_14  and  N_15 
ROOT
HETATM    1  C   UNL     1     -39.582 -50.897  11.730  1.00  0.00     0.156 C 
ENDROOT
BRANCH   1   2
HETATM    2  C   UNL     1     -40.429 -51.774  12.669  1.00  0.00     0.167 C 
HETATM    3  O   UNL     1     -39.652 -52.936  13.023  1.00  0.00    -0.381 OA
HETATM    4  C   UNL     1     -40.394 -53.815  13.882  1.00  0.00     0.198 C 
HETATM    5  C   UNL     1     -41.746 -54.227  13.269  1.00  0.00     0.298 C 
HETATM    6  N   UNL     1     -42.586 -53.092  12.822  1.00  0.00     0.093 N 
HETATM    7  C   UNL     1     -41.737 -52.225  11.978  1.00  0.00     0.305 C 
BRANCH   6   8
HETATM    8  C   UNL     1     -43.203 -52.387  13.962  1.00  0.00     0.276 C 
BRANCH   8   9
HETATM    9  C   UNL     1     -44.054 -51.145  13.590  1.00  0.00     0.006 C 
HETATM   10  C   UNL     1     -45.531 -51.322  13.943  1.00  0.00     0.011 C 
HETATM   11  C   UNL     1     -43.502 -49.899  14.288  1.00  0.00     0.011 C 
ENDBRANCH   8   9
ENDBRANCH   6   8
ENDBRANCH   1   2
BRANCH   1  12
HETATM   12  N   UNL     1     -40.375 -49.947  10.962  1.00  0.00    -0.357 N 
HETATM   13  C   UNL     1     -40.759 -48.713  11.441  1.00  0.00     0.237 C 
HETATM   14  O   UNL     1     -40.457 -48.292  12.553  1.00  0.00    -0.272 OA
HETATM   15  H   UNL     1     -40.730 -50.230  10.055  1.00  0.00     0.162 HD
BRANCH  13  16
HETATM   16  C   UNL     1     -41.575 -47.900  10.465  1.00  0.00     0.250 C 
BRANCH  16  17
HETATM   17  N   UNL     1     -41.241 -46.497  10.569  1.00  0.00    -0.295 N 
HETATM   18  C   UNL     1     -42.065 -45.487  10.977  1.00  0.00     0.112 A 
HETATM   19  C   UNL     1     -41.300 -44.347  10.970  1.00  0.00     0.037 A 
HETATM   20  C   UNL     1     -40.029 -44.770  10.540  1.00  0.00     0.108 A 
HETATM   21  N   UNL     1     -39.985 -46.083  10.292  1.00  0.00    -0.310 N 
ATOM     22  HN  UNL     1     -39.193 -46.639   9.970  1.00  0.00     0.186 HD
ENDBRANCH  16  17
ENDBRANCH  13  16
ENDBRANCH   1  12
TORSDOF 6
ENDMDL
MODEL 6
REMARK VINA RESULT:      -5.5      1.306      5.454
REMARK  6 active torsions:
REMARK  status: ('A' for Active; 'I' for Inactive)
REMARK    1  A    between atoms: C_2  and  C_4 
REMARK    2  A    between atoms: C_4  and  N_5 
REMARK    3  A    between atoms: C_9  and  C_10 
REMARK    4  A    between atoms: C_10  and  N_11 
REMARK       I    between atoms: N_11  and  C_12 
REMARK    5  A    between atoms: C_12  and  C_14 
REMARK    6  A    between atoms: C_14  and  N_15 
ROOT
HETATM    1  C   UNL     1     -40.824 -52.881  12.789  1.00  0.00     0.156 C 
ENDROOT
BRANCH   1   2
HETATM    2  C   UNL     1     -40.433 -51.533  12.159  1.00  0.00     0.167 C 
HETATM    3  O   UNL     1     -39.019 -51.334  12.361  1.00  0.00    -0.381 OA
HETATM    4  C   UNL     1     -38.588 -50.078  11.817  1.00  0.00     0.198 C 
HETATM    5  C   UNL     1     -39.392 -48.891  12.381  1.00  0.00     0.298 C 
HETATM    6  N   UNL     1     -40.862 -49.039  12.268  1.00  0.00     0.093 N 
HETATM    7  C   UNL     1     -41.211 -50.367  12.814  1.00  0.00     0.305 C 
BRANCH   6   8
HETATM    8  C   UNL     1     -41.328 -48.828  10.884  1.00  0.00     0.276 C 
BRANCH   8   9
HETATM    9  C   UNL     1     -42.135 -47.526  10.649  1.00  0.00     0.006 C 
HETATM   10  C   UNL     1     -43.053 -47.620   9.429  1.00  0.00     0.011 C 
HETATM   11  C   UNL     1     -42.962 -47.186  11.892  1.00  0.00     0.011 C 
ENDBRANCH   8   9
ENDBRANCH   6   8
ENDBRANCH   1   2
BRANCH   1  12
HETATM   12  N   UNL     1     -42.186 -53.288  12.473  1.00  0.00    -0.357 N 
HETATM   13  C   UNL     1     -43.022 -53.912  13.373  1.00  0.00     0.237 C 
HETATM   14  O   UNL     1     -42.704 -54.171  14.529  1.00  0.00    -0.272 OA
HETATM   15  H   UNL     1     -42.519 -53.177  11.521  1.00  0.00     0.162 HD
BRANCH  13  16
HETATM   16  C   UNL     1     -44.389 -54.238  12.821  1.00  0.00     0.250 C 
BRANCH  16  17
HETATM   17  N   UNL     1     -45.308 -53.148  13.062  1.00  0.00    -0.295 N 
HETATM   18  C   UNL     1     -45.762 -52.713  14.274  1.00  0.00     0.112 A 
HETATM   19  C   UNL     1     -46.560 -51.626  14.012  1.00  0.00     0.037 A 
HETATM   20  C   UNL     1     -46.526 -51.485  12.613  1.00  0.00     0.108 A 
HETATM   21  N   UNL     1     -45.763 -52.412  12.025  1.00  0.00    -0.310 N 
ATOM     22  HN  UNL     1     -45.572 -52.535  11.030  1.00  0.00     0.186 HD
ENDBRANCH  16  17
ENDBRANCH  13  16
ENDBRANCH   1  12
TORSDOF 6
ENDMDL
MODEL 7
REMARK VINA RESULT:      -5.3      2.127      2.584
REMARK  6 active torsions:
REMARK  status: ('A' for Active; 'I' for Inactive)
REMARK    1  A    between atoms: C_2  and  C_4 
REMARK    2  A    between atoms: C_4  and  N_5 
REMARK    3  A    between atoms: C_9  and  C_10 
REMARK    4  A    between atoms: C_10  and  N_11 
REMARK       I    between atoms: N_11  and  C_12 
REMARK    5  A    between atoms: C_12  and  C_14 
REMARK    6  A    between atoms: C_14  and  N_15 
ROOT
HETATM    1  C   UNL     1     -40.232 -52.749  13.582  1.00  0.00     0.156 C 
ENDROOT
BRANCH   1   2
HETATM    2  C   UNL     1     -41.689 -53.029  13.989  1.00  0.00     0.167 C 
HETATM    3  O   UNL     1     -41.833 -54.447  14.206  1.00  0.00    -0.381 OA
HETATM    4  C   UNL     1     -43.181 -54.783  14.567  1.00  0.00     0.198 C 
HETATM    5  C   UNL     1     -44.205 -54.282  13.531  1.00  0.00     0.298 C 
HETATM    6  N   UNL     1     -44.089 -52.842  13.204  1.00  0.00     0.093 N 
HETATM    7  C   UNL     1     -42.672 -52.579  12.883  1.00  0.00     0.305 C 
BRANCH   6   8
HETATM    8  C   UNL     1     -44.618 -51.991  14.288  1.00  0.00     0.276 C 
BRANCH   8   9
HETATM    9  C   UNL     1     -45.969 -51.295  13.983  1.00  0.00     0.006 C 
HETATM   10  C   UNL     1     -46.533 -51.686  12.616  1.00  0.00     0.011 C 
HETATM   11  C   UNL     1     -46.990 -51.624  15.076  1.00  0.00     0.011 C 
ENDBRANCH   8   9
ENDBRANCH   6   8
ENDBRANCH   1   2
BRANCH   1  12
HETATM   12  N   UNL     1     -40.065 -51.485  12.881  1.00  0.00    -0.357 N 
HETATM   13  C   UNL     1     -38.839 -50.981  12.501  1.00  0.00     0.237 C 
HETATM   14  O   UNL     1     -37.775 -51.556  12.705  1.00  0.00    -0.272 OA
HETATM   15  H   UNL     1     -40.881 -50.903  12.724  1.00  0.00     0.162 HD
BRANCH  13  16
HETATM   16  C   UNL     1     -38.913 -49.654  11.784  1.00  0.00     0.250 C 
BRANCH  16  17
HETATM   17  N   UNL     1     -38.704 -48.564  12.710  1.00  0.00    -0.295 N 
HETATM   18  C   UNL     1     -39.445 -47.421  12.809  1.00  0.00     0.112 A 
HETATM   19  C   UNL     1     -38.913 -46.714  13.860  1.00  0.00     0.037 A 
HETATM   20  C   UNL     1     -37.854 -47.512  14.329  1.00  0.00     0.108 A 
HETATM   21  N   UNL     1     -37.719 -48.643  13.631  1.00  0.00    -0.310 N 
ATOM     22  HN  UNL     1     -37.035 -49.389  13.762  1.00  0.00     0.186 HD
ENDBRANCH  16  17
ENDBRANCH  13  16
ENDBRANCH   1  12
TORSDOF 6
ENDMDL
MODEL 8
REMARK VINA RESULT:      -5.3      1.989      5.838
REMARK  6 active torsions:
REMARK  status: ('A' for Active; 'I' for Inactive)
REMARK    1  A    between atoms: C_2  and  C_4 
REMARK    2  A    between atoms: C_4  and  N_5 
REMARK    3  A    between atoms: C_9  and  C_10 
REMARK    4  A    between atoms: C_10  and  N_11 
REMARK       I    between atoms: N_11  and  C_12 
REMARK    5  A    between atoms: C_12  and  C_14 
REMARK    6  A    between atoms: C_14  and  N_15 
ROOT
HETATM    1  C   UNL     1     -40.069 -49.476  11.368  1.00  0.00     0.156 C 
ENDROOT
BRANCH   1   2
HETATM    2  C   UNL     1     -40.827 -48.152  11.173  1.00  0.00     0.167 C 
HETATM    3  O   UNL     1     -40.226 -47.157  12.027  1.00  0.00    -0.381 OA
HETATM    4  C   UNL     1     -40.902 -45.897  11.913  1.00  0.00     0.198 C 
HETATM    5  C   UNL     1     -42.413 -46.017  12.194  1.00  0.00     0.298 C 
HETATM    6  N   UNL     1     -43.101 -47.061  11.398  1.00  0.00     0.093 N 
HETATM    7  C   UNL     1     -42.321 -48.307  11.543  1.00  0.00     0.305 C 
BRANCH   6   8
HETATM    8  C   UNL     1     -43.293 -46.642   9.997  1.00  0.00     0.276 C 
BRANCH   8   9
HETATM    9  C   UNL     1     -44.237 -47.542   9.160  1.00  0.00     0.006 C 
HETATM   10  C   UNL     1     -45.632 -46.937   9.000  1.00  0.00     0.011 C 
HETATM   11  C   UNL     1     -43.628 -47.807   7.780  1.00  0.00     0.011 C 
ENDBRANCH   8   9
ENDBRANCH   6   8
ENDBRANCH   1   2
BRANCH   1  12
HETATM   12  N   UNL     1     -40.935 -50.645  11.327  1.00  0.00    -0.357 N 
HETATM   13  C   UNL     1     -41.029 -51.561  12.353  1.00  0.00     0.237 C 
HETATM   14  O   UNL     1     -40.402 -51.470  13.403  1.00  0.00    -0.272 OA
HETATM   15  H   UNL     1     -41.445 -50.844  10.472  1.00  0.00     0.162 HD
BRANCH  13  16
HETATM   16  C   UNL     1     -41.995 -52.690  12.086  1.00  0.00     0.250 C 
BRANCH  16  17
HETATM   17  N   UNL     1     -43.299 -52.383  12.629  1.00  0.00    -0.295 N 
HETATM   18  C   UNL     1     -44.442 -53.114  12.475  1.00  0.00     0.112 A 
HETATM   19  C   UNL     1     -45.406 -52.470  13.213  1.00  0.00     0.037 A 
HETATM   20  C   UNL     1     -44.747 -51.361  13.774  1.00  0.00     0.108 A 
HETATM   21  N   UNL     1     -43.459 -51.300  13.420  1.00  0.00    -0.310 N 
ATOM     22  HN  UNL     1     -42.764 -50.602  13.685  1.00  0.00     0.186 HD
ENDBRANCH  16  17
ENDBRANCH  13  16
ENDBRANCH   1  12
TORSDOF 6
ENDMDL
MODEL 9
REMARK VINA RESULT:      -5.2      2.068      2.889
REMARK  6 active torsions:
REMARK  status: ('A' for Active; 'I' for Inactive)
REMARK    1  A    between atoms: C_2  and  C_4 
REMARK    2  A    between atoms: C_4  and  N_5 
REMARK    3  A    between atoms: C_9  and  C_10 
REMARK    4  A    between atoms: C_10  and  N_11 
REMARK       I    between atoms: N_11  and  C_12 
REMARK    5  A    between atoms: C_12  and  C_14 
REMARK    6  A    between atoms: C_14  and  N_15 
ROOT
HETATM    1  C   UNL     1     -38.623 -50.717  13.703  1.00  0.00     0.156 C 
ENDROOT
BRANCH   1   2
HETATM    2  C   UNL     1     -39.548 -51.931  13.899  1.00  0.00     0.167 C 
HETATM    3  O   UNL     1     -38.757 -53.129  13.759  1.00  0.00    -0.381 OA
HETATM    4  C   UNL     1     -39.565 -54.305  13.906  1.00  0.00     0.198 C 
HETATM    5  C   UNL     1     -40.757 -54.321  12.929  1.00  0.00     0.298 C 
HETATM    6  N   UNL     1     -41.593 -53.098  12.965  1.00  0.00     0.093 N 
HETATM    7  C   UNL     1     -40.681 -51.941  12.846  1.00  0.00     0.305 C 
BRANCH   6   8
HETATM    8  C   UNL     1     -42.448 -53.055  14.167  1.00  0.00     0.276 C 
BRANCH   8   9
HETATM    9  C   UNL     1     -43.924 -53.472  13.945  1.00  0.00     0.006 C 
HETATM   10  C   UNL     1     -44.344 -53.372  12.477  1.00  0.00     0.011 C 
HETATM   11  C   UNL     1     -44.151 -54.900  14.450  1.00  0.00     0.011 C 
ENDBRANCH   8   9
ENDBRANCH   6   8
ENDBRANCH   1   2
BRANCH   1  12
HETATM   12  N   UNL     1     -39.346 -49.465  13.537  1.00  0.00    -0.357 N 
HETATM   13  C   UNL     1     -39.206 -48.644  12.439  1.00  0.00     0.237 C 
HETATM   14  O   UNL     1     -38.470 -48.898  11.491  1.00  0.00    -0.272 OA
HETATM   15  H   UNL     1     -39.931 -49.135  14.299  1.00  0.00     0.162 HD
BRANCH  13  16
HETATM   16  C   UNL     1     -40.059 -47.400  12.486  1.00  0.00     0.250 C 
BRANCH  16  17
HETATM   17  N   UNL     1     -41.256 -47.574  11.694  1.00  0.00    -0.295 N 
HETATM   18  C   UNL     1     -42.546 -47.529  12.139  1.00  0.00     0.112 A 
HETATM   19  C   UNL     1     -43.337 -47.687  11.027  1.00  0.00     0.037 A 
HETATM   20  C   UNL     1     -42.431 -47.822   9.959  1.00  0.00     0.108 A 
HETATM   21  N   UNL     1     -41.157 -47.755  10.359  1.00  0.00    -0.310 N 
ATOM     22  HN  UNL     1     -40.312 -47.825   9.791  1.00  0.00     0.186 HD
ENDBRANCH  16  17
ENDBRANCH  13  16
ENDBRANCH   1  12
TORSDOF 6
ENDMDL
