MODEL 1
REMARK VINA RESULT:      -5.9      0.000      0.000
REMARK  5 active torsions:
REMARK  status: ('A' for Active; 'I' for Inactive)
REMARK    1  A    between atoms: C_2  and  C_4 
REMARK    2  A    between atoms: C_4  and  N_5 
REMARK    3  A    between atoms: C_8  and  N_11 
REMARK       I    between atoms: N_11  and  C_12 
REMARK    4  A    between atoms: C_12  and  C_14 
REMARK    5  A    between atoms: C_14  and  N_15 
ROOT
HETATM    1  N   UNL     1     -41.809 -54.290  15.293  1.00  0.00    -0.355 N 
HETATM    2  C   UNL     1     -42.795 -55.231  15.458  1.00  0.00     0.236 C 
HETATM    3  O   UNL     1     -42.818 -55.903  16.490  1.00  0.00    -0.272 OA
HETATM    4  H   UNL     1     -41.116 -54.313  16.032  1.00  0.00     0.162 HD
ENDROOT
BRANCH   1   5
HETATM    5  C   UNL     1     -41.467 -53.637  14.033  1.00  0.00     0.087 C 
HETATM    6  C   UNL     1     -40.003 -53.906  13.677  1.00  0.00     0.055 C 
HETATM    7  C   UNL     1     -39.053 -52.971  14.425  1.00  0.00     0.274 C 
HETATM    8  N   UNL     1     -39.385 -51.546  14.260  1.00  0.00     0.088 N 
HETATM    9  C   UNL     1     -40.752 -51.296  14.734  1.00  0.00     0.274 C 
HETATM   10  C   UNL     1     -41.811 -52.146  14.039  1.00  0.00     0.055 C 
BRANCH   8  11
HETATM   11  C   UNL     1     -39.102 -51.080  12.887  1.00  0.00     0.276 C 
BRANCH  11  12
HETATM   12  C   UNL     1     -37.783 -50.298  12.701  1.00  0.00     0.006 C 
HETATM   13  C   UNL     1     -37.424 -50.108  11.227  1.00  0.00     0.011 C 
HETATM   14  C   UNL     1     -37.871 -48.932  13.390  1.00  0.00     0.011 C 
ENDBRANCH  11  12
ENDBRANCH   8  11
ENDBRANCH   1   5
BRANCH   2  15
HETATM   15  C   UNL     1     -43.897 -55.348  14.395  1.00  0.00     0.235 C 
BRANCH  15  16
HETATM   16  N   UNL     1     -44.906 -54.284  14.536  1.00  0.00    -0.301 N 
HETATM   17  C   UNL     1     -45.429 -54.036  15.783  1.00  0.00     0.102 C 
HETATM   18  C   UNL     1     -46.242 -53.009  16.014  1.00  0.00     0.092 C 
HETATM   19  C   UNL     1     -46.613 -52.122  14.895  1.00  0.00     0.252 C 
HETATM   20  O   UNL     1     -47.276 -51.118  15.141  1.00  0.00    -0.268 OA
HETATM   21  N   UNL     1     -46.174 -52.504  13.645  1.00  0.00    -0.271 N 
HETATM   22  C   UNL     1     -46.580 -51.712  12.502  1.00  0.00     0.164 C 
HETATM   23  C   UNL     1     -45.270 -53.544  13.413  1.00  0.00     0.331 C 
HETATM   24  O   UNL     1     -44.798 -53.773  12.291  1.00  0.00    -0.246 OA
ENDBRANCH  15  16
ENDBRANCH   2  15
TORSDOF 5
ENDMDL
MODEL 2
REMARK VINA RESULT:      -5.8      1.909      3.310
REMARK  5 active torsions:
REMARK  status: ('A' for Active; 'I' for Inactive)
REMARK    1  A    between atoms: C_2  and  C_4 
REMARK    2  A    between atoms: C_4  and  N_5 
REMARK    3  A    between atoms: C_8  and  N_11 
REMARK       I    between atoms: N_11  and  C_12 
REMARK    4  A    between atoms: C_12  and  C_14 
REMARK    5  A    between atoms: C_14  and  N_15 
ROOT
HETATM    1  N   UNL     1     -44.071 -52.460  12.421  1.00  0.00    -0.355 N 
HETATM    2  C   UNL     1     -45.341 -52.946  12.611  1.00  0.00     0.236 C 
HETATM    3  O   UNL     1     -46.217 -52.680  11.787  1.00  0.00    -0.272 OA
HETATM    4  H   UNL     1     -44.007 -51.826  11.632  1.00  0.00     0.162 HD
ENDROOT
BRANCH   1   5
HETATM    5  C   UNL     1     -43.018 -52.430  13.431  1.00  0.00     0.087 C 
HETATM    6  C   UNL     1     -42.560 -50.991  13.675  1.00  0.00     0.055 C 
HETATM    7  C   UNL     1     -41.563 -50.522  12.615  1.00  0.00     0.274 C 
HETATM    8  N   UNL     1     -40.411 -51.425  12.456  1.00  0.00     0.088 N 
HETATM    9  C   UNL     1     -40.879 -52.768  12.092  1.00  0.00     0.274 C 
HETATM   10  C   UNL     1     -41.861 -53.372  13.092  1.00  0.00     0.055 C 
BRANCH   8  11
HETATM   11  C   UNL     1     -39.514 -51.370  13.628  1.00  0.00     0.276 C 
BRANCH  11  12
HETATM   12  C   UNL     1     -38.021 -51.118  13.321  1.00  0.00     0.006 C 
HETATM   13  C   UNL     1     -37.808 -50.509  11.934  1.00  0.00     0.011 C 
HETATM   14  C   UNL     1     -37.405 -50.203  14.385  1.00  0.00     0.011 C 
ENDBRANCH  11  12
ENDBRANCH   8  11
ENDBRANCH   1   5
BRANCH   2  15
HETATM   15  C   UNL     1     -45.607 -53.889  13.794  1.00  0.00     0.235 C 
BRANCH  15  16
HETATM   16  N   UNL     1     -46.050 -53.151  14.989  1.00  0.00    -0.301 N 
HETATM   17  C   UNL     1     -46.753 -51.983  14.817  1.00  0.00     0.102 C 
HETATM   18  C   UNL     1     -47.299 -51.332  15.840  1.00  0.00     0.092 C 
HETATM   19  C   UNL     1     -47.128 -51.866  17.205  1.00  0.00     0.252 C 
HETATM   20  O   UNL     1     -47.725 -51.317  18.126  1.00  0.00    -0.268 OA
HETATM   21  N   UNL     1     -46.296 -52.959  17.329  1.00  0.00    -0.271 N 
HETATM   22  C   UNL     1     -46.030 -53.472  18.657  1.00  0.00     0.164 C 
HETATM   23  C   UNL     1     -45.775 -53.678  16.250  1.00  0.00     0.331 C 
HETATM   24  O   UNL     1     -45.139 -54.730  16.400  1.00  0.00    -0.246 OA
ENDBRANCH  15  16
ENDBRANCH   2  15
TORSDOF 5
ENDMDL
MODEL 3
REMARK VINA RESULT:      -5.8      4.438      7.314
REMARK  5 active torsions:
REMARK  status: ('A' for Active; 'I' for Inactive)
REMARK    1  A    between atoms: C_2  and  C_4 
REMARK    2  A    between atoms: C_4  and  N_5 
REMARK    3  A    between atoms: C_8  and  N_11 
REMARK       I    between atoms: N_11  and  C_12 
REMARK    4  A    between atoms: C_12  and  C_14 
REMARK    5  A    between atoms: C_14  and  N_15 
ROOT
HETATM    1  N   UNL     1     -39.751 -51.290  12.254  1.00  0.00    -0.355 N 
HETATM    2  C   UNL     1     -39.234 -50.042  12.010  1.00  0.00     0.236 C 
HETATM    3  O   UNL     1     -38.342 -49.914  11.170  1.00  0.00    -0.272 OA
HETATM    4  H   UNL     1     -39.257 -52.024  11.759  1.00  0.00     0.162 HD
ENDROOT
BRANCH   1   5
HETATM    5  C   UNL     1     -40.577 -51.653  13.401  1.00  0.00     0.087 C 
HETATM    6  C   UNL     1     -40.187 -53.041  13.916  1.00  0.00     0.055 C 
HETATM    7  C   UNL     1     -40.833 -54.156  13.093  1.00  0.00     0.274 C 
HETATM    8  N   UNL     1     -42.294 -54.026  12.976  1.00  0.00     0.088 N 
HETATM    9  C   UNL     1     -42.630 -52.737  12.357  1.00  0.00     0.274 C 
HETATM   10  C   UNL     1     -42.072 -51.529  13.104  1.00  0.00     0.055 C 
BRANCH   8  11
HETATM   11  C   UNL     1     -42.967 -54.297  14.263  1.00  0.00     0.276 C 
BRANCH  11  12
HETATM   12  C   UNL     1     -44.476 -53.972  14.314  1.00  0.00     0.006 C 
HETATM   13  C   UNL     1     -45.336 -55.120  13.787  1.00  0.00     0.011 C 
HETATM   14  C   UNL     1     -44.898 -53.627  15.746  1.00  0.00     0.011 C 
ENDBRANCH  11  12
ENDBRANCH   8  11
ENDBRANCH   1   5
BRANCH   2  15
HETATM   15  C   UNL     1     -39.851 -48.829  12.722  1.00  0.00     0.235 C 
BRANCH  15  16
HETATM   16  N   UNL     1     -40.540 -47.935  11.777  1.00  0.00    -0.301 N 
HETATM   17  C   UNL     1     -41.456 -48.476  10.908  1.00  0.00     0.102 C 
HETATM   18  C   UNL     1     -42.213 -47.719  10.119  1.00  0.00     0.092 C 
HETATM   19  C   UNL     1     -42.049 -46.253  10.160  1.00  0.00     0.252 C 
HETATM   20  O   UNL     1     -42.825 -45.560   9.508  1.00  0.00    -0.268 OA
HETATM   21  N   UNL     1     -41.019 -45.778  10.944  1.00  0.00    -0.271 N 
HETATM   22  C   UNL     1     -40.764 -44.353  10.954  1.00  0.00     0.164 C 
HETATM   23  C   UNL     1     -40.268 -46.568  11.819  1.00  0.00     0.331 C 
HETATM   24  O   UNL     1     -39.439 -46.084  12.602  1.00  0.00    -0.246 OA
ENDBRANCH  15  16
ENDBRANCH   2  15
TORSDOF 5
ENDMDL
MODEL 4
REMARK VINA RESULT:      -5.7      5.388      7.689
REMARK  5 active torsions:
REMARK  status: ('A' for Active; 'I' for Inactive)
REMARK    1  A    between atoms: C_2  and  C_4 
REMARK    2  A    between atoms: C_4  and  N_5 
REMARK    3  A    between atoms: C_8  and  N_11 
REMARK       I    between atoms: N_11  and  C_12 
REMARK    4  A    between atoms: C_12  and  C_14 
REMARK    5  A    between atoms: C_14  and  N_15 
ROOT
HETATM    1  N   UNL     1     -42.419 -49.299  11.319  1.00  0.00    -0.355 N 
HETATM    2  C   UNL     1     -41.933 -48.202  10.652  1.00  0.00     0.236 C 
HETATM    3  O   UNL     1     -42.337 -47.963   9.513  1.00  0.00    -0.272 OA
HETATM    4  H   UNL     1     -43.019 -49.877  10.741  1.00  0.00     0.162 HD
ENDROOT
BRANCH   1   5
HETATM    5  C   UNL     1     -41.836 -49.881  12.524  1.00  0.00     0.087 C 
HETATM    6  C   UNL     1     -41.249 -51.261  12.214  1.00  0.00     0.055 C 
HETATM    7  C   UNL     1     -42.323 -52.348  12.202  1.00  0.00     0.274 C 
HETATM    8  N   UNL     1     -43.135 -52.382  13.430  1.00  0.00     0.088 N 
HETATM    9  C   UNL     1     -43.790 -51.083  13.627  1.00  0.00     0.274 C 
HETATM   10  C   UNL     1     -42.822 -49.906  13.693  1.00  0.00     0.055 C 
BRANCH   8  11
HETATM   11  C   UNL     1     -42.353 -52.870  14.584  1.00  0.00     0.276 C 
BRANCH  11  12
HETATM   12  C   UNL     1     -41.902 -54.346  14.514  1.00  0.00     0.006 C 
HETATM   13  C   UNL     1     -40.564 -54.579  15.215  1.00  0.00     0.011 C 
HETATM   14  C   UNL     1     -42.970 -55.259  15.127  1.00  0.00     0.011 C 
ENDBRANCH  11  12
ENDBRANCH   8  11
ENDBRANCH   1   5
BRANCH   2  15
HETATM   15  C   UNL     1     -40.974 -47.251  11.383  1.00  0.00     0.235 C 
BRANCH  15  16
HETATM   16  N   UNL     1     -41.678 -46.077  11.925  1.00  0.00    -0.301 N 
HETATM   17  C   UNL     1     -42.322 -46.196  13.133  1.00  0.00     0.102 C 
HETATM   18  C   UNL     1     -42.865 -45.150  13.748  1.00  0.00     0.092 C 
HETATM   19  C   UNL     1     -42.796 -43.824  13.105  1.00  0.00     0.252 C 
HETATM   20  O   UNL     1     -43.205 -42.850  13.730  1.00  0.00    -0.268 OA
HETATM   21  N   UNL     1     -42.266 -43.793  11.833  1.00  0.00    -0.271 N 
HETATM   22  C   UNL     1     -42.250 -42.528  11.126  1.00  0.00     0.164 C 
HETATM   23  C   UNL     1     -41.639 -44.878  11.215  1.00  0.00     0.331 C 
HETATM   24  O   UNL     1     -41.060 -44.776  10.125  1.00  0.00    -0.246 OA
ENDBRANCH  15  16
ENDBRANCH   2  15
TORSDOF 5
ENDMDL
MODEL 5
REMARK VINA RESULT:      -5.6      3.195      4.428
REMARK  5 active torsions:
REMARK  status: ('A' for Active; 'I' for Inactive)
REMARK    1  A    between atoms: C_2  and  C_4 
REMARK    2  A    between atoms: C_4  and  N_5 
REMARK    3  A    between atoms: C_8  and  N_11 
REMARK       I    between atoms: N_11  and  C_12 
REMARK    4  A    between atoms: C_12  and  C_14 
REMARK    5  A    between atoms: C_14  and  N_15 
ROOT
HETATM    1  N   UNL     1     -40.593 -50.938  12.231  1.00  0.00    -0.355 N 
HETATM    2  C   UNL     1     -40.953 -52.180  12.690  1.00  0.00     0.236 C 
HETATM    3  O   UNL     1     -40.704 -53.172  12.002  1.00  0.00    -0.272 OA
HETATM    4  H   UNL     1     -40.225 -50.959  11.286  1.00  0.00     0.162 HD
ENDROOT
BRANCH   1   5
HETATM    5  C   UNL     1     -41.071 -49.668  12.768  1.00  0.00     0.087 C 
HETATM    6  C   UNL     1     -42.042 -49.010  11.784  1.00  0.00     0.055 C 
HETATM    7  C   UNL     1     -41.307 -48.267  10.668  1.00  0.00     0.274 C 
HETATM    8  N   UNL     1     -40.318 -47.297  11.164  1.00  0.00     0.088 N 
HETATM    9  C   UNL     1     -39.323 -47.984  11.998  1.00  0.00     0.274 C 
HETATM   10  C   UNL     1     -39.925 -48.741  13.178  1.00  0.00     0.055 C 
BRANCH   8  11
HETATM   11  C   UNL     1     -40.970 -46.133  11.798  1.00  0.00     0.276 C 
BRANCH  11  12
HETATM   12  C   UNL     1     -40.331 -44.759  11.500  1.00  0.00     0.006 C 
HETATM   13  C   UNL     1     -39.368 -44.315  12.601  1.00  0.00     0.011 C 
HETATM   14  C   UNL     1     -39.595 -44.794  10.156  1.00  0.00     0.011 C 
ENDBRANCH  11  12
ENDBRANCH   8  11
ENDBRANCH   1   5
BRANCH   2  15
HETATM   15  C   UNL     1     -41.567 -52.306  14.093  1.00  0.00     0.235 C 
BRANCH  15  16
HETATM   16  N   UNL     1     -42.827 -53.067  14.069  1.00  0.00    -0.301 N 
HETATM   17  C   UNL     1     -42.787 -54.414  14.339  1.00  0.00     0.102 C 
HETATM   18  C   UNL     1     -43.893 -55.141  14.467  1.00  0.00     0.092 C 
HETATM   19  C   UNL     1     -45.205 -54.488  14.291  1.00  0.00     0.252 C 
HETATM   20  O   UNL     1     -46.218 -55.143  14.517  1.00  0.00    -0.268 OA
HETATM   21  N   UNL     1     -45.178 -53.171  13.883  1.00  0.00    -0.271 N 
HETATM   22  C   UNL     1     -46.438 -52.508  13.618  1.00  0.00     0.164 C 
HETATM   23  C   UNL     1     -44.019 -52.393  13.811  1.00  0.00     0.331 C 
HETATM   24  O   UNL     1     -44.051 -51.180  13.566  1.00  0.00    -0.246 OA
ENDBRANCH  15  16
ENDBRANCH   2  15
TORSDOF 5
ENDMDL
MODEL 6
REMARK VINA RESULT:      -5.5      3.859      7.487
REMARK  5 active torsions:
REMARK  status: ('A' for Active; 'I' for Inactive)
REMARK    1  A    between atoms: C_2  and  C_4 
REMARK    2  A    between atoms: C_4  and  N_5 
REMARK    3  A    between atoms: C_8  and  N_11 
REMARK       I    between atoms: N_11  and  C_12 
REMARK    4  A    between atoms: C_12  and  C_14 
REMARK    5  A    between atoms: C_14  and  N_15 
ROOT
HETATM    1  N   UNL     1     -40.202 -51.567  12.910  1.00  0.00    -0.355 N 
HETATM    2  C   UNL     1     -39.011 -50.966  12.587  1.00  0.00     0.236 C 
HETATM    3  O   UNL     1     -37.957 -51.473  12.975  1.00  0.00    -0.272 OA
HETATM    4  H   UNL     1     -40.089 -52.351  13.542  1.00  0.00     0.162 HD
ENDROOT
BRANCH   1   5
HETATM    5  C   UNL     1     -41.519 -50.949  12.790  1.00  0.00     0.087 C 
HETATM    6  C   UNL     1     -41.816 -50.092  14.023  1.00  0.00     0.055 C 
HETATM    7  C   UNL     1     -42.313 -50.936  15.197  1.00  0.00     0.274 C 
HETATM    8  N   UNL     1     -43.462 -51.791  14.858  1.00  0.00     0.088 N 
HETATM    9  C   UNL     1     -43.102 -52.694  13.757  1.00  0.00     0.274 C 
HETATM   10  C   UNL     1     -42.618 -51.974  12.502  1.00  0.00     0.055 C 
BRANCH   8  11
HETATM   11  C   UNL     1     -44.686 -50.994  14.638  1.00  0.00     0.276 C 
BRANCH  11  12
HETATM   12  C   UNL     1     -45.981 -51.801  14.404  1.00  0.00     0.006 C 
HETATM   13  C   UNL     1     -47.082 -51.435  15.400  1.00  0.00     0.011 C 
HETATM   14  C   UNL     1     -46.490 -51.589  12.974  1.00  0.00     0.011 C 
ENDBRANCH  11  12
ENDBRANCH   8  11
ENDBRANCH   1   5
BRANCH   2  15
HETATM   15  C   UNL     1     -39.023 -49.735  11.669  1.00  0.00     0.235 C 
BRANCH  15  16
HETATM   16  N   UNL     1     -39.107 -48.482  12.439  1.00  0.00    -0.301 N 
HETATM   17  C   UNL     1     -38.309 -48.338  13.549  1.00  0.00     0.102 C 
HETATM   18  C   UNL     1     -38.231 -47.190  14.216  1.00  0.00     0.092 C 
HETATM   19  C   UNL     1     -39.041 -46.042  13.767  1.00  0.00     0.252 C 
HETATM   20  O   UNL     1     -38.880 -44.960  14.324  1.00  0.00    -0.268 OA
HETATM   21  N   UNL     1     -39.926 -46.289  12.738  1.00  0.00    -0.271 N 
HETATM   22  C   UNL     1     -40.802 -45.216  12.314  1.00  0.00     0.164 C 
HETATM   23  C   UNL     1     -39.962 -47.473  11.998  1.00  0.00     0.331 C 
HETATM   24  O   UNL     1     -40.681 -47.608  10.999  1.00  0.00    -0.246 OA
ENDBRANCH  15  16
ENDBRANCH   2  15
TORSDOF 5
ENDMDL
MODEL 7
REMARK VINA RESULT:      -5.5      6.887      9.652
REMARK  5 active torsions:
REMARK  status: ('A' for Active; 'I' for Inactive)
REMARK    1  A    between atoms: C_2  and  C_4 
REMARK    2  A    between atoms: C_4  and  N_5 
REMARK    3  A    between atoms: C_8  and  N_11 
REMARK       I    between atoms: N_11  and  C_12 
REMARK    4  A    between atoms: C_12  and  C_14 
REMARK    5  A    between atoms: C_14  and  N_15 
ROOT
HETATM    1  N   UNL     1     -40.087 -46.744  10.669  1.00  0.00    -0.355 N 
HETATM    2  C   UNL     1     -40.378 -45.424  10.435  1.00  0.00     0.236 C 
HETATM    3  O   UNL     1     -39.762 -44.818   9.557  1.00  0.00    -0.272 OA
HETATM    4  H   UNL     1     -39.293 -47.073  10.131  1.00  0.00     0.162 HD
ENDROOT
BRANCH   1   5
HETATM    5  C   UNL     1     -40.500 -47.505  11.844  1.00  0.00     0.087 C 
HETATM    6  C   UNL     1     -39.295 -47.777  12.748  1.00  0.00     0.055 C 
HETATM    7  C   UNL     1     -38.472 -48.969  12.259  1.00  0.00     0.274 C 
HETATM    8  N   UNL     1     -39.272 -50.189  12.061  1.00  0.00     0.088 N 
HETATM    9  C   UNL     1     -40.339 -49.931  11.087  1.00  0.00     0.274 C 
HETATM   10  C   UNL     1     -41.262 -48.779  11.473  1.00  0.00     0.055 C 
BRANCH   8  11
HETATM   11  C   UNL     1     -39.722 -50.758  13.348  1.00  0.00     0.276 C 
BRANCH  11  12
HETATM   12  C   UNL     1     -40.167 -52.236  13.311  1.00  0.00     0.006 C 
HETATM   13  C   UNL     1     -39.242 -53.142  14.123  1.00  0.00     0.011 C 
HETATM   14  C   UNL     1     -41.604 -52.373  13.826  1.00  0.00     0.011 C 
ENDBRANCH  11  12
ENDBRANCH   8  11
ENDBRANCH   1   5
BRANCH   2  15
HETATM   15  C   UNL     1     -41.532 -44.768  11.209  1.00  0.00     0.235 C 
BRANCH  15  16
HETATM   16  N   UNL     1     -41.171 -43.424  11.691  1.00  0.00    -0.301 N 
HETATM   17  C   UNL     1     -40.183 -43.309  12.638  1.00  0.00     0.102 C 
HETATM   18  C   UNL     1     -39.710 -42.127  13.025  1.00  0.00     0.092 C 
HETATM   19  C   UNL     1     -40.279 -40.900  12.435  1.00  0.00     0.252 C 
HETATM   20  O   UNL     1     -39.763 -39.823  12.719  1.00  0.00    -0.268 OA
HETATM   21  N   UNL     1     -41.361 -41.073  11.599  1.00  0.00    -0.271 N 
HETATM   22  C   UNL     1     -42.007 -39.895  11.058  1.00  0.00     0.164 C 
HETATM   23  C   UNL     1     -41.815 -42.315  11.145  1.00  0.00     0.331 C 
HETATM   24  O   UNL     1     -42.707 -42.423  10.293  1.00  0.00    -0.246 OA
ENDBRANCH  15  16
ENDBRANCH   2  15
TORSDOF 5
ENDMDL
MODEL 8
REMARK VINA RESULT:      -5.4      3.209      4.233
REMARK  5 active torsions:
REMARK  status: ('A' for Active; 'I' for Inactive)
REMARK    1  A    between atoms: C_2  and  C_4 
REMARK    2  A    between atoms: C_4  and  N_5 
REMARK    3  A    between atoms: C_8  and  N_11 
REMARK       I    between atoms: N_11  and  C_12 
REMARK    4  A    between atoms: C_12  and  C_14 
REMARK    5  A    between atoms: C_14  and  N_15 
ROOT
HETATM    1  N   UNL     1     -40.207 -51.391  13.332  1.00  0.00    -0.355 N 
HETATM    2  C   UNL     1     -40.033 -52.733  13.560  1.00  0.00     0.236 C 
HETATM    3  O   UNL     1     -39.203 -53.100  14.393  1.00  0.00    -0.272 OA
HETATM    4  H   UNL     1     -39.536 -50.817  13.831  1.00  0.00     0.162 HD
ENDROOT
BRANCH   1   5
HETATM    5  C   UNL     1     -40.913 -50.812  12.193  1.00  0.00     0.087 C 
HETATM    6  C   UNL     1     -39.932 -50.066  11.286  1.00  0.00     0.055 C 
HETATM    7  C   UNL     1     -39.621 -48.665  11.812  1.00  0.00     0.274 C 
HETATM    8  N   UNL     1     -40.824 -47.856  12.068  1.00  0.00     0.088 N 
HETATM    9  C   UNL     1     -41.682 -48.539  13.044  1.00  0.00     0.274 C 
HETATM   10  C   UNL     1     -42.098 -49.945  12.624  1.00  0.00     0.055 C 
BRANCH   8  11
HETATM   11  C   UNL     1     -41.492 -47.466  10.811  1.00  0.00     0.276 C 
BRANCH  11  12
HETATM   12  C   UNL     1     -42.815 -46.683  10.968  1.00  0.00     0.006 C 
HETATM   13  C   UNL     1     -42.686 -45.228  10.516  1.00  0.00     0.011 C 
HETATM   14  C   UNL     1     -43.937 -47.369  10.181  1.00  0.00     0.011 C 
ENDBRANCH  11  12
ENDBRANCH   8  11
ENDBRANCH   1   5
BRANCH   2  15
HETATM   15  C   UNL     1     -40.948 -53.735  12.839  1.00  0.00     0.235 C 
BRANCH  15  16
HETATM   16  N   UNL     1     -42.148 -54.046  13.634  1.00  0.00    -0.301 N 
HETATM   17  C   UNL     1     -41.990 -54.679  14.843  1.00  0.00     0.102 C 
HETATM   18  C   UNL     1     -43.009 -54.874  15.676  1.00  0.00     0.092 C 
HETATM   19  C   UNL     1     -44.355 -54.417  15.281  1.00  0.00     0.252 C 
HETATM   20  O   UNL     1     -45.266 -54.505  16.100  1.00  0.00    -0.268 OA
HETATM   21  N   UNL     1     -44.477 -53.918  14.001  1.00  0.00    -0.271 N 
HETATM   22  C   UNL     1     -45.793 -53.531  13.536  1.00  0.00     0.164 C 
HETATM   23  C   UNL     1     -43.397 -53.656  13.153  1.00  0.00     0.331 C 
HETATM   24  O   UNL     1     -43.535 -53.088  12.062  1.00  0.00    -0.246 OA
ENDBRANCH  15  16
ENDBRANCH   2  15
TORSDOF 5
ENDMDL
MODEL 9
REMARK VINA RESULT:      -5.3      3.134      3.963
REMARK  5 active torsions:
REMARK  status: ('A' for Active; 'I' for Inactive)
REMARK    1  A    between atoms: C_2  and  C_4 
REMARK    2  A    between atoms: C_4  and  N_5 
REMARK    3  A    between atoms: C_8  and  N_11 
REMARK       I    between atoms: N_11  and  C_12 
REMARK    4  A    between atoms: C_12  and  C_14 
REMARK    5  A    between atoms: C_14  and  N_15 
ROOT
HETATM    1  N   UNL     1     -41.074 -51.039  12.983  1.00  0.00    -0.355 N 
HETATM    2  C   UNL     1     -41.711 -52.246  13.126  1.00  0.00     0.236 C 
HETATM    3  O   UNL     1     -41.225 -53.099  13.870  1.00  0.00    -0.272 OA
HETATM    4  H   UNL     1     -40.178 -51.009  13.457  1.00  0.00     0.162 HD
ENDROOT
BRANCH   1   5
HETATM    5  C   UNL     1     -41.345 -50.058  11.936  1.00  0.00     0.087 C 
HETATM    6  C   UNL     1     -40.058 -49.723  11.179  1.00  0.00     0.055 C 
HETATM    7  C   UNL     1     -39.207 -48.696  11.927  1.00  0.00     0.274 C 
HETATM    8  N   UNL     1     -39.945 -47.473  12.283  1.00  0.00     0.088 N 
HETATM    9  C   UNL     1     -41.101 -47.818  13.121  1.00  0.00     0.274 C 
HETATM   10  C   UNL     1     -42.057 -48.816  12.474  1.00  0.00     0.055 C 
BRANCH   8  11
HETATM   11  C   UNL     1     -40.256 -46.661  11.090  1.00  0.00     0.276 C 
BRANCH  11  12
HETATM   12  C   UNL     1     -40.935 -45.300  11.362  1.00  0.00     0.006 C 
HETATM   13  C   UNL     1     -40.096 -44.122  10.865  1.00  0.00     0.011 C 
HETATM   14  C   UNL     1     -42.321 -45.256  10.709  1.00  0.00     0.011 C 
ENDBRANCH  11  12
ENDBRANCH   8  11
ENDBRANCH   1   5
BRANCH   2  15
HETATM   15  C   UNL     1     -43.063 -52.460  12.428  1.00  0.00     0.235 C 
BRANCH  15  16
HETATM   16  N   UNL     1     -44.179 -52.446  13.389  1.00  0.00    -0.301 N 
HETATM   17  C   UNL     1     -44.459 -51.277  14.054  1.00  0.00     0.102 C 
HETATM   18  C   UNL     1     -45.529 -51.149  14.835  1.00  0.00     0.092 C 
HETATM   19  C   UNL     1     -46.431 -52.303  15.010  1.00  0.00     0.252 C 
HETATM   20  O   UNL     1     -47.470 -52.141  15.644  1.00  0.00    -0.268 OA
HETATM   21  N   UNL     1     -46.023 -53.487  14.433  1.00  0.00    -0.271 N 
HETATM   22  C   UNL     1     -46.832 -54.669  14.644  1.00  0.00     0.164 C 
HETATM   23  C   UNL     1     -44.935 -53.604  13.563  1.00  0.00     0.331 C 
HETATM   24  O   UNL     1     -44.678 -54.656  12.963  1.00  0.00    -0.246 OA
ENDBRANCH  15  16
ENDBRANCH   2  15
TORSDOF 5
ENDMDL
