MODEL 1
REMARK VINA RESULT:      -7.1      0.000      0.000
REMARK  4 active torsions:
REMARK  status: ('A' for Active; 'I' for Inactive)
REMARK    1  A    between atoms: C_9  and  N_11 
REMARK       I    between atoms: N_11  and  C_12 
REMARK    2  A    between atoms: C_12  and  C_14 
REMARK    3  A    between atoms: C_14  and  N_15 
REMARK    4  A    between atoms: C_17  and  N_22 
ROOT
HETATM    1  N   UNL     1     -43.605 -50.682  12.637  1.00  0.00    -0.354 N 
HETATM    2  C   UNL     1     -42.767 -49.590  12.756  1.00  0.00     0.236 C 
HETATM    3  O   UNL     1     -42.913 -48.713  13.605  1.00  0.00    -0.272 OA
HETATM    4  H   UNL     1     -43.527 -51.249  11.798  1.00  0.00     0.162 HD
ENDROOT
BRANCH   2   5
HETATM    5  C   UNL     1     -41.679 -49.503  11.688  1.00  0.00     0.234 C 
BRANCH   5   6
HETATM    6  N   UNL     1     -41.549 -48.138  11.176  1.00  0.00    -0.314 N 
HETATM    7  C   UNL     1     -42.583 -47.586  10.421  1.00  0.00     0.130 A 
HETATM    8  C   UNL     1     -42.494 -46.327   9.958  1.00  0.00     0.118 A 
HETATM    9  C   UNL     1     -41.318 -45.529  10.236  1.00  0.00     0.043 A 
HETATM   10  C   UNL     1     -40.303 -46.048  10.941  1.00  0.00     0.077 A 
HETATM   11  C   UNL     1     -40.370 -47.447  11.450  1.00  0.00     0.247 A 
HETATM   12  O   UNL     1     -39.420 -47.921  12.067  1.00  0.00    -0.268 OA
BRANCH   8  13
HETATM   13  N   UNL     1     -43.622 -45.787   9.189  1.00  0.00    -0.114 N 
HETATM   14  O   UNL     1     -44.322 -46.602   8.577  1.00  0.00    -0.532 OA
HETATM   15  O   UNL     1     -43.797 -44.561   9.187  1.00  0.00    -0.532 OA
ENDBRANCH   8  13
ENDBRANCH   5   6
ENDBRANCH   2   5
BRANCH   1  16
HETATM   16  C   UNL     1     -44.710 -50.905  13.557  1.00  0.00     0.093 C 
HETATM   17  C   UNL     1     -44.497 -52.066  14.589  1.00  0.00    -0.016 C 
HETATM   18  C   UNL     1     -45.037 -53.331  13.849  1.00  0.00    -0.035 C 
HETATM   19  C   UNL     1     -45.580 -51.840  15.691  1.00  0.00     0.012 C 
HETATM   20  C   UNL     1     -43.107 -52.166  15.194  1.00  0.00     0.018 C 
HETATM   21  C   UNL     1     -45.122 -54.606  14.716  1.00  0.00     0.016 C 
HETATM   22  C   UNL     1     -44.286 -53.745  12.570  1.00  0.00     0.016 C 
HETATM   23  C   UNL     1     -46.402 -52.649  13.581  1.00  0.00    -0.004 C 
HETATM   24  C   UNL     1     -46.887 -52.240  14.987  1.00  0.00     0.006 C 
HETATM   25  C   UNL     1     -46.018 -51.341  12.847  1.00  0.00     0.031 C 
ENDBRANCH   1  16
TORSDOF 4
ENDMDL
MODEL 2
REMARK VINA RESULT:      -6.6      4.730      7.453
REMARK  4 active torsions:
REMARK  status: ('A' for Active; 'I' for Inactive)
REMARK    1  A    between atoms: C_9  and  N_11 
REMARK       I    between atoms: N_11  and  C_12 
REMARK    2  A    between atoms: C_12  and  C_14 
REMARK    3  A    between atoms: C_14  and  N_15 
REMARK    4  A    between atoms: C_17  and  N_22 
ROOT
HETATM    1  N   UNL     1     -42.942 -53.918  14.090  1.00  0.00    -0.354 N 
HETATM    2  C   UNL     1     -43.671 -54.970  14.608  1.00  0.00     0.236 C 
HETATM    3  O   UNL     1     -43.182 -55.850  15.315  1.00  0.00    -0.272 OA
HETATM    4  H   UNL     1     -43.379 -53.351  13.367  1.00  0.00     0.162 HD
ENDROOT
BRANCH   2   5
HETATM    5  C   UNL     1     -45.132 -55.013  14.165  1.00  0.00     0.234 C 
BRANCH   5   6
HETATM    6  N   UNL     1     -45.789 -53.725  14.388  1.00  0.00    -0.314 N 
HETATM    7  C   UNL     1     -46.289 -53.418  15.653  1.00  0.00     0.130 A 
HETATM    8  C   UNL     1     -46.879 -52.232  15.886  1.00  0.00     0.118 A 
HETATM    9  C   UNL     1     -47.006 -51.260  14.821  1.00  0.00     0.043 A 
HETATM   10  C   UNL     1     -46.552 -51.543  13.591  1.00  0.00     0.077 A 
HETATM   11  C   UNL     1     -45.910 -52.858  13.304  1.00  0.00     0.247 A 
HETATM   12  O   UNL     1     -45.529 -53.117  12.166  1.00  0.00    -0.268 OA
BRANCH   8  13
HETATM   13  N   UNL     1     -47.365 -51.951  17.241  1.00  0.00    -0.114 N 
HETATM   14  O   UNL     1     -48.481 -51.423  17.337  1.00  0.00    -0.532 OA
HETATM   15  O   UNL     1     -46.636 -52.242  18.199  1.00  0.00    -0.532 OA
ENDBRANCH   8  13
ENDBRANCH   5   6
ENDBRANCH   2   5
BRANCH   1  16
HETATM   16  C   UNL     1     -41.530 -53.740  14.389  1.00  0.00     0.093 C 
HETATM   17  C   UNL     1     -41.150 -52.357  15.024  1.00  0.00    -0.016 C 
HETATM   18  C   UNL     1     -40.863 -51.443  13.790  1.00  0.00    -0.035 C 
HETATM   19  C   UNL     1     -39.724 -52.559  15.625  1.00  0.00     0.012 C 
HETATM   20  C   UNL     1     -42.117 -51.819  16.065  1.00  0.00     0.018 C 
HETATM   21  C   UNL     1     -40.277 -50.056  14.129  1.00  0.00     0.016 C 
HETATM   22  C   UNL     1     -42.051 -51.176  12.847  1.00  0.00     0.016 C 
HETATM   23  C   UNL     1     -39.830 -52.451  13.225  1.00  0.00    -0.004 C 
HETATM   24  C   UNL     1     -38.824 -52.627  14.381  1.00  0.00     0.006 C 
HETATM   25  C   UNL     1     -40.628 -53.775  13.129  1.00  0.00     0.031 C 
ENDBRANCH   1  16
TORSDOF 4
ENDMDL
MODEL 3
REMARK VINA RESULT:      -6.6      2.662      4.549
REMARK  4 active torsions:
REMARK  status: ('A' for Active; 'I' for Inactive)
REMARK    1  A    between atoms: C_9  and  N_11 
REMARK       I    between atoms: N_11  and  C_12 
REMARK    2  A    between atoms: C_12  and  C_14 
REMARK    3  A    between atoms: C_14  and  N_15 
REMARK    4  A    between atoms: C_17  and  N_22 
ROOT
HETATM    1  N   UNL     1     -43.516 -50.744  12.701  1.00  0.00    -0.354 N 
HETATM    2  C   UNL     1     -42.685 -49.644  12.787  1.00  0.00     0.236 C 
HETATM    3  O   UNL     1     -42.856 -48.725  13.585  1.00  0.00    -0.272 OA
HETATM    4  H   UNL     1     -43.413 -51.353  11.894  1.00  0.00     0.162 HD
ENDROOT
BRANCH   2   5
HETATM    5  C   UNL     1     -41.569 -49.606  11.744  1.00  0.00     0.234 C 
BRANCH   5   6
HETATM    6  N   UNL     1     -40.282 -49.975  12.335  1.00  0.00    -0.314 N 
HETATM    7  C   UNL     1     -40.165 -51.178  13.032  1.00  0.00     0.130 A 
HETATM    8  C   UNL     1     -38.988 -51.547  13.565  1.00  0.00     0.118 A 
HETATM    9  C   UNL     1     -37.825 -50.695  13.426  1.00  0.00     0.043 A 
HETATM   10  C   UNL     1     -37.920 -49.525  12.779  1.00  0.00     0.077 A 
HETATM   11  C   UNL     1     -39.219 -49.085  12.194  1.00  0.00     0.247 A 
HETATM   12  O   UNL     1     -39.300 -47.996  11.633  1.00  0.00    -0.268 OA
BRANCH   8  13
HETATM   13  N   UNL     1     -38.915 -52.834  14.267  1.00  0.00    -0.114 N 
HETATM   14  O   UNL     1     -38.768 -53.844  13.569  1.00  0.00    -0.532 OA
HETATM   15  O   UNL     1     -39.016 -52.836  15.502  1.00  0.00    -0.532 OA
ENDBRANCH   8  13
ENDBRANCH   5   6
ENDBRANCH   2   5
BRANCH   1  16
HETATM   16  C   UNL     1     -44.644 -50.925  13.601  1.00  0.00     0.093 C 
HETATM   17  C   UNL     1     -44.500 -52.105  14.625  1.00  0.00    -0.016 C 
HETATM   18  C   UNL     1     -45.086 -53.337  13.863  1.00  0.00    -0.035 C 
HETATM   19  C   UNL     1     -45.589 -51.841  15.712  1.00  0.00     0.012 C 
HETATM   20  C   UNL     1     -43.126 -52.275  15.249  1.00  0.00     0.018 C 
HETATM   21  C   UNL     1     -45.243 -54.614  14.715  1.00  0.00     0.016 C 
HETATM   22  C   UNL     1     -44.335 -53.772  12.591  1.00  0.00     0.016 C 
HETATM   23  C   UNL     1     -46.414 -52.591  13.581  1.00  0.00    -0.004 C 
HETATM   24  C   UNL     1     -46.901 -52.173  14.984  1.00  0.00     0.006 C 
HETATM   25  C   UNL     1     -45.959 -51.294  12.867  1.00  0.00     0.031 C 
ENDBRANCH   1  16
TORSDOF 4
ENDMDL
MODEL 4
REMARK VINA RESULT:      -6.5      2.716      4.005
REMARK  4 active torsions:
REMARK  status: ('A' for Active; 'I' for Inactive)
REMARK    1  A    between atoms: C_9  and  N_11 
REMARK       I    between atoms: N_11  and  C_12 
REMARK    2  A    between atoms: C_12  and  C_14 
REMARK    3  A    between atoms: C_14  and  N_15 
REMARK    4  A    between atoms: C_17  and  N_22 
ROOT
HETATM    1  N   UNL     1     -41.662 -52.905  14.188  1.00  0.00    -0.354 N 
HETATM    2  C   UNL     1     -40.533 -52.843  13.393  1.00  0.00     0.236 C 
HETATM    3  O   UNL     1     -40.425 -53.434  12.321  1.00  0.00    -0.272 OA
HETATM    4  H   UNL     1     -41.593 -52.547  15.136  1.00  0.00     0.162 HD
ENDROOT
BRANCH   2   5
HETATM    5  C   UNL     1     -39.377 -52.044  13.992  1.00  0.00     0.234 C 
BRANCH   5   6
HETATM    6  N   UNL     1     -39.020 -50.911  13.137  1.00  0.00    -0.314 N 
HETATM    7  C   UNL     1     -39.903 -49.839  13.013  1.00  0.00     0.130 A 
HETATM    8  C   UNL     1     -39.587 -48.778  12.249  1.00  0.00     0.118 A 
HETATM    9  C   UNL     1     -38.324 -48.740  11.541  1.00  0.00     0.043 A 
HETATM   10  C   UNL     1     -37.470 -49.770  11.628  1.00  0.00     0.077 A 
HETATM   11  C   UNL     1     -37.806 -50.965  12.455  1.00  0.00     0.247 A 
HETATM   12  O   UNL     1     -37.030 -51.915  12.500  1.00  0.00    -0.268 OA
BRANCH   8  13
HETATM   13  N   UNL     1     -40.541 -47.666  12.174  1.00  0.00    -0.114 N 
HETATM   14  O   UNL     1     -41.335 -47.545  13.115  1.00  0.00    -0.532 OA
HETATM   15  O   UNL     1     -40.507 -46.929  11.178  1.00  0.00    -0.532 OA
ENDBRANCH   8  13
ENDBRANCH   5   6
ENDBRANCH   2   5
BRANCH   1  16
HETATM   16  C   UNL     1     -42.846 -53.645  13.781  1.00  0.00     0.093 C 
HETATM   17  C   UNL     1     -44.184 -52.827  13.797  1.00  0.00    -0.016 C 
HETATM   18  C   UNL     1     -44.727 -53.023  15.249  1.00  0.00    -0.035 C 
HETATM   19  C   UNL     1     -45.191 -53.668  12.951  1.00  0.00     0.012 C 
HETATM   20  C   UNL     1     -44.092 -51.399  13.287  1.00  0.00     0.018 C 
HETATM   21  C   UNL     1     -46.148 -52.471  15.492  1.00  0.00     0.016 C 
HETATM   22  C   UNL     1     -43.857 -52.454  16.385  1.00  0.00     0.016 C 
HETATM   23  C   UNL     1     -44.656 -54.565  15.118  1.00  0.00    -0.004 C 
HETATM   24  C   UNL     1     -45.506 -54.863  13.865  1.00  0.00     0.006 C 
HETATM   25  C   UNL     1     -43.182 -54.829  14.724  1.00  0.00     0.031 C 
ENDBRANCH   1  16
TORSDOF 4
ENDMDL
MODEL 5
REMARK VINA RESULT:      -6.3      3.527      4.836
REMARK  4 active torsions:
REMARK  status: ('A' for Active; 'I' for Inactive)
REMARK    1  A    between atoms: C_9  and  N_11 
REMARK       I    between atoms: N_11  and  C_12 
REMARK    2  A    between atoms: C_12  and  C_14 
REMARK    3  A    between atoms: C_14  and  N_15 
REMARK    4  A    between atoms: C_17  and  N_22 
ROOT
HETATM    1  N   UNL     1     -43.514 -51.276  14.066  1.00  0.00    -0.354 N 
HETATM    2  C   UNL     1     -42.729 -51.293  12.930  1.00  0.00     0.236 C 
HETATM    3  O   UNL     1     -42.572 -52.291  12.229  1.00  0.00    -0.272 OA
HETATM    4  H   UNL     1     -43.434 -50.473  14.684  1.00  0.00     0.162 HD
ENDROOT
BRANCH   2   5
HETATM    5  C   UNL     1     -41.987 -49.988  12.648  1.00  0.00     0.234 C 
BRANCH   5   6
HETATM    6  N   UNL     1     -40.610 -50.047  13.138  1.00  0.00    -0.314 N 
HETATM    7  C   UNL     1     -39.585 -50.414  12.266  1.00  0.00     0.130 A 
HETATM    8  C   UNL     1     -38.309 -50.456  12.689  1.00  0.00     0.118 A 
HETATM    9  C   UNL     1     -37.985 -50.124  14.061  1.00  0.00     0.043 A 
HETATM   10  C   UNL     1     -38.957 -49.790  14.922  1.00  0.00     0.077 A 
HETATM   11  C   UNL     1     -40.381 -49.754  14.481  1.00  0.00     0.247 A 
HETATM   12  O   UNL     1     -41.264 -49.478  15.288  1.00  0.00    -0.268 OA
BRANCH   8  13
HETATM   13  N   UNL     1     -37.268 -50.824  11.723  1.00  0.00    -0.114 N 
HETATM   14  O   UNL     1     -36.668 -51.888  11.926  1.00  0.00    -0.532 OA
HETATM   15  O   UNL     1     -37.041 -50.053  10.780  1.00  0.00    -0.532 OA
ENDBRANCH   8  13
ENDBRANCH   5   6
ENDBRANCH   2   5
BRANCH   1  16
HETATM   16  C   UNL     1     -44.270 -52.442  14.495  1.00  0.00     0.093 C 
HETATM   17  C   UNL     1     -45.819 -52.228  14.618  1.00  0.00    -0.016 C 
HETATM   18  C   UNL     1     -46.014 -51.732  16.087  1.00  0.00    -0.035 C 
HETATM   19  C   UNL     1     -46.430 -53.664  14.670  1.00  0.00     0.012 C 
HETATM   20  C   UNL     1     -46.460 -51.395  13.522  1.00  0.00     0.018 C 
HETATM   21  C   UNL     1     -47.483 -51.620  16.546  1.00  0.00     0.016 C 
HETATM   22  C   UNL     1     -45.359 -50.385  16.444  1.00  0.00     0.016 C 
HETATM   23  C   UNL     1     -45.261 -52.963  16.652  1.00  0.00    -0.004 C 
HETATM   24  C   UNL     1     -46.037 -54.162  16.070  1.00  0.00     0.006 C 
HETATM   25  C   UNL     1     -43.897 -52.923  15.920  1.00  0.00     0.031 C 
ENDBRANCH   1  16
TORSDOF 4
ENDMDL
MODEL 6
REMARK VINA RESULT:      -6.3      2.736      4.228
REMARK  4 active torsions:
REMARK  status: ('A' for Active; 'I' for Inactive)
REMARK    1  A    between atoms: C_9  and  N_11 
REMARK       I    between atoms: N_11  and  C_12 
REMARK    2  A    between atoms: C_12  and  C_14 
REMARK    3  A    between atoms: C_14  and  N_15 
REMARK    4  A    between atoms: C_17  and  N_22 
ROOT
HETATM    1  N   UNL     1     -43.128 -50.837  12.846  1.00  0.00    -0.354 N 
HETATM    2  C   UNL     1     -42.471 -49.672  12.501  1.00  0.00     0.236 C 
HETATM    3  O   UNL     1     -42.910 -48.549  12.741  1.00  0.00    -0.272 OA
HETATM    4  H   UNL     1     -42.791 -51.707  12.443  1.00  0.00     0.162 HD
ENDROOT
BRANCH   2   5
HETATM    5  C   UNL     1     -41.180 -49.878  11.711  1.00  0.00     0.234 C 
BRANCH   5   6
HETATM    6  N   UNL     1     -40.030 -50.018  12.606  1.00  0.00    -0.314 N 
HETATM    7  C   UNL     1     -39.419 -48.877  13.123  1.00  0.00     0.130 A 
HETATM    8  C   UNL     1     -38.374 -48.982  13.964  1.00  0.00     0.118 A 
HETATM    9  C   UNL     1     -37.868 -50.286  14.338  1.00  0.00     0.043 A 
HETATM   10  C   UNL     1     -38.427 -51.396  13.835  1.00  0.00     0.077 A 
HETATM   11  C   UNL     1     -39.575 -51.305  12.888  1.00  0.00     0.247 A 
HETATM   12  O   UNL     1     -40.056 -52.328  12.409  1.00  0.00    -0.268 OA
BRANCH   8  13
HETATM   13  N   UNL     1     -37.784 -47.749  14.498  1.00  0.00    -0.114 N 
HETATM   14  O   UNL     1     -38.560 -46.939  15.020  1.00  0.00    -0.532 OA
HETATM   15  O   UNL     1     -36.561 -47.586  14.385  1.00  0.00    -0.532 OA
ENDBRANCH   8  13
ENDBRANCH   5   6
ENDBRANCH   2   5
BRANCH   1  16
HETATM   16  C   UNL     1     -44.385 -50.821  13.578  1.00  0.00     0.093 C 
HETATM   17  C   UNL     1     -44.536 -51.935  14.671  1.00  0.00    -0.016 C 
HETATM   18  C   UNL     1     -45.160 -53.140  13.896  1.00  0.00    -0.035 C 
HETATM   19  C   UNL     1     -45.724 -51.470  15.571  1.00  0.00     0.012 C 
HETATM   20  C   UNL     1     -43.295 -52.222  15.499  1.00  0.00     0.018 C 
HETATM   21  C   UNL     1     -45.595 -54.328  14.781  1.00  0.00     0.016 C 
HETATM   22  C   UNL     1     -44.300 -53.748  12.773  1.00  0.00     0.016 C 
HETATM   23  C   UNL     1     -46.331 -52.264  13.384  1.00  0.00    -0.004 C 
HETATM   24  C   UNL     1     -46.953 -51.696  14.676  1.00  0.00     0.006 C 
HETATM   25  C   UNL     1     -45.620 -51.083  12.678  1.00  0.00     0.031 C 
ENDBRANCH   1  16
TORSDOF 4
ENDMDL
MODEL 7
REMARK VINA RESULT:      -6.3      4.060      7.826
REMARK  4 active torsions:
REMARK  status: ('A' for Active; 'I' for Inactive)
REMARK    1  A    between atoms: C_9  and  N_11 
REMARK       I    between atoms: N_11  and  C_12 
REMARK    2  A    between atoms: C_12  and  C_14 
REMARK    3  A    between atoms: C_14  and  N_15 
REMARK    4  A    between atoms: C_17  and  N_22 
ROOT
HETATM    1  N   UNL     1     -40.068 -50.974  13.528  1.00  0.00    -0.354 N 
HETATM    2  C   UNL     1     -40.865 -51.477  12.519  1.00  0.00     0.236 C 
HETATM    3  O   UNL     1     -41.639 -50.788  11.859  1.00  0.00    -0.272 OA
HETATM    4  H   UNL     1     -39.607 -51.638  14.144  1.00  0.00     0.162 HD
ENDROOT
BRANCH   2   5
HETATM    5  C   UNL     1     -40.780 -52.992  12.337  1.00  0.00     0.234 C 
BRANCH   5   6
HETATM    6  N   UNL     1     -41.642 -53.688  13.292  1.00  0.00    -0.314 N 
HETATM    7  C   UNL     1     -42.998 -53.847  13.007  1.00  0.00     0.130 A 
HETATM    8  C   UNL     1     -43.804 -54.501  13.861  1.00  0.00     0.118 A 
HETATM    9  C   UNL     1     -43.274 -55.045  15.093  1.00  0.00     0.043 A 
HETATM   10  C   UNL     1     -41.978 -54.885  15.398  1.00  0.00     0.077 A 
HETATM   11  C   UNL     1     -41.067 -54.148  14.476  1.00  0.00     0.247 A 
HETATM   12  O   UNL     1     -39.890 -53.980  14.783  1.00  0.00    -0.268 OA
BRANCH   8  13
HETATM   13  N   UNL     1     -45.218 -54.661  13.499  1.00  0.00    -0.114 N 
HETATM   14  O   UNL     1     -45.705 -53.800  12.755  1.00  0.00    -0.532 OA
HETATM   15  O   UNL     1     -45.837 -55.628  13.964  1.00  0.00    -0.532 OA
ENDBRANCH   8  13
ENDBRANCH   5   6
ENDBRANCH   2   5
BRANCH   1  16
HETATM   16  C   UNL     1     -40.045 -49.556  13.853  1.00  0.00     0.093 C 
HETATM   17  C   UNL     1     -38.642 -48.865  13.738  1.00  0.00    -0.016 C 
HETATM   18  C   UNL     1     -38.011 -49.060  15.154  1.00  0.00    -0.035 C 
HETATM   19  C   UNL     1     -38.939 -47.333  13.717  1.00  0.00     0.012 C 
HETATM   20  C   UNL     1     -37.796 -49.281  12.547  1.00  0.00     0.018 C 
HETATM   21  C   UNL     1     -36.685 -48.304  15.385  1.00  0.00     0.016 C 
HETATM   22  C   UNL     1     -37.745 -50.513  15.589  1.00  0.00     0.016 C 
HETATM   23  C   UNL     1     -39.240 -48.416  15.843  1.00  0.00    -0.004 C 
HETATM   24  C   UNL     1     -39.354 -47.034  15.166  1.00  0.00     0.006 C 
HETATM   25  C   UNL     1     -40.431 -49.260  15.326  1.00  0.00     0.031 C 
ENDBRANCH   1  16
TORSDOF 4
ENDMDL
MODEL 8
REMARK VINA RESULT:      -6.2      3.370      7.151
REMARK  4 active torsions:
REMARK  status: ('A' for Active; 'I' for Inactive)
REMARK    1  A    between atoms: C_9  and  N_11 
REMARK       I    between atoms: N_11  and  C_12 
REMARK    2  A    between atoms: C_12  and  C_14 
REMARK    3  A    between atoms: C_14  and  N_15 
REMARK    4  A    between atoms: C_17  and  N_22 
ROOT
HETATM    1  N   UNL     1     -40.905 -50.226  12.219  1.00  0.00    -0.354 N 
HETATM    2  C   UNL     1     -40.527 -51.409  12.823  1.00  0.00     0.236 C 
HETATM    3  O   UNL     1     -39.763 -51.466  13.784  1.00  0.00    -0.272 OA
HETATM    4  H   UNL     1     -41.380 -50.283  11.323  1.00  0.00     0.162 HD
ENDROOT
BRANCH   2   5
HETATM    5  C   UNL     1     -41.066 -52.670  12.148  1.00  0.00     0.234 C 
BRANCH   5   6
HETATM    6  N   UNL     1     -42.187 -53.234  12.901  1.00  0.00    -0.314 N 
HETATM    7  C   UNL     1     -43.480 -52.771  12.658  1.00  0.00     0.130 A 
HETATM    8  C   UNL     1     -44.527 -53.289  13.324  1.00  0.00     0.118 A 
HETATM    9  C   UNL     1     -44.323 -54.333  14.306  1.00  0.00     0.043 A 
HETATM   10  C   UNL     1     -43.086 -54.777  14.571  1.00  0.00     0.077 A 
HETATM   11  C   UNL     1     -41.907 -54.206  13.859  1.00  0.00     0.247 A 
HETATM   12  O   UNL     1     -40.776 -54.598  14.135  1.00  0.00    -0.268 OA
BRANCH   8  13
HETATM   13  N   UNL     1     -45.869 -52.783  13.012  1.00  0.00    -0.114 N 
HETATM   14  O   UNL     1     -46.192 -52.755  11.818  1.00  0.00    -0.532 OA
HETATM   15  O   UNL     1     -46.587 -52.405  13.948  1.00  0.00    -0.532 OA
ENDBRANCH   8  13
ENDBRANCH   5   6
ENDBRANCH   2   5
BRANCH   1  16
HETATM   16  C   UNL     1     -40.461 -48.934  12.718  1.00  0.00     0.093 C 
HETATM   17  C   UNL     1     -41.577 -47.838  12.822  1.00  0.00    -0.016 C 
HETATM   18  C   UNL     1     -41.560 -47.149  11.420  1.00  0.00    -0.035 C 
HETATM   19  C   UNL     1     -40.980 -46.728  13.743  1.00  0.00     0.012 C 
HETATM   20  C   UNL     1     -42.926 -48.313  13.335  1.00  0.00     0.018 C 
HETATM   21  C   UNL     1     -42.444 -45.889  11.302  1.00  0.00     0.016 C 
HETATM   22  C   UNL     1     -41.934 -48.037  10.219  1.00  0.00     0.016 C 
HETATM   23  C   UNL     1     -40.042 -46.855  11.531  1.00  0.00    -0.004 C 
HETATM   24  C   UNL     1     -39.922 -46.061  12.848  1.00  0.00     0.006 C 
HETATM   25  C   UNL     1     -39.420 -48.247  11.797  1.00  0.00     0.031 C 
ENDBRANCH   1  16
TORSDOF 4
ENDMDL
MODEL 9
REMARK VINA RESULT:      -6.2      1.838      2.365
REMARK  4 active torsions:
REMARK  status: ('A' for Active; 'I' for Inactive)
REMARK    1  A    between atoms: C_9  and  N_11 
REMARK       I    between atoms: N_11  and  C_12 
REMARK    2  A    between atoms: C_12  and  C_14 
REMARK    3  A    between atoms: C_14  and  N_15 
REMARK    4  A    between atoms: C_17  and  N_22 
ROOT
HETATM    1  N   UNL     1     -42.265 -51.397  12.342  1.00  0.00    -0.354 N 
HETATM    2  C   UNL     1     -42.112 -50.030  12.211  1.00  0.00     0.236 C 
HETATM    3  O   UNL     1     -42.930 -49.213  12.629  1.00  0.00    -0.272 OA
HETATM    4  H   UNL     1     -41.645 -51.996  11.804  1.00  0.00     0.162 HD
ENDROOT
BRANCH   2   5
HETATM    5  C   UNL     1     -40.877 -49.600  11.422  1.00  0.00     0.234 C 
BRANCH   5   6
HETATM    6  N   UNL     1     -40.443 -48.258  11.810  1.00  0.00    -0.314 N 
HETATM    7  C   UNL     1     -40.839 -47.160  11.047  1.00  0.00     0.130 A 
HETATM    8  C   UNL     1     -40.469 -45.915  11.396  1.00  0.00     0.118 A 
HETATM    9  C   UNL     1     -39.649 -45.701  12.570  1.00  0.00     0.043 A 
HETATM   10  C   UNL     1     -39.239 -46.744  13.306  1.00  0.00     0.077 A 
HETATM   11  C   UNL     1     -39.621 -48.135  12.929  1.00  0.00     0.247 A 
HETATM   12  O   UNL     1     -39.212 -49.084  13.592  1.00  0.00    -0.268 OA
BRANCH   8  13
HETATM   13  N   UNL     1     -40.934 -44.794  10.572  1.00  0.00    -0.114 N 
HETATM   14  O   UNL     1     -40.064 -44.066  10.076  1.00  0.00    -0.532 OA
HETATM   15  O   UNL     1     -42.154 -44.633  10.432  1.00  0.00    -0.532 OA
ENDBRANCH   8  13
ENDBRANCH   5   6
ENDBRANCH   2   5
BRANCH   1  16
HETATM   16  C   UNL     1     -43.399 -51.978  13.044  1.00  0.00     0.093 C 
HETATM   17  C   UNL     1     -43.067 -52.620  14.436  1.00  0.00    -0.016 C 
HETATM   18  C   UNL     1     -42.697 -54.098  14.090  1.00  0.00    -0.035 C 
HETATM   19  C   UNL     1     -44.444 -52.783  15.152  1.00  0.00     0.012 C 
HETATM   20  C   UNL     1     -42.082 -51.851  15.300  1.00  0.00     0.018 C 
HETATM   21  C   UNL     1     -42.505 -55.023  15.310  1.00  0.00     0.016 C 
HETATM   22  C   UNL     1     -41.450 -54.301  13.210  1.00  0.00     0.016 C 
HETATM   23  C   UNL     1     -44.035 -54.306  13.337  1.00  0.00    -0.004 C 
HETATM   24  C   UNL     1     -45.105 -53.941  14.387  1.00  0.00     0.006 C 
HETATM   25  C   UNL     1     -44.042 -53.168  12.286  1.00  0.00     0.031 C 
ENDBRANCH   1  16
TORSDOF 4
ENDMDL
