MODEL 1
REMARK VINA RESULT:      -6.6      0.000      0.000
REMARK  7 active torsions:
REMARK  status: ('A' for Active; 'I' for Inactive)
REMARK    1  A    between atoms: O_2  and  C_3 
REMARK    2  A    between atoms: C_3  and  C_4 
REMARK    3  A    between atoms: C_4  and  N_5 
REMARK    4  A    between atoms: C_8  and  C_13 
REMARK       I    between atoms: C_13  and  N_15 
REMARK    5  A    between atoms: N_15  and  C_16 
REMARK    6  A    between atoms: C_16  and  C_17 
REMARK    7  A    between atoms: C_17  and  C_18 
ROOT
HETATM    1  N   UNL     1     -42.319 -47.232  10.144  1.00  0.00    -0.255 N 
HETATM    2  N   UNL     1     -42.262 -48.560  10.564  1.00  0.00    -0.290 N 
ATOM      3  HN  UNL     1     -42.985 -49.233  10.314  1.00  0.00     0.187 HD
HETATM    4  C   UNL     1     -41.238 -48.894  11.291  1.00  0.00     0.116 A 
HETATM    5  C   UNL     1     -40.159 -47.982  11.715  1.00  0.00     0.042 A 
HETATM    6  C   UNL     1     -40.215 -46.731  11.260  1.00  0.00     0.078 A 
HETATM    7  C   UNL     1     -41.324 -46.288  10.392  1.00  0.00     0.262 A 
HETATM    8  O   UNL     1     -41.299 -45.143   9.951  1.00  0.00    -0.267 OA
ENDROOT
BRANCH   4   9
HETATM    9  C   UNL     1     -41.094 -50.340  11.765  1.00  0.00     0.269 C 
HETATM   10  O   UNL     1     -39.976 -50.822  11.894  1.00  0.00    -0.266 OA
HETATM   11  N   UNL     1     -42.274 -51.009  12.014  1.00  0.00    -0.355 N 
HETATM   12  H   UNL     1     -43.137 -50.551  11.733  1.00  0.00     0.162 HD
BRANCH  11  13
HETATM   13  C   UNL     1     -42.238 -52.419  12.353  1.00  0.00     0.127 C 
BRANCH  13  14
HETATM   14  C   UNL     1     -43.616 -53.081  12.386  1.00  0.00     0.053 C 
BRANCH  14  15
HETATM   15  C   UNL     1     -44.567 -52.449  13.392  1.00  0.00    -0.082 A 
HETATM   16  C   UNL     1     -45.787 -52.032  13.025  1.00  0.00    -0.024 A 
HETATM   17  C   UNL     1     -46.800 -51.427  13.937  1.00  0.00     0.027 A 
HETATM   18  C   UNL     1     -46.430 -51.310  15.410  1.00  0.00     0.004 A 
HETATM   19  C   UNL     1     -45.043 -51.767  15.853  1.00  0.00     0.005 A 
HETATM   20  C   UNL     1     -44.085 -52.346  14.811  1.00  0.00     0.034 A 
ENDBRANCH  14  15
ENDBRANCH  13  14
ENDBRANCH  11  13
ENDBRANCH   4   9
BRANCH   1  21
HETATM   21  C   UNL     1     -43.492 -46.839   9.362  1.00  0.00     0.178 C 
BRANCH  21  22
HETATM   22  C   UNL     1     -43.673 -47.688   8.103  1.00  0.00     0.189 C 
BRANCH  22  23
HETATM   23  O   UNL     1     -45.022 -48.157   8.013  1.00  0.00    -0.394 OA
HETATM   24  C   UNL     1     -45.801 -47.733   9.123  1.00  0.00     0.201 C 
ENDBRANCH  22  23
ENDBRANCH  21  22
ENDBRANCH   1  21
TORSDOF 7
ENDMDL
MODEL 2
REMARK VINA RESULT:      -6.3      1.809      2.030
REMARK  7 active torsions:
REMARK  status: ('A' for Active; 'I' for Inactive)
REMARK    1  A    between atoms: O_2  and  C_3 
REMARK    2  A    between atoms: C_3  and  C_4 
REMARK    3  A    between atoms: C_4  and  N_5 
REMARK    4  A    between atoms: C_8  and  C_13 
REMARK       I    between atoms: C_13  and  N_15 
REMARK    5  A    between atoms: N_15  and  C_16 
REMARK    6  A    between atoms: C_16  and  C_17 
REMARK    7  A    between atoms: C_17  and  C_18 
ROOT
HETATM    1  N   UNL     1     -42.502 -46.741   9.675  1.00  0.00    -0.255 N 
HETATM    2  N   UNL     1     -42.077 -48.046   9.916  1.00  0.00    -0.290 N 
ATOM      3  HN  UNL     1     -42.359 -48.821   9.317  1.00  0.00     0.187 HD
HETATM    4  C   UNL     1     -41.302 -48.223  10.945  1.00  0.00     0.116 A 
HETATM    5  C   UNL     1     -40.863 -47.164  11.873  1.00  0.00     0.042 A 
HETATM    6  C   UNL     1     -41.246 -45.920  11.591  1.00  0.00     0.078 A 
HETATM    7  C   UNL     1     -42.090 -45.633  10.414  1.00  0.00     0.262 A 
HETATM    8  O   UNL     1     -42.366 -44.464  10.165  1.00  0.00    -0.267 OA
ENDROOT
BRANCH   4   9
HETATM    9  C   UNL     1     -40.775 -49.624  11.254  1.00  0.00     0.269 C 
HETATM   10  O   UNL     1     -39.568 -49.829  11.236  1.00  0.00    -0.266 OA
HETATM   11  N   UNL     1     -41.731 -50.576  11.536  1.00  0.00    -0.355 N 
HETATM   12  H   UNL     1     -42.702 -50.320  11.379  1.00  0.00     0.162 HD
BRANCH  11  13
HETATM   13  C   UNL     1     -41.330 -51.957  11.725  1.00  0.00     0.127 C 
BRANCH  13  14
HETATM   14  C   UNL     1     -41.350 -52.411  13.186  1.00  0.00     0.053 C 
BRANCH  14  15
HETATM   15  C   UNL     1     -42.522 -53.322  13.520  1.00  0.00    -0.082 A 
HETATM   16  C   UNL     1     -43.644 -53.305  12.787  1.00  0.00    -0.024 A 
HETATM   17  C   UNL     1     -44.834 -54.174  13.015  1.00  0.00     0.027 A 
HETATM   18  C   UNL     1     -44.750 -55.188  14.150  1.00  0.00     0.004 A 
HETATM   19  C   UNL     1     -43.489 -55.221  15.007  1.00  0.00     0.005 A 
HETATM   20  C   UNL     1     -42.348 -54.254  14.685  1.00  0.00     0.034 A 
ENDBRANCH  14  15
ENDBRANCH  13  14
ENDBRANCH  11  13
ENDBRANCH   4   9
BRANCH   1  21
HETATM   21  C   UNL     1     -43.409 -46.542   8.544  1.00  0.00     0.178 C 
BRANCH  21  22
HETATM   22  C   UNL     1     -44.877 -46.481   8.970  1.00  0.00     0.189 C 
BRANCH  22  23
HETATM   23  O   UNL     1     -45.285 -47.737   9.521  1.00  0.00    -0.394 OA
HETATM   24  C   UNL     1     -46.445 -48.242   8.875  1.00  0.00     0.201 C 
ENDBRANCH  22  23
ENDBRANCH  21  22
ENDBRANCH   1  21
TORSDOF 7
ENDMDL
MODEL 3
REMARK VINA RESULT:      -6.1      2.975      7.103
REMARK  7 active torsions:
REMARK  status: ('A' for Active; 'I' for Inactive)
REMARK    1  A    between atoms: O_2  and  C_3 
REMARK    2  A    between atoms: C_3  and  C_4 
REMARK    3  A    between atoms: C_4  and  N_5 
REMARK    4  A    between atoms: C_8  and  C_13 
REMARK       I    between atoms: C_13  and  N_15 
REMARK    5  A    between atoms: N_15  and  C_16 
REMARK    6  A    between atoms: C_16  and  C_17 
REMARK    7  A    between atoms: C_17  and  C_18 
ROOT
HETATM    1  N   UNL     1     -44.496 -53.255  13.017  1.00  0.00    -0.255 N 
HETATM    2  N   UNL     1     -43.527 -52.414  12.473  1.00  0.00    -0.290 N 
ATOM      3  HN  UNL     1     -43.775 -51.624  11.879  1.00  0.00     0.187 HD
HETATM    4  C   UNL     1     -42.290 -52.691  12.763  1.00  0.00     0.116 A 
HETATM    5  C   UNL     1     -41.843 -53.823  13.596  1.00  0.00     0.042 A 
HETATM    6  C   UNL     1     -42.792 -54.581  14.140  1.00  0.00     0.078 A 
HETATM    7  C   UNL     1     -44.221 -54.303  13.894  1.00  0.00     0.262 A 
HETATM    8  O   UNL     1     -45.058 -54.995  14.466  1.00  0.00    -0.267 OA
ENDROOT
BRANCH   4   9
HETATM    9  C   UNL     1     -41.176 -51.795  12.224  1.00  0.00     0.269 C 
HETATM   10  O   UNL     1     -40.010 -52.148  12.343  1.00  0.00    -0.266 OA
HETATM   11  N   UNL     1     -41.585 -50.620  11.630  1.00  0.00    -0.355 N 
HETATM   12  H   UNL     1     -42.566 -50.371  11.720  1.00  0.00     0.162 HD
BRANCH  11  13
HETATM   13  C   UNL     1     -40.593 -49.655  11.196  1.00  0.00     0.127 C 
BRANCH  13  14
HETATM   14  C   UNL     1     -41.184 -48.305  10.783  1.00  0.00     0.053 C 
BRANCH  14  15
HETATM   15  C   UNL     1     -40.488 -47.117  11.431  1.00  0.00    -0.082 A 
HETATM   16  C   UNL     1     -40.460 -45.919  10.830  1.00  0.00    -0.024 A 
HETATM   17  C   UNL     1     -39.830 -44.689  11.392  1.00  0.00     0.027 A 
HETATM   18  C   UNL     1     -39.203 -44.797  12.776  1.00  0.00     0.004 A 
HETATM   19  C   UNL     1     -39.212 -46.152  13.478  1.00  0.00     0.005 A 
HETATM   20  C   UNL     1     -39.867 -47.344  12.779  1.00  0.00     0.034 A 
ENDBRANCH  14  15
ENDBRANCH  13  14
ENDBRANCH  11  13
ENDBRANCH   4   9
BRANCH   1  21
HETATM   21  C   UNL     1     -45.887 -52.976  12.659  1.00  0.00     0.178 C 
BRANCH  21  22
HETATM   22  C   UNL     1     -46.301 -51.539  12.977  1.00  0.00     0.189 C 
BRANCH  22  23
HETATM   23  O   UNL     1     -45.838 -51.168  14.279  1.00  0.00    -0.394 OA
HETATM   24  C   UNL     1     -46.794 -51.473  15.284  1.00  0.00     0.201 C 
ENDBRANCH  22  23
ENDBRANCH  21  22
ENDBRANCH   1  21
TORSDOF 7
ENDMDL
MODEL 4
REMARK VINA RESULT:      -6.0      3.198      7.018
REMARK  7 active torsions:
REMARK  status: ('A' for Active; 'I' for Inactive)
REMARK    1  A    between atoms: O_2  and  C_3 
REMARK    2  A    between atoms: C_3  and  C_4 
REMARK    3  A    between atoms: C_4  and  N_5 
REMARK    4  A    between atoms: C_8  and  C_13 
REMARK       I    between atoms: C_13  and  N_15 
REMARK    5  A    between atoms: N_15  and  C_16 
REMARK    6  A    between atoms: C_16  and  C_17 
REMARK    7  A    between atoms: C_17  and  C_18 
ROOT
HETATM    1  N   UNL     1     -44.482 -53.292  13.022  1.00  0.00    -0.255 N 
HETATM    2  N   UNL     1     -43.496 -52.490  12.451  1.00  0.00    -0.290 N 
ATOM      3  HN  UNL     1     -43.728 -51.708  11.840  1.00  0.00     0.187 HD
HETATM    4  C   UNL     1     -42.265 -52.793  12.738  1.00  0.00     0.116 A 
HETATM    5  C   UNL     1     -41.840 -53.917  13.593  1.00  0.00     0.042 A 
HETATM    6  C   UNL     1     -42.805 -54.637  14.162  1.00  0.00     0.078 A 
HETATM    7  C   UNL     1     -44.228 -54.327  13.921  1.00  0.00     0.262 A 
HETATM    8  O   UNL     1     -45.077 -54.983  14.516  1.00  0.00    -0.267 OA
ENDROOT
BRANCH   4   9
HETATM    9  C   UNL     1     -41.131 -51.939  12.169  1.00  0.00     0.269 C 
HETATM   10  O   UNL     1     -39.972 -52.305  12.316  1.00  0.00    -0.266 OA
HETATM   11  N   UNL     1     -41.517 -50.788  11.517  1.00  0.00    -0.355 N 
HETATM   12  H   UNL     1     -42.495 -50.520  11.585  1.00  0.00     0.162 HD
BRANCH  11  13
HETATM   13  C   UNL     1     -40.505 -49.859  11.049  1.00  0.00     0.127 C 
BRANCH  13  14
HETATM   14  C   UNL     1     -40.679 -48.436  11.585  1.00  0.00     0.053 C 
BRANCH  14  15
HETATM   15  C   UNL     1     -39.615 -48.036  12.597  1.00  0.00    -0.082 A 
HETATM   16  C   UNL     1     -39.621 -46.823  13.165  1.00  0.00    -0.024 A 
HETATM   17  C   UNL     1     -38.642 -46.345  14.184  1.00  0.00     0.027 A 
HETATM   18  C   UNL     1     -37.574 -47.332  14.641  1.00  0.00     0.004 A 
HETATM   19  C   UNL     1     -37.538 -48.717  14.003  1.00  0.00     0.005 A 
HETATM   20  C   UNL     1     -38.586 -49.073  12.946  1.00  0.00     0.034 A 
ENDBRANCH  14  15
ENDBRANCH  13  14
ENDBRANCH  11  13
ENDBRANCH   4   9
BRANCH   1  21
HETATM   21  C   UNL     1     -45.868 -52.984  12.668  1.00  0.00     0.178 C 
BRANCH  21  22
HETATM   22  C   UNL     1     -46.237 -51.526  12.944  1.00  0.00     0.189 C 
BRANCH  22  23
HETATM   23  O   UNL     1     -45.796 -51.143  14.250  1.00  0.00    -0.394 OA
HETATM   24  C   UNL     1     -46.768 -51.443  15.242  1.00  0.00     0.201 C 
ENDBRANCH  22  23
ENDBRANCH  21  22
ENDBRANCH   1  21
TORSDOF 7
ENDMDL
MODEL 5
REMARK VINA RESULT:      -6.0      4.559      7.170
REMARK  7 active torsions:
REMARK  status: ('A' for Active; 'I' for Inactive)
REMARK    1  A    between atoms: O_2  and  C_3 
REMARK    2  A    between atoms: C_3  and  C_4 
REMARK    3  A    between atoms: C_4  and  N_5 
REMARK    4  A    between atoms: C_8  and  C_13 
REMARK       I    between atoms: C_13  and  N_15 
REMARK    5  A    between atoms: N_15  and  C_16 
REMARK    6  A    between atoms: C_16  and  C_17 
REMARK    7  A    between atoms: C_17  and  C_18 
ROOT
HETATM    1  N   UNL     1     -40.135 -54.718  14.983  1.00  0.00    -0.255 N 
HETATM    2  N   UNL     1     -41.390 -54.279  14.565  1.00  0.00    -0.290 N 
ATOM      3  HN  UNL     1     -41.497 -53.593  13.819  1.00  0.00     0.187 HD
HETATM    4  C   UNL     1     -42.417 -54.790  15.178  1.00  0.00     0.116 A 
HETATM    5  C   UNL     1     -42.352 -55.769  16.278  1.00  0.00     0.042 A 
HETATM    6  C   UNL     1     -41.142 -56.205  16.625  1.00  0.00     0.078 A 
HETATM    7  C   UNL     1     -39.931 -55.706  15.945  1.00  0.00     0.262 A 
HETATM    8  O   UNL     1     -38.845 -56.183  16.261  1.00  0.00    -0.267 OA
ENDROOT
BRANCH   4   9
HETATM    9  C   UNL     1     -43.825 -54.375  14.753  1.00  0.00     0.269 C 
HETATM   10  O   UNL     1     -44.782 -54.705  15.442  1.00  0.00    -0.266 OA
HETATM   11  N   UNL     1     -43.909 -53.642  13.589  1.00  0.00    -0.355 N 
HETATM   12  H   UNL     1     -43.063 -53.555  13.032  1.00  0.00     0.162 HD
BRANCH  11  13
HETATM   13  C   UNL     1     -45.213 -53.306  13.048  1.00  0.00     0.127 C 
BRANCH  13  14
HETATM   14  C   UNL     1     -45.564 -51.821  13.160  1.00  0.00     0.053 C 
BRANCH  14  15
HETATM   15  C   UNL     1     -45.901 -51.385  14.578  1.00  0.00    -0.082 A 
HETATM   16  C   UNL     1     -47.107 -51.629  15.110  1.00  0.00    -0.024 A 
HETATM   17  C   UNL     1     -47.525 -51.267  16.495  1.00  0.00     0.027 A 
HETATM   18  C   UNL     1     -46.485 -50.601  17.387  1.00  0.00     0.004 A 
HETATM   19  C   UNL     1     -45.107 -50.302  16.803  1.00  0.00     0.005 A 
HETATM   20  C   UNL     1     -44.814 -50.700  15.356  1.00  0.00     0.034 A 
ENDBRANCH  14  15
ENDBRANCH  13  14
ENDBRANCH  11  13
ENDBRANCH   4   9
BRANCH   1  21
HETATM   21  C   UNL     1     -38.975 -54.114  14.328  1.00  0.00     0.178 C 
BRANCH  21  22
HETATM   22  C   UNL     1     -39.127 -52.605  14.132  1.00  0.00     0.189 C 
BRANCH  22  23
HETATM   23  O   UNL     1     -39.667 -52.327  12.836  1.00  0.00    -0.394 OA
HETATM   24  C   UNL     1     -39.415 -50.987  12.439  1.00  0.00     0.201 C 
ENDBRANCH  22  23
ENDBRANCH  21  22
ENDBRANCH   1  21
TORSDOF 7
ENDMDL
MODEL 6
REMARK VINA RESULT:      -6.0      2.699      6.816
REMARK  7 active torsions:
REMARK  status: ('A' for Active; 'I' for Inactive)
REMARK    1  A    between atoms: O_2  and  C_3 
REMARK    2  A    between atoms: C_3  and  C_4 
REMARK    3  A    between atoms: C_4  and  N_5 
REMARK    4  A    between atoms: C_8  and  C_13 
REMARK       I    between atoms: C_13  and  N_15 
REMARK    5  A    between atoms: N_15  and  C_16 
REMARK    6  A    between atoms: C_16  and  C_17 
REMARK    7  A    between atoms: C_17  and  C_18 
ROOT
HETATM    1  N   UNL     1     -44.516 -53.270  13.068  1.00  0.00    -0.255 N 
HETATM    2  N   UNL     1     -43.527 -52.469  12.500  1.00  0.00    -0.290 N 
ATOM      3  HN  UNL     1     -43.757 -51.683  11.893  1.00  0.00     0.187 HD
HETATM    4  C   UNL     1     -42.297 -52.777  12.786  1.00  0.00     0.116 A 
HETATM    5  C   UNL     1     -41.877 -53.906  13.637  1.00  0.00     0.042 A 
HETATM    6  C   UNL     1     -42.844 -54.625  14.203  1.00  0.00     0.078 A 
HETATM    7  C   UNL     1     -44.266 -54.309  13.964  1.00  0.00     0.262 A 
HETATM    8  O   UNL     1     -45.118 -54.964  14.556  1.00  0.00    -0.267 OA
ENDROOT
BRANCH   4   9
HETATM    9  C   UNL     1     -41.161 -51.926  12.220  1.00  0.00     0.269 C 
HETATM   10  O   UNL     1     -40.004 -52.305  12.351  1.00  0.00    -0.266 OA
HETATM   11  N   UNL     1     -41.541 -50.761  11.589  1.00  0.00    -0.355 N 
HETATM   12  H   UNL     1     -42.516 -50.485  11.671  1.00  0.00     0.162 HD
BRANCH  11  13
HETATM   13  C   UNL     1     -40.525 -49.834  11.127  1.00  0.00     0.127 C 
BRANCH  13  14
HETATM   14  C   UNL     1     -40.658 -48.429  11.717  1.00  0.00     0.053 C 
BRANCH  14  15
HETATM   15  C   UNL     1     -41.575 -47.520  10.912  1.00  0.00    -0.082 A 
HETATM   16  C   UNL     1     -42.332 -48.004   9.917  1.00  0.00    -0.024 A 
HETATM   17  C   UNL     1     -43.280 -47.203   9.090  1.00  0.00     0.027 A 
HETATM   18  C   UNL     1     -43.427 -45.725   9.430  1.00  0.00     0.004 A 
HETATM   19  C   UNL     1     -42.569 -45.146  10.551  1.00  0.00     0.005 A 
HETATM   20  C   UNL     1     -41.613 -46.071  11.306  1.00  0.00     0.034 A 
ENDBRANCH  14  15
ENDBRANCH  13  14
ENDBRANCH  11  13
ENDBRANCH   4   9
BRANCH   1  21
HETATM   21  C   UNL     1     -45.901 -52.955  12.716  1.00  0.00     0.178 C 
BRANCH  21  22
HETATM   22  C   UNL     1     -46.307 -51.539  13.128  1.00  0.00     0.189 C 
BRANCH  22  23
HETATM   23  O   UNL     1     -45.658 -51.174  14.350  1.00  0.00    -0.394 OA
HETATM   24  C   UNL     1     -46.511 -51.352  15.471  1.00  0.00     0.201 C 
ENDBRANCH  22  23
ENDBRANCH  21  22
ENDBRANCH   1  21
TORSDOF 7
ENDMDL
MODEL 7
REMARK VINA RESULT:      -6.0      1.725      3.408
REMARK  7 active torsions:
REMARK  status: ('A' for Active; 'I' for Inactive)
REMARK    1  A    between atoms: O_2  and  C_3 
REMARK    2  A    between atoms: C_3  and  C_4 
REMARK    3  A    between atoms: C_4  and  N_5 
REMARK    4  A    between atoms: C_8  and  C_13 
REMARK       I    between atoms: C_13  and  N_15 
REMARK    5  A    between atoms: N_15  and  C_16 
REMARK    6  A    between atoms: C_16  and  C_17 
REMARK    7  A    between atoms: C_17  and  C_18 
ROOT
HETATM    1  N   UNL     1     -40.855 -46.212  10.577  1.00  0.00    -0.255 N 
HETATM    2  N   UNL     1     -40.402 -47.463  10.991  1.00  0.00    -0.290 N 
ATOM      3  HN  UNL     1     -39.413 -47.648  11.156  1.00  0.00     0.187 HD
HETATM    4  C   UNL     1     -41.306 -48.382  11.154  1.00  0.00     0.116 A 
HETATM    5  C   UNL     1     -42.752 -48.207  10.918  1.00  0.00     0.042 A 
HETATM    6  C   UNL     1     -43.161 -46.988  10.569  1.00  0.00     0.078 A 
HETATM    7  C   UNL     1     -42.198 -45.881  10.408  1.00  0.00     0.262 A 
HETATM    8  O   UNL     1     -42.632 -44.764  10.143  1.00  0.00    -0.267 OA
ENDROOT
BRANCH   4   9
HETATM    9  C   UNL     1     -40.885 -49.771  11.633  1.00  0.00     0.269 C 
HETATM   10  O   UNL     1     -39.716 -49.975  11.931  1.00  0.00    -0.266 OA
HETATM   11  N   UNL     1     -41.889 -50.715  11.690  1.00  0.00    -0.355 N 
HETATM   12  H   UNL     1     -42.785 -50.466  11.281  1.00  0.00     0.162 HD
BRANCH  11  13
HETATM   13  C   UNL     1     -41.559 -52.089  12.020  1.00  0.00     0.127 C 
BRANCH  13  14
HETATM   14  C   UNL     1     -42.128 -52.554  13.362  1.00  0.00     0.053 C 
BRANCH  14  15
HETATM   15  C   UNL     1     -43.613 -52.265  13.523  1.00  0.00    -0.082 A 
HETATM   16  C   UNL     1     -44.058 -51.440  14.481  1.00  0.00    -0.024 A 
HETATM   17  C   UNL     1     -45.486 -51.072  14.704  1.00  0.00     0.027 A 
HETATM   18  C   UNL     1     -46.514 -51.651  13.740  1.00  0.00     0.004 A 
HETATM   19  C   UNL     1     -46.036 -52.601  12.646  1.00  0.00     0.005 A 
HETATM   20  C   UNL     1     -44.543 -52.920  12.542  1.00  0.00     0.034 A 
ENDBRANCH  14  15
ENDBRANCH  13  14
ENDBRANCH  11  13
ENDBRANCH   4   9
BRANCH   1  21
HETATM   21  C   UNL     1     -39.837 -45.185  10.349  1.00  0.00     0.178 C 
BRANCH  21  22
HETATM   22  C   UNL     1     -39.490 -44.406  11.619  1.00  0.00     0.189 C 
BRANCH  22  23
HETATM   23  O   UNL     1     -39.863 -45.158  12.778  1.00  0.00    -0.394 OA
HETATM   24  C   UNL     1     -38.804 -45.227  13.722  1.00  0.00     0.201 C 
ENDBRANCH  22  23
ENDBRANCH  21  22
ENDBRANCH   1  21
TORSDOF 7
ENDMDL
MODEL 8
REMARK VINA RESULT:      -5.7      2.244      3.329
REMARK  7 active torsions:
REMARK  status: ('A' for Active; 'I' for Inactive)
REMARK    1  A    between atoms: O_2  and  C_3 
REMARK    2  A    between atoms: C_3  and  C_4 
REMARK    3  A    between atoms: C_4  and  N_5 
REMARK    4  A    between atoms: C_8  and  C_13 
REMARK       I    between atoms: C_13  and  N_15 
REMARK    5  A    between atoms: N_15  and  C_16 
REMARK    6  A    between atoms: C_16  and  C_17 
REMARK    7  A    between atoms: C_17  and  C_18 
ROOT
HETATM    1  N   UNL     1     -42.504 -47.688  10.831  1.00  0.00    -0.255 N 
HETATM    2  N   UNL     1     -43.298 -48.652  11.449  1.00  0.00    -0.290 N 
ATOM      3  HN  UNL     1     -44.223 -48.892  11.094  1.00  0.00     0.187 HD
HETATM    4  C   UNL     1     -42.799 -49.227  12.502  1.00  0.00     0.116 A 
HETATM    5  C   UNL     1     -41.482 -48.926  13.094  1.00  0.00     0.042 A 
HETATM    6  C   UNL     1     -40.725 -48.035  12.455  1.00  0.00     0.078 A 
HETATM    7  C   UNL     1     -41.205 -47.372  11.227  1.00  0.00     0.262 A 
HETATM    8  O   UNL     1     -40.446 -46.603  10.644  1.00  0.00    -0.267 OA
ENDROOT
BRANCH   4   9
HETATM    9  C   UNL     1     -43.603 -50.313  13.216  1.00  0.00     0.269 C 
HETATM   10  O   UNL     1     -44.039 -50.098  14.340  1.00  0.00    -0.266 OA
HETATM   11  N   UNL     1     -43.777 -51.488  12.515  1.00  0.00    -0.355 N 
HETATM   12  H   UNL     1     -43.248 -51.599  11.655  1.00  0.00     0.162 HD
BRANCH  11  13
HETATM   13  C   UNL     1     -44.426 -52.615  13.160  1.00  0.00     0.127 C 
BRANCH  13  14
HETATM   14  C   UNL     1     -43.764 -53.961  12.859  1.00  0.00     0.053 C 
BRANCH  14  15
HETATM   15  C   UNL     1     -42.499 -54.208  13.668  1.00  0.00    -0.082 A 
HETATM   16  C   UNL     1     -42.561 -54.639  14.936  1.00  0.00    -0.024 A 
HETATM   17  C   UNL     1     -41.383 -54.935  15.802  1.00  0.00     0.027 A 
HETATM   18  C   UNL     1     -40.002 -54.771  15.180  1.00  0.00     0.004 A 
HETATM   19  C   UNL     1     -39.903 -54.271  13.742  1.00  0.00     0.005 A 
HETATM   20  C   UNL     1     -41.190 -53.976  12.970  1.00  0.00     0.034 A 
ENDBRANCH  14  15
ENDBRANCH  13  14
ENDBRANCH  11  13
ENDBRANCH   4   9
BRANCH   1  21
HETATM   21  C   UNL     1     -43.078 -47.006   9.671  1.00  0.00     0.178 C 
BRANCH  21  22
HETATM   22  C   UNL     1     -44.605 -47.089   9.634  1.00  0.00     0.189 C 
BRANCH  22  23
HETATM   23  O   UNL     1     -45.025 -48.027   8.640  1.00  0.00    -0.394 OA
HETATM   24  C   UNL     1     -46.421 -48.282   8.714  1.00  0.00     0.201 C 
ENDBRANCH  22  23
ENDBRANCH  21  22
ENDBRANCH   1  21
TORSDOF 7
ENDMDL
MODEL 9
REMARK VINA RESULT:      -5.6      2.095      3.252
REMARK  7 active torsions:
REMARK  status: ('A' for Active; 'I' for Inactive)
REMARK    1  A    between atoms: O_2  and  C_3 
REMARK    2  A    between atoms: C_3  and  C_4 
REMARK    3  A    between atoms: C_4  and  N_5 
REMARK    4  A    between atoms: C_8  and  C_13 
REMARK       I    between atoms: C_13  and  N_15 
REMARK    5  A    between atoms: N_15  and  C_16 
REMARK    6  A    between atoms: C_16  and  C_17 
REMARK    7  A    between atoms: C_17  and  C_18 
ROOT
HETATM    1  N   UNL     1     -42.522 -45.399  10.842  1.00  0.00    -0.255 N 
HETATM    2  N   UNL     1     -41.926 -46.531  11.396  1.00  0.00    -0.290 N 
ATOM      3  HN  UNL     1     -41.432 -46.494  12.287  1.00  0.00     0.187 HD
HETATM    4  C   UNL     1     -42.032 -47.633  10.716  1.00  0.00     0.116 A 
HETATM    5  C   UNL     1     -42.710 -47.770   9.414  1.00  0.00     0.042 A 
HETATM    6  C   UNL     1     -43.311 -46.684   8.931  1.00  0.00     0.078 A 
HETATM    7  C   UNL     1     -43.273 -45.404   9.667  1.00  0.00     0.262 A 
HETATM    8  O   UNL     1     -43.891 -44.449   9.209  1.00  0.00    -0.267 OA
ENDROOT
BRANCH   4   9
HETATM    9  C   UNL     1     -41.426 -48.920  11.276  1.00  0.00     0.269 C 
HETATM   10  O   UNL     1     -40.213 -49.080  11.236  1.00  0.00    -0.266 OA
HETATM   11  N   UNL     1     -42.323 -49.828  11.797  1.00  0.00    -0.355 N 
HETATM   12  H   UNL     1     -43.311 -49.646  11.643  1.00  0.00     0.162 HD
BRANCH  11  13
HETATM   13  C   UNL     1     -41.850 -51.125  12.242  1.00  0.00     0.127 C 
BRANCH  13  14
HETATM   14  C   UNL     1     -42.314 -51.501  13.651  1.00  0.00     0.053 C 
BRANCH  14  15
HETATM   15  C   UNL     1     -43.763 -51.963  13.707  1.00  0.00    -0.082 A 
HETATM   16  C   UNL     1     -44.097 -53.230  13.427  1.00  0.00    -0.024 A 
HETATM   17  C   UNL     1     -45.480 -53.787  13.480  1.00  0.00     0.027 A 
HETATM   18  C   UNL     1     -46.594 -52.847  13.925  1.00  0.00     0.004 A 
HETATM   19  C   UNL     1     -46.242 -51.396  14.239  1.00  0.00     0.005 A 
HETATM   20  C   UNL     1     -44.786 -50.943  14.119  1.00  0.00     0.034 A 
ENDBRANCH  14  15
ENDBRANCH  13  14
ENDBRANCH  11  13
ENDBRANCH   4   9
BRANCH   1  21
HETATM   21  C   UNL     1     -42.369 -44.145  11.580  1.00  0.00     0.178 C 
BRANCH  21  22
HETATM   22  C   UNL     1     -42.111 -44.367  13.071  1.00  0.00     0.189 C 
BRANCH  22  23
HETATM   23  O   UNL     1     -43.283 -44.890  13.703  1.00  0.00    -0.394 OA
HETATM   24  C   UNL     1     -42.957 -45.738  14.795  1.00  0.00     0.201 C 
ENDBRANCH  22  23
ENDBRANCH  21  22
ENDBRANCH   1  21
TORSDOF 7
ENDMDL
