MODEL 1
REMARK VINA RESULT:      -5.8      0.000      0.000
REMARK  5 active torsions:
REMARK  status: ('A' for Active; 'I' for Inactive)
REMARK    1  A    between atoms: N_2  and  C_4 
REMARK    2  A    between atoms: N_9  and  C_10 
REMARK    3  A    between atoms: C_10  and  C_11 
REMARK       I    between atoms: C_11  and  N_13 
REMARK    4  A    between atoms: N_13  and  C_14 
REMARK    5  A    between atoms: C_14  and  C_15 
ROOT
HETATM    1  C   UNL     1     -43.441 -53.707  13.092  1.00  0.00     0.118 A 
HETATM    2  C   UNL     1     -42.743 -54.456  14.114  1.00  0.00     0.043 A 
HETATM    3  C   UNL     1     -41.447 -54.208  14.365  1.00  0.00     0.077 A 
HETATM    4  C   UNL     1     -40.717 -53.154  13.604  1.00  0.00     0.247 A 
HETATM    5  O   UNL     1     -39.528 -52.947  13.829  1.00  0.00    -0.268 OA
HETATM    6  N   UNL     1     -41.467 -52.445  12.669  1.00  0.00    -0.314 N 
HETATM    7  C   UNL     1     -42.803 -52.744  12.406  1.00  0.00     0.130 A 
ENDROOT
BRANCH   6   8
HETATM    8  C   UNL     1     -40.861 -51.270  12.046  1.00  0.00     0.234 C 
BRANCH   8   9
HETATM    9  C   UNL     1     -41.603 -49.954  12.263  1.00  0.00     0.235 C 
HETATM   10  O   UNL     1     -41.581 -49.397  13.363  1.00  0.00    -0.272 OA
HETATM   11  N   UNL     1     -42.205 -49.385  11.156  1.00  0.00    -0.359 N 
HETATM   12  H   UNL     1     -42.037 -49.805  10.243  1.00  0.00     0.162 HD
BRANCH  11  13
HETATM   13  C   UNL     1     -42.666 -48.014  11.270  1.00  0.00     0.127 C 
BRANCH  13  14
HETATM   14  C   UNL     1     -43.042 -47.465   9.910  1.00  0.00     0.003 C 
HETATM   15  C   UNL     1     -43.001 -45.909   9.861  1.00  0.00     0.006 C 
HETATM   16  C   UNL     1     -44.226 -45.965   8.933  1.00  0.00     0.001 C 
HETATM   17  C   UNL     1     -44.546 -47.344   9.549  1.00  0.00     0.006 C 
ENDBRANCH  13  14
ENDBRANCH  11  13
ENDBRANCH   8   9
ENDBRANCH   6   8
BRANCH   1  18
HETATM   18  N   UNL     1     -44.865 -53.924  12.824  1.00  0.00    -0.114 N 
HETATM   19  O   UNL     1     -45.460 -53.044  12.188  1.00  0.00    -0.532 OA
HETATM   20  O   UNL     1     -45.388 -54.971  13.232  1.00  0.00    -0.532 OA
ENDBRANCH   1  18
TORSDOF 5
ENDMDL
MODEL 2
REMARK VINA RESULT:      -5.8      3.077      6.548
REMARK  5 active torsions:
REMARK  status: ('A' for Active; 'I' for Inactive)
REMARK    1  A    between atoms: N_2  and  C_4 
REMARK    2  A    between atoms: N_9  and  C_10 
REMARK    3  A    between atoms: C_10  and  C_11 
REMARK       I    between atoms: C_11  and  N_13 
REMARK    4  A    between atoms: N_13  and  C_14 
REMARK    5  A    between atoms: C_14  and  C_15 
ROOT
HETATM    1  C   UNL     1     -42.471 -46.448   9.983  1.00  0.00     0.118 A 
HETATM    2  C   UNL     1     -41.464 -45.503  10.416  1.00  0.00     0.043 A 
HETATM    3  C   UNL     1     -40.399 -45.927  11.117  1.00  0.00     0.077 A 
HETATM    4  C   UNL     1     -40.236 -47.371  11.447  1.00  0.00     0.247 A 
HETATM    5  O   UNL     1     -39.269 -47.746  12.104  1.00  0.00    -0.268 OA
HETATM    6  N   UNL     1     -41.223 -48.225  10.958  1.00  0.00    -0.314 N 
HETATM    7  C   UNL     1     -42.334 -47.756  10.260  1.00  0.00     0.130 A 
ENDROOT
BRANCH   6   8
HETATM    8  C   UNL     1     -41.007 -49.666  11.075  1.00  0.00     0.234 C 
BRANCH   8   9
HETATM    9  C   UNL     1     -41.592 -50.319  12.324  1.00  0.00     0.235 C 
HETATM   10  O   UNL     1     -41.315 -49.886  13.445  1.00  0.00    -0.272 OA
HETATM   11  N   UNL     1     -42.505 -51.338  12.129  1.00  0.00    -0.359 N 
HETATM   12  H   UNL     1     -42.823 -51.529  11.179  1.00  0.00     0.162 HD
BRANCH  11  13
HETATM   13  C   UNL     1     -43.280 -51.778  13.274  1.00  0.00     0.127 C 
BRANCH  13  14
HETATM   14  C   UNL     1     -44.655 -51.143  13.261  1.00  0.00     0.003 C 
HETATM   15  C   UNL     1     -45.322 -51.131  14.668  1.00  0.00     0.006 C 
HETATM   16  C   UNL     1     -46.666 -51.393  13.967  1.00  0.00     0.001 C 
HETATM   17  C   UNL     1     -45.863 -52.002  12.798  1.00  0.00     0.006 C 
ENDBRANCH  13  14
ENDBRANCH  11  13
ENDBRANCH   8   9
ENDBRANCH   6   8
BRANCH   1  18
HETATM   18  N   UNL     1     -43.621 -46.024   9.180  1.00  0.00    -0.114 N 
HETATM   19  O   UNL     1     -44.342 -46.916   8.712  1.00  0.00    -0.532 OA
HETATM   20  O   UNL     1     -43.816 -44.810   9.027  1.00  0.00    -0.532 OA
ENDBRANCH   1  18
TORSDOF 5
ENDMDL
MODEL 3
REMARK VINA RESULT:      -5.7      3.892      5.062
REMARK  5 active torsions:
REMARK  status: ('A' for Active; 'I' for Inactive)
REMARK    1  A    between atoms: N_2  and  C_4 
REMARK    2  A    between atoms: N_9  and  C_10 
REMARK    3  A    between atoms: C_10  and  C_11 
REMARK       I    between atoms: C_11  and  N_13 
REMARK    4  A    between atoms: N_13  and  C_14 
REMARK    5  A    between atoms: C_14  and  C_15 
ROOT
HETATM    1  C   UNL     1     -42.027 -54.893  15.467  1.00  0.00     0.118 A 
HETATM    2  C   UNL     1     -40.587 -54.776  15.549  1.00  0.00     0.043 A 
HETATM    3  C   UNL     1     -39.903 -54.175  14.561  1.00  0.00     0.077 A 
HETATM    4  C   UNL     1     -40.616 -53.613  13.379  1.00  0.00     0.247 A 
HETATM    5  O   UNL     1     -39.980 -53.081  12.474  1.00  0.00    -0.268 OA
HETATM    6  N   UNL     1     -42.005 -53.724  13.393  1.00  0.00    -0.314 N 
HETATM    7  C   UNL     1     -42.688 -54.380  14.415  1.00  0.00     0.130 A 
ENDROOT
BRANCH   6   8
HETATM    8  C   UNL     1     -42.763 -53.012  12.366  1.00  0.00     0.234 C 
BRANCH   8   9
HETATM    9  C   UNL     1     -44.281 -53.156  12.452  1.00  0.00     0.235 C 
HETATM   10  O   UNL     1     -44.813 -54.260  12.317  1.00  0.00    -0.272 OA
HETATM   11  N   UNL     1     -45.000 -52.022  12.780  1.00  0.00    -0.359 N 
HETATM   12  H   UNL     1     -44.486 -51.184  13.051  1.00  0.00     0.162 HD
BRANCH  11  13
HETATM   13  C   UNL     1     -46.394 -52.189  13.143  1.00  0.00     0.127 C 
BRANCH  13  14
HETATM   14  C   UNL     1     -46.734 -51.342  14.352  1.00  0.00     0.003 C 
HETATM   15  C   UNL     1     -45.482 -50.994  15.209  1.00  0.00     0.006 C 
HETATM   16  C   UNL     1     -46.370 -51.134  16.457  1.00  0.00     0.001 C 
HETATM   17  C   UNL     1     -47.289 -52.048  15.618  1.00  0.00     0.006 C 
ENDBRANCH  13  14
ENDBRANCH  11  13
ENDBRANCH   8   9
ENDBRANCH   6   8
BRANCH   1  18
HETATM   18  N   UNL     1     -42.806 -55.505  16.546  1.00  0.00    -0.114 N 
HETATM   19  O   UNL     1     -42.386 -56.574  17.009  1.00  0.00    -0.532 OA
HETATM   20  O   UNL     1     -43.824 -54.919  16.943  1.00  0.00    -0.532 OA
ENDBRANCH   1  18
TORSDOF 5
ENDMDL
MODEL 4
REMARK VINA RESULT:      -5.7      2.502      6.895
REMARK  5 active torsions:
REMARK  status: ('A' for Active; 'I' for Inactive)
REMARK    1  A    between atoms: N_2  and  C_4 
REMARK    2  A    between atoms: N_9  and  C_10 
REMARK    3  A    between atoms: C_10  and  C_11 
REMARK       I    between atoms: C_11  and  N_13 
REMARK    4  A    between atoms: N_13  and  C_14 
REMARK    5  A    between atoms: C_14  and  C_15 
ROOT
HETATM    1  C   UNL     1     -42.100 -47.085  10.234  1.00  0.00     0.118 A 
HETATM    2  C   UNL     1     -41.110 -46.123  10.668  1.00  0.00     0.043 A 
HETATM    3  C   UNL     1     -40.042 -46.528  11.375  1.00  0.00     0.077 A 
HETATM    4  C   UNL     1     -39.857 -47.968  11.711  1.00  0.00     0.247 A 
HETATM    5  O   UNL     1     -38.887 -48.325  12.372  1.00  0.00    -0.268 OA
HETATM    6  N   UNL     1     -40.828 -48.840  11.221  1.00  0.00    -0.314 N 
HETATM    7  C   UNL     1     -41.944 -48.390  10.516  1.00  0.00     0.130 A 
ENDROOT
BRANCH   6   8
HETATM    8  C   UNL     1     -40.589 -50.276  11.343  1.00  0.00     0.234 C 
BRANCH   8   9
HETATM    9  C   UNL     1     -41.524 -51.019  12.294  1.00  0.00     0.235 C 
HETATM   10  O   UNL     1     -41.757 -50.571  13.419  1.00  0.00    -0.272 OA
HETATM   11  N   UNL     1     -42.156 -52.145  11.800  1.00  0.00    -0.359 N 
HETATM   12  H   UNL     1     -42.056 -52.361  10.808  1.00  0.00     0.162 HD
BRANCH  11  13
HETATM   13  C   UNL     1     -43.250 -52.699  12.574  1.00  0.00     0.127 C 
BRANCH  13  14
HETATM   14  C   UNL     1     -42.836 -54.005  13.220  1.00  0.00     0.003 C 
HETATM   15  C   UNL     1     -43.979 -54.643  14.064  1.00  0.00     0.006 C 
HETATM   16  C   UNL     1     -42.903 -55.104  15.062  1.00  0.00     0.001 C 
HETATM   17  C   UNL     1     -42.018 -53.953  14.538  1.00  0.00     0.006 C 
ENDBRANCH  13  14
ENDBRANCH  11  13
ENDBRANCH   8   9
ENDBRANCH   6   8
BRANCH   1  18
HETATM   18  N   UNL     1     -43.254 -46.682   9.426  1.00  0.00    -0.114 N 
HETATM   19  O   UNL     1     -44.309 -47.308   9.598  1.00  0.00    -0.532 OA
HETATM   20  O   UNL     1     -43.117 -45.739   8.634  1.00  0.00    -0.532 OA
ENDBRANCH   1  18
TORSDOF 5
ENDMDL
MODEL 5
REMARK VINA RESULT:      -5.6      1.377      1.815
REMARK  5 active torsions:
REMARK  status: ('A' for Active; 'I' for Inactive)
REMARK    1  A    between atoms: N_2  and  C_4 
REMARK    2  A    between atoms: N_9  and  C_10 
REMARK    3  A    between atoms: C_10  and  C_11 
REMARK       I    between atoms: C_11  and  N_13 
REMARK    4  A    between atoms: N_13  and  C_14 
REMARK    5  A    between atoms: C_14  and  C_15 
ROOT
HETATM    1  C   UNL     1     -43.739 -54.380  13.959  1.00  0.00     0.118 A 
HETATM    2  C   UNL     1     -43.104 -54.862  15.167  1.00  0.00     0.043 A 
HETATM    3  C   UNL     1     -41.771 -54.777  15.309  1.00  0.00     0.077 A 
HETATM    4  C   UNL     1     -40.933 -54.179  14.232  1.00  0.00     0.247 A 
HETATM    5  O   UNL     1     -39.713 -54.122  14.363  1.00  0.00    -0.268 OA
HETATM    6  N   UNL     1     -41.619 -53.697  13.119  1.00  0.00    -0.314 N 
HETATM    7  C   UNL     1     -43.000 -53.826  12.983  1.00  0.00     0.130 A 
ENDROOT
BRANCH   6   8
HETATM    8  C   UNL     1     -40.872 -52.920  12.132  1.00  0.00     0.234 C 
BRANCH   8   9
HETATM    9  C   UNL     1     -40.985 -51.403  12.267  1.00  0.00     0.235 C 
HETATM   10  O   UNL     1     -41.241 -50.890  13.359  1.00  0.00    -0.272 OA
HETATM   11  N   UNL     1     -40.694 -50.651  11.145  1.00  0.00    -0.359 N 
HETATM   12  H   UNL     1     -40.318 -51.127  10.326  1.00  0.00     0.162 HD
BRANCH  11  13
HETATM   13  C   UNL     1     -40.518 -49.221  11.318  1.00  0.00     0.127 C 
BRANCH  13  14
HETATM   14  C   UNL     1     -41.680 -48.465  10.709  1.00  0.00     0.003 C 
HETATM   15  C   UNL     1     -41.451 -46.925  10.698  1.00  0.00     0.006 C 
HETATM   16  C   UNL     1     -42.953 -46.760  10.989  1.00  0.00     0.001 C 
HETATM   17  C   UNL     1     -42.924 -48.180  11.592  1.00  0.00     0.006 C 
ENDBRANCH  13  14
ENDBRANCH  11  13
ENDBRANCH   8   9
ENDBRANCH   6   8
BRANCH   1  18
HETATM   18  N   UNL     1     -45.194 -54.420  13.793  1.00  0.00    -0.114 N 
HETATM   19  O   UNL     1     -45.847 -54.995  14.674  1.00  0.00    -0.532 OA
HETATM   20  O   UNL     1     -45.688 -53.870  12.798  1.00  0.00    -0.532 OA
ENDBRANCH   1  18
TORSDOF 5
ENDMDL
MODEL 6
REMARK VINA RESULT:      -5.6      4.229      6.346
REMARK  5 active torsions:
REMARK  status: ('A' for Active; 'I' for Inactive)
REMARK    1  A    between atoms: N_2  and  C_4 
REMARK    2  A    between atoms: N_9  and  C_10 
REMARK    3  A    between atoms: C_10  and  C_11 
REMARK       I    between atoms: C_11  and  N_13 
REMARK    4  A    between atoms: N_13  and  C_14 
REMARK    5  A    between atoms: C_14  and  C_15 
ROOT
HETATM    1  C   UNL     1     -46.670 -52.157  15.678  1.00  0.00     0.118 A 
HETATM    2  C   UNL     1     -46.939 -51.338  14.516  1.00  0.00     0.043 A 
HETATM    3  C   UNL     1     -46.428 -51.675  13.320  1.00  0.00     0.077 A 
HETATM    4  C   UNL     1     -45.589 -52.899  13.174  1.00  0.00     0.247 A 
HETATM    5  O   UNL     1     -45.112 -53.189  12.081  1.00  0.00    -0.268 OA
HETATM    6  N   UNL     1     -45.411 -53.660  14.327  1.00  0.00    -0.314 N 
HETATM    7  C   UNL     1     -45.927 -53.271  15.562  1.00  0.00     0.130 A 
ENDROOT
BRANCH   6   8
HETATM    8  C   UNL     1     -44.775 -54.969  14.197  1.00  0.00     0.234 C 
BRANCH   8   9
HETATM    9  C   UNL     1     -43.371 -55.079  14.787  1.00  0.00     0.235 C 
HETATM   10  O   UNL     1     -43.107 -55.953  15.616  1.00  0.00    -0.272 OA
HETATM   11  N   UNL     1     -42.410 -54.225  14.278  1.00  0.00    -0.359 N 
HETATM   12  H   UNL     1     -42.650 -53.649  13.473  1.00  0.00     0.162 HD
BRANCH  11  13
HETATM   13  C   UNL     1     -41.024 -54.496  14.611  1.00  0.00     0.127 C 
BRANCH  13  14
HETATM   14  C   UNL     1     -40.097 -53.680  13.733  1.00  0.00     0.003 C 
HETATM   15  C   UNL     1     -39.080 -52.838  14.557  1.00  0.00     0.006 C 
HETATM   16  C   UNL     1     -39.230 -51.731  13.500  1.00  0.00     0.001 C 
HETATM   17  C   UNL     1     -40.612 -52.331  13.165  1.00  0.00     0.006 C 
ENDBRANCH  13  14
ENDBRANCH  11  13
ENDBRANCH   8   9
ENDBRANCH   6   8
BRANCH   1  18
HETATM   18  N   UNL     1     -47.247 -51.839  16.986  1.00  0.00    -0.114 N 
HETATM   19  O   UNL     1     -46.499 -51.928  17.970  1.00  0.00    -0.532 OA
HETATM   20  O   UNL     1     -48.435 -51.490  17.037  1.00  0.00    -0.532 OA
ENDBRANCH   1  18
TORSDOF 5
ENDMDL
MODEL 7
REMARK VINA RESULT:      -5.5      2.745      3.837
REMARK  5 active torsions:
REMARK  status: ('A' for Active; 'I' for Inactive)
REMARK    1  A    between atoms: N_2  and  C_4 
REMARK    2  A    between atoms: N_9  and  C_10 
REMARK    3  A    between atoms: C_10  and  C_11 
REMARK       I    between atoms: C_11  and  N_13 
REMARK    4  A    between atoms: N_13  and  C_14 
REMARK    5  A    between atoms: C_14  and  C_15 
ROOT
HETATM    1  C   UNL     1     -43.462 -54.450  14.365  1.00  0.00     0.118 A 
HETATM    2  C   UNL     1     -42.409 -54.777  15.302  1.00  0.00     0.043 A 
HETATM    3  C   UNL     1     -41.130 -54.501  15.003  1.00  0.00     0.077 A 
HETATM    4  C   UNL     1     -40.779 -53.845  13.711  1.00  0.00     0.247 A 
HETATM    5  O   UNL     1     -39.605 -53.613  13.439  1.00  0.00    -0.268 OA
HETATM    6  N   UNL     1     -41.850 -53.520  12.880  1.00  0.00    -0.314 N 
HETATM    7  C   UNL     1     -43.166 -53.847  13.201  1.00  0.00     0.130 A 
ENDROOT
BRANCH   6   8
HETATM    8  C   UNL     1     -41.583 -52.696  11.703  1.00  0.00     0.234 C 
BRANCH   8   9
HETATM    9  C   UNL     1     -41.343 -51.213  11.979  1.00  0.00     0.235 C 
HETATM   10  O   UNL     1     -41.926 -50.648  12.906  1.00  0.00    -0.272 OA
HETATM   11  N   UNL     1     -40.385 -50.580  11.210  1.00  0.00    -0.359 N 
HETATM   12  H   UNL     1     -39.816 -51.146  10.582  1.00  0.00     0.162 HD
BRANCH  11  13
HETATM   13  C   UNL     1     -39.940 -49.266  11.635  1.00  0.00     0.127 C 
BRANCH  13  14
HETATM   14  C   UNL     1     -38.580 -49.353  12.294  1.00  0.00     0.003 C 
HETATM   15  C   UNL     1     -37.653 -50.406  11.619  1.00  0.00     0.006 C 
HETATM   16  C   UNL     1     -37.110 -50.738  13.018  1.00  0.00     0.001 C 
HETATM   17  C   UNL     1     -38.436 -50.195  13.590  1.00  0.00     0.006 C 
ENDBRANCH  13  14
ENDBRANCH  11  13
ENDBRANCH   8   9
ENDBRANCH   6   8
BRANCH   1  18
HETATM   18  N   UNL     1     -44.870 -54.700  14.680  1.00  0.00    -0.114 N 
HETATM   19  O   UNL     1     -45.358 -54.065  15.626  1.00  0.00    -0.532 OA
HETATM   20  O   UNL     1     -45.495 -55.512  13.983  1.00  0.00    -0.532 OA
ENDBRANCH   1  18
TORSDOF 5
ENDMDL
MODEL 8
REMARK VINA RESULT:      -5.3      4.154      6.558
REMARK  5 active torsions:
REMARK  status: ('A' for Active; 'I' for Inactive)
REMARK    1  A    between atoms: N_2  and  C_4 
REMARK    2  A    between atoms: N_9  and  C_10 
REMARK    3  A    between atoms: C_10  and  C_11 
REMARK       I    between atoms: C_11  and  N_13 
REMARK    4  A    between atoms: N_13  and  C_14 
REMARK    5  A    between atoms: C_14  and  C_15 
ROOT
HETATM    1  C   UNL     1     -45.933 -53.009  16.325  1.00  0.00     0.118 A 
HETATM    2  C   UNL     1     -46.883 -51.939  16.108  1.00  0.00     0.043 A 
HETATM    3  C   UNL     1     -47.002 -51.379  14.893  1.00  0.00     0.077 A 
HETATM    4  C   UNL     1     -46.170 -51.860  13.754  1.00  0.00     0.247 A 
HETATM    5  O   UNL     1     -46.274 -51.331  12.651  1.00  0.00    -0.268 OA
HETATM    6  N   UNL     1     -45.311 -52.922  14.029  1.00  0.00    -0.314 N 
HETATM    7  C   UNL     1     -45.183 -53.463  15.307  1.00  0.00     0.130 A 
ENDROOT
BRANCH   6   8
HETATM    8  C   UNL     1     -44.628 -53.564  12.908  1.00  0.00     0.234 C 
BRANCH   8   9
HETATM    9  C   UNL     1     -43.187 -53.115  12.673  1.00  0.00     0.235 C 
HETATM   10  O   UNL     1     -42.921 -51.921  12.521  1.00  0.00    -0.272 OA
HETATM   11  N   UNL     1     -42.209 -54.090  12.736  1.00  0.00    -0.359 N 
HETATM   12  H   UNL     1     -42.477 -55.026  13.039  1.00  0.00     0.162 HD
BRANCH  11  13
HETATM   13  C   UNL     1     -40.827 -53.655  12.799  1.00  0.00     0.127 C 
BRANCH  13  14
HETATM   14  C   UNL     1     -40.309 -53.733  14.220  1.00  0.00     0.003 C 
HETATM   15  C   UNL     1     -39.161 -54.772  14.382  1.00  0.00     0.006 C 
HETATM   16  C   UNL     1     -39.742 -55.109  15.765  1.00  0.00     0.001 C 
HETATM   17  C   UNL     1     -41.099 -54.584  15.251  1.00  0.00     0.006 C 
ENDBRANCH  13  14
ENDBRANCH  11  13
ENDBRANCH   8   9
ENDBRANCH   6   8
BRANCH   1  18
HETATM   18  N   UNL     1     -45.809 -53.667  17.628  1.00  0.00    -0.114 N 
HETATM   19  O   UNL     1     -45.772 -54.905  17.633  1.00  0.00    -0.532 OA
HETATM   20  O   UNL     1     -45.734 -52.958  18.642  1.00  0.00    -0.532 OA
ENDBRANCH   1  18
TORSDOF 5
ENDMDL
MODEL 9
REMARK VINA RESULT:      -5.3      3.423      5.946
REMARK  5 active torsions:
REMARK  status: ('A' for Active; 'I' for Inactive)
REMARK    1  A    between atoms: N_2  and  C_4 
REMARK    2  A    between atoms: N_9  and  C_10 
REMARK    3  A    between atoms: C_10  and  C_11 
REMARK       I    between atoms: C_11  and  N_13 
REMARK    4  A    between atoms: N_13  and  C_14 
REMARK    5  A    between atoms: C_14  and  C_15 
ROOT
HETATM    1  C   UNL     1     -38.268 -50.551  12.912  1.00  0.00     0.118 A 
HETATM    2  C   UNL     1     -37.881 -50.418  14.300  1.00  0.00     0.043 A 
HETATM    3  C   UNL     1     -38.810 -50.176  15.239  1.00  0.00     0.077 A 
HETATM    4  C   UNL     1     -40.248 -50.055  14.867  1.00  0.00     0.247 A 
HETATM    5  O   UNL     1     -41.088 -49.818  15.730  1.00  0.00    -0.268 OA
HETATM    6  N   UNL     1     -40.549 -50.241  13.519  1.00  0.00    -0.314 N 
HETATM    7  C   UNL     1     -39.562 -50.458  12.560  1.00  0.00     0.130 A 
ENDROOT
BRANCH   6   8
HETATM    8  C   UNL     1     -41.956 -50.337  13.134  1.00  0.00     0.234 C 
BRANCH   8   9
HETATM    9  C   UNL     1     -42.534 -51.750  13.105  1.00  0.00     0.235 C 
HETATM   10  O   UNL     1     -42.003 -52.656  13.750  1.00  0.00    -0.272 OA
HETATM   11  N   UNL     1     -43.715 -51.929  12.409  1.00  0.00    -0.359 N 
HETATM   12  H   UNL     1     -44.194 -51.105  12.047  1.00  0.00     0.162 HD
BRANCH  11  13
HETATM   13  C   UNL     1     -44.427 -53.179  12.600  1.00  0.00     0.127 C 
BRANCH  13  14
HETATM   14  C   UNL     1     -45.752 -52.936  13.292  1.00  0.00     0.003 C 
HETATM   15  C   UNL     1     -46.303 -51.501  13.042  1.00  0.00     0.006 C 
HETATM   16  C   UNL     1     -46.827 -51.515  14.488  1.00  0.00     0.001 C 
HETATM   17  C   UNL     1     -45.743 -52.569  14.800  1.00  0.00     0.006 C 
ENDBRANCH  13  14
ENDBRANCH  11  13
ENDBRANCH   8   9
ENDBRANCH   6   8
BRANCH   1  18
HETATM   18  N   UNL     1     -37.284 -50.856  11.871  1.00  0.00    -0.114 N 
HETATM   19  O   UNL     1     -37.103 -49.997  10.997  1.00  0.00    -0.532 OA
HETATM   20  O   UNL     1     -36.683 -51.938  11.927  1.00  0.00    -0.532 OA
ENDBRANCH   1  18
TORSDOF 5
ENDMDL
