MODEL 1
REMARK VINA RESULT:      -6.2      0.000      0.000
REMARK  3 active torsions:
REMARK  status: ('A' for Active; 'I' for Inactive)
REMARK    1  A    between atoms: C_2  and  C_4 
REMARK       I    between atoms: N_10  and  C_11 
REMARK       I    between atoms: C_11  and  N_13 
REMARK    2  A    between atoms: N_13  and  C_14 
REMARK    3  A    between atoms: C_14  and  C_15 
ROOT
HETATM    1  C   UNL     1     -40.298 -50.942  12.530  1.00  0.00     0.073 A 
HETATM    2  N   UNL     1     -41.417 -50.298  12.268  1.00  0.00    -0.296 N 
ATOM      3  HN  UNL     1     -41.481 -49.286  12.162  1.00  0.00     0.187 HD
HETATM    4  N   UNL     1     -42.486 -51.151  12.153  1.00  0.00    -0.279 N 
ATOM      5  HN  UNL     1     -43.439 -50.848  11.953  1.00  0.00     0.189 HD
HETATM    6  C   UNL     1     -42.136 -52.404  12.330  1.00  0.00     0.169 A 
HETATM    7  N   UNL     1     -42.947 -53.501  12.372  1.00  0.00    -0.288 N 
HETATM    8  C   UNL     1     -44.310 -53.443  12.449  1.00  0.00     0.322 C 
HETATM    9  O   UNL     1     -44.962 -54.479  12.560  1.00  0.00    -0.247 OA
HETATM   10  N   UNL     1     -44.874 -52.202  12.462  1.00  0.00    -0.342 N 
HETATM   11  S   UNL     1     -40.471 -52.660  12.581  1.00  0.00    -0.037 SA
HETATM   12  H   UNL     1     -42.533 -54.416  12.468  1.00  0.00     0.172 HD
HETATM   13  H   UNL     1     -44.300 -51.435  12.118  1.00  0.00     0.164 HD
ENDROOT
BRANCH  10  14
HETATM   14  C   UNL     1     -46.287 -51.971  12.628  1.00  0.00     0.131 C 
BRANCH  14  15
HETATM   15  C   UNL     1     -46.626 -51.561  14.057  1.00  0.00     0.029 C 
HETATM   16  C   UNL     1     -45.468 -51.008  14.870  1.00  0.00     0.034 C 
HETATM   17  C   UNL     1     -45.804 -51.405  16.299  1.00  0.00     0.168 C 
HETATM   18  O   UNL     1     -46.907 -52.320  16.254  1.00  0.00    -0.391 OA
HETATM   19  C   UNL     1     -47.071 -52.738  14.898  1.00  0.00     0.173 C 
ENDBRANCH  14  15
ENDBRANCH  10  14
BRANCH   1  20
HETATM   20  C   UNL     1     -38.982 -50.267  12.779  1.00  0.00     0.036 C 
HETATM   21  C   UNL     1     -38.002 -51.250  13.419  1.00  0.00     0.016 C 
HETATM   22  C   UNL     1     -38.412 -49.728  11.464  1.00  0.00     0.016 C 
ENDBRANCH   1  20
TORSDOF 3
ENDMDL
MODEL 2
REMARK VINA RESULT:      -6.0      3.032      4.235
REMARK  3 active torsions:
REMARK  status: ('A' for Active; 'I' for Inactive)
REMARK    1  A    between atoms: C_2  and  C_4 
REMARK       I    between atoms: N_10  and  C_11 
REMARK       I    between atoms: C_11  and  N_13 
REMARK    2  A    between atoms: N_13  and  C_14 
REMARK    3  A    between atoms: C_14  and  C_15 
ROOT
HETATM    1  C   UNL     1     -41.542 -48.313  11.317  1.00  0.00     0.073 A 
HETATM    2  N   UNL     1     -42.410 -49.304  11.359  1.00  0.00    -0.296 N 
ATOM      3  HN  UNL     1     -43.403 -49.201  11.147  1.00  0.00     0.187 HD
HETATM    4  N   UNL     1     -41.821 -50.489  11.722  1.00  0.00    -0.279 N 
ATOM      5  HN  UNL     1     -42.324 -51.372  11.813  1.00  0.00     0.189 HD
HETATM    6  C   UNL     1     -40.533 -50.351  11.938  1.00  0.00     0.169 A 
HETATM    7  N   UNL     1     -39.657 -51.292  12.395  1.00  0.00    -0.288 N 
HETATM    8  C   UNL     1     -40.031 -52.500  12.912  1.00  0.00     0.322 C 
HETATM    9  O   UNL     1     -39.180 -53.260  13.372  1.00  0.00    -0.247 OA
HETATM   10  N   UNL     1     -41.367 -52.769  12.947  1.00  0.00    -0.342 N 
HETATM   11  S   UNL     1     -39.917 -48.790  11.652  1.00  0.00    -0.037 SA
HETATM   12  H   UNL     1     -38.678 -51.059  12.468  1.00  0.00     0.172 HD
HETATM   13  H   UNL     1     -41.960 -52.216  12.333  1.00  0.00     0.164 HD
ENDROOT
BRANCH  10  14
HETATM   14  C   UNL     1     -41.925 -53.956  13.542  1.00  0.00     0.131 C 
BRANCH  14  15
HETATM   15  C   UNL     1     -43.423 -53.811  13.791  1.00  0.00     0.029 C 
HETATM   16  C   UNL     1     -44.104 -55.023  14.401  1.00  0.00     0.034 C 
HETATM   17  C   UNL     1     -45.521 -54.961  13.852  1.00  0.00     0.168 C 
HETATM   18  O   UNL     1     -45.550 -53.961  12.825  1.00  0.00    -0.391 OA
HETATM   19  C   UNL     1     -44.199 -53.624  12.505  1.00  0.00     0.173 C 
ENDBRANCH  14  15
ENDBRANCH  10  14
BRANCH   1  20
HETATM   20  C   UNL     1     -41.910 -46.890  11.021  1.00  0.00     0.036 C 
HETATM   21  C   UNL     1     -40.654 -46.078  10.710  1.00  0.00     0.016 C 
HETATM   22  C   UNL     1     -42.885 -46.835   9.842  1.00  0.00     0.016 C 
ENDBRANCH   1  20
TORSDOF 3
ENDMDL
MODEL 3
REMARK VINA RESULT:      -6.0      4.241      6.594
REMARK  3 active torsions:
REMARK  status: ('A' for Active; 'I' for Inactive)
REMARK    1  A    between atoms: C_2  and  C_4 
REMARK       I    between atoms: N_10  and  C_11 
REMARK       I    between atoms: C_11  and  N_13 
REMARK    2  A    between atoms: N_13  and  C_14 
REMARK    3  A    between atoms: C_14  and  C_15 
ROOT
HETATM    1  C   UNL     1     -44.747 -52.625  13.294  1.00  0.00     0.073 A 
HETATM    2  N   UNL     1     -44.909 -51.391  12.862  1.00  0.00    -0.296 N 
ATOM      3  HN  UNL     1     -45.818 -50.940  12.753  1.00  0.00     0.187 HD
HETATM    4  N   UNL     1     -43.712 -50.784  12.578  1.00  0.00    -0.279 N 
ATOM      5  HN  UNL     1     -43.625 -49.829  12.231  1.00  0.00     0.189 HD
HETATM    6  C   UNL     1     -42.692 -51.579  12.806  1.00  0.00     0.169 A 
HETATM    7  N   UNL     1     -41.372 -51.338  12.554  1.00  0.00    -0.288 N 
HETATM    8  C   UNL     1     -40.913 -50.288  11.810  1.00  0.00     0.322 C 
HETATM    9  O   UNL     1     -39.712 -50.187  11.568  1.00  0.00    -0.247 OA
HETATM   10  N   UNL     1     -41.848 -49.427  11.317  1.00  0.00    -0.342 N 
HETATM   11  S   UNL     1     -43.094 -53.102  13.450  1.00  0.00    -0.037 SA
HETATM   12  H   UNL     1     -40.686 -52.025  12.827  1.00  0.00     0.172 HD
HETATM   13  H   UNL     1     -42.762 -49.439  11.765  1.00  0.00     0.164 HD
ENDROOT
BRANCH  10  14
HETATM   14  C   UNL     1     -41.534 -48.325  10.443  1.00  0.00     0.131 C 
BRANCH  14  15
HETATM   15  C   UNL     1     -42.707 -47.361  10.308  1.00  0.00     0.029 C 
HETATM   16  C   UNL     1     -43.554 -47.535   9.059  1.00  0.00     0.034 C 
HETATM   17  C   UNL     1     -44.068 -46.133   8.770  1.00  0.00     0.168 C 
HETATM   18  O   UNL     1     -43.360 -45.221   9.620  1.00  0.00    -0.391 OA
HETATM   19  C   UNL     1     -42.252 -45.923  10.186  1.00  0.00     0.173 C 
ENDBRANCH  14  15
ENDBRANCH  10  14
BRANCH   1  20
HETATM   20  C   UNL     1     -45.878 -53.557  13.614  1.00  0.00     0.036 C 
HETATM   21  C   UNL     1     -45.346 -54.972  13.833  1.00  0.00     0.016 C 
HETATM   22  C   UNL     1     -46.622 -53.068  14.860  1.00  0.00     0.016 C 
ENDBRANCH   1  20
TORSDOF 3
ENDMDL
MODEL 4
REMARK VINA RESULT:      -5.9      4.596      6.731
REMARK  3 active torsions:
REMARK  status: ('A' for Active; 'I' for Inactive)
REMARK    1  A    between atoms: C_2  and  C_4 
REMARK       I    between atoms: N_10  and  C_11 
REMARK       I    between atoms: C_11  and  N_13 
REMARK    2  A    between atoms: N_13  and  C_14 
REMARK    3  A    between atoms: C_14  and  C_15 
ROOT
HETATM    1  C   UNL     1     -42.976 -47.154   9.494  1.00  0.00     0.073 A 
HETATM    2  N   UNL     1     -42.450 -48.353   9.340  1.00  0.00    -0.296 N 
ATOM      3  HN  UNL     1     -42.818 -49.059   8.703  1.00  0.00     0.187 HD
HETATM    4  N   UNL     1     -41.349 -48.537  10.138  1.00  0.00    -0.279 N 
ATOM      5  HN  UNL     1     -40.801 -49.397  10.165  1.00  0.00     0.189 HD
HETATM    6  C   UNL     1     -41.083 -47.474  10.861  1.00  0.00     0.169 A 
HETATM    7  N   UNL     1     -40.121 -47.334  11.820  1.00  0.00    -0.288 N 
HETATM    8  C   UNL     1     -39.402 -48.372  12.340  1.00  0.00     0.322 C 
HETATM    9  O   UNL     1     -38.608 -48.169  13.256  1.00  0.00    -0.247 OA
HETATM   10  N   UNL     1     -39.662 -49.614  11.841  1.00  0.00    -0.342 N 
HETATM   11  S   UNL     1     -42.103 -46.139  10.584  1.00  0.00    -0.037 SA
HETATM   12  H   UNL     1     -39.998 -46.437  12.266  1.00  0.00     0.172 HD
HETATM   13  H   UNL     1     -40.131 -49.655  10.939  1.00  0.00     0.164 HD
ENDROOT
BRANCH  10  14
HETATM   14  C   UNL     1     -39.055 -50.819  12.346  1.00  0.00     0.131 C 
BRANCH  14  15
HETATM   15  C   UNL     1     -40.073 -51.715  13.042  1.00  0.00     0.029 C 
HETATM   16  C   UNL     1     -39.490 -52.853  13.861  1.00  0.00     0.034 C 
HETATM   17  C   UNL     1     -40.547 -53.943  13.775  1.00  0.00     0.168 C 
HETATM   18  O   UNL     1     -41.506 -53.548  12.786  1.00  0.00    -0.391 OA
HETATM   19  C   UNL     1     -40.954 -52.451  12.056  1.00  0.00     0.173 C 
ENDBRANCH  14  15
ENDBRANCH  10  14
BRANCH   1  20
HETATM   20  C   UNL     1     -44.228 -46.695   8.807  1.00  0.00     0.036 C 
HETATM   21  C   UNL     1     -45.426 -47.499   9.309  1.00  0.00     0.016 C 
HETATM   22  C   UNL     1     -44.446 -45.201   9.061  1.00  0.00     0.016 C 
ENDBRANCH   1  20
TORSDOF 3
ENDMDL
MODEL 5
REMARK VINA RESULT:      -5.8      5.659      8.065
REMARK  3 active torsions:
REMARK  status: ('A' for Active; 'I' for Inactive)
REMARK    1  A    between atoms: C_2  and  C_4 
REMARK       I    between atoms: N_10  and  C_11 
REMARK       I    between atoms: C_11  and  N_13 
REMARK    2  A    between atoms: N_13  and  C_14 
REMARK    3  A    between atoms: C_14  and  C_15 
ROOT
HETATM    1  C   UNL     1     -44.745 -47.442   9.605  1.00  0.00     0.073 A 
HETATM    2  N   UNL     1     -44.067 -48.184  10.458  1.00  0.00    -0.296 N 
ATOM      3  HN  UNL     1     -44.455 -48.992  10.944  1.00  0.00     0.187 HD
HETATM    4  N   UNL     1     -42.778 -47.740  10.613  1.00  0.00    -0.279 N 
ATOM      5  HN  UNL     1     -42.094 -48.179  11.230  1.00  0.00     0.189 HD
HETATM    6  C   UNL     1     -42.529 -46.684   9.875  1.00  0.00     0.169 A 
HETATM    7  N   UNL     1     -41.389 -45.933   9.845  1.00  0.00    -0.288 N 
HETATM    8  C   UNL     1     -40.378 -46.041  10.756  1.00  0.00     0.322 C 
HETATM    9  O   UNL     1     -39.419 -45.274  10.701  1.00  0.00    -0.247 OA
HETATM   10  N   UNL     1     -40.528 -46.977  11.736  1.00  0.00    -0.342 N 
HETATM   11  S   UNL     1     -43.815 -46.182   8.877  1.00  0.00    -0.037 SA
HETATM   12  H   UNL     1     -41.318 -45.172   9.187  1.00  0.00     0.172 HD
HETATM   13  H   UNL     1     -41.205 -47.716  11.562  1.00  0.00     0.164 HD
ENDROOT
BRANCH  10  14
HETATM   14  C   UNL     1     -39.595 -47.151  12.821  1.00  0.00     0.131 C 
BRANCH  14  15
HETATM   15  C   UNL     1     -38.794 -48.440  12.673  1.00  0.00     0.029 C 
HETATM   16  C   UNL     1     -39.455 -49.529  11.847  1.00  0.00     0.034 C 
HETATM   17  C   UNL     1     -38.930 -50.819  12.457  1.00  0.00     0.168 C 
HETATM   18  O   UNL     1     -38.251 -50.485  13.674  1.00  0.00    -0.391 OA
HETATM   19  C   UNL     1     -38.580 -49.134  14.001  1.00  0.00     0.173 C 
ENDBRANCH  14  15
ENDBRANCH  10  14
BRANCH   1  20
HETATM   20  C   UNL     1     -46.197 -47.643   9.290  1.00  0.00     0.036 C 
HETATM   21  C   UNL     1     -46.821 -46.327   8.831  1.00  0.00     0.016 C 
HETATM   22  C   UNL     1     -46.354 -48.713   8.206  1.00  0.00     0.016 C 
ENDBRANCH   1  20
TORSDOF 3
ENDMDL
MODEL 6
REMARK VINA RESULT:      -5.7      3.213      3.823
REMARK  3 active torsions:
REMARK  status: ('A' for Active; 'I' for Inactive)
REMARK    1  A    between atoms: C_2  and  C_4 
REMARK       I    between atoms: N_10  and  C_11 
REMARK       I    between atoms: C_11  and  N_13 
REMARK    2  A    between atoms: N_13  and  C_14 
REMARK    3  A    between atoms: C_14  and  C_15 
ROOT
HETATM    1  C   UNL     1     -41.940 -47.195  11.436  1.00  0.00     0.073 A 
HETATM    2  N   UNL     1     -43.008 -47.967  11.444  1.00  0.00    -0.296 N 
ATOM      3  HN  UNL     1     -43.966 -47.615  11.445  1.00  0.00     0.187 HD
HETATM    4  N   UNL     1     -42.679 -49.299  11.451  1.00  0.00    -0.279 N 
ATOM      5  HN  UNL     1     -43.363 -50.056  11.459  1.00  0.00     0.189 HD
HETATM    6  C   UNL     1     -41.379 -49.484  11.446  1.00  0.00     0.169 A 
HETATM    7  N   UNL     1     -40.703 -50.666  11.536  1.00  0.00    -0.288 N 
HETATM    8  C   UNL     1     -41.283 -51.858  11.868  1.00  0.00     0.322 C 
HETATM    9  O   UNL     1     -40.588 -52.862  12.002  1.00  0.00    -0.247 OA
HETATM   10  N   UNL     1     -42.627 -51.846  12.098  1.00  0.00    -0.342 N 
HETATM   11  S   UNL     1     -40.449 -48.061  11.361  1.00  0.00    -0.037 SA
HETATM   12  H   UNL     1     -39.696 -50.664  11.470  1.00  0.00     0.172 HD
HETATM   13  H   UNL     1     -43.147 -51.054  11.726  1.00  0.00     0.164 HD
ENDROOT
BRANCH  10  14
HETATM   14  C   UNL     1     -43.370 -52.998  12.542  1.00  0.00     0.131 C 
BRANCH  14  15
HETATM   15  C   UNL     1     -44.856 -52.689  12.686  1.00  0.00     0.029 C 
HETATM   16  C   UNL     1     -45.187 -51.321  13.256  1.00  0.00     0.034 C 
HETATM   17  C   UNL     1     -46.502 -51.538  13.987  1.00  0.00     0.168 C 
HETATM   18  O   UNL     1     -46.746 -52.950  14.043  1.00  0.00    -0.391 OA
HETATM   19  C   UNL     1     -45.539 -53.616  13.669  1.00  0.00     0.173 C 
ENDBRANCH  14  15
ENDBRANCH  10  14
BRANCH   1  20
HETATM   20  C   UNL     1     -41.989 -45.697  11.499  1.00  0.00     0.036 C 
HETATM   21  C   UNL     1     -42.203 -45.240  12.941  1.00  0.00     0.016 C 
HETATM   22  C   UNL     1     -40.692 -45.107  10.940  1.00  0.00     0.016 C 
ENDBRANCH   1  20
TORSDOF 3
ENDMDL
MODEL 7
REMARK VINA RESULT:      -5.5      3.556      6.677
REMARK  3 active torsions:
REMARK  status: ('A' for Active; 'I' for Inactive)
REMARK    1  A    between atoms: C_2  and  C_4 
REMARK       I    between atoms: N_10  and  C_11 
REMARK       I    between atoms: C_11  and  N_13 
REMARK    2  A    between atoms: N_13  and  C_14 
REMARK    3  A    between atoms: C_14  and  C_15 
ROOT
HETATM    1  C   UNL     1     -42.489 -53.863  13.496  1.00  0.00     0.073 A 
HETATM    2  N   UNL     1     -41.227 -53.874  13.120  1.00  0.00    -0.296 N 
ATOM      3  HN  UNL     1     -40.577 -54.633  13.325  1.00  0.00     0.187 HD
HETATM    4  N   UNL     1     -40.890 -52.743  12.419  1.00  0.00    -0.279 N 
ATOM      5  HN  UNL     1     -39.960 -52.561  12.042  1.00  0.00     0.189 HD
HETATM    6  C   UNL     1     -41.908 -51.923  12.291  1.00  0.00     0.169 A 
HETATM    7  N   UNL     1     -41.913 -50.678  11.733  1.00  0.00    -0.288 N 
HETATM    8  C   UNL     1     -40.785 -49.983  11.401  1.00  0.00     0.322 C 
HETATM    9  O   UNL     1     -40.876 -48.834  10.973  1.00  0.00    -0.247 OA
HETATM   10  N   UNL     1     -39.591 -50.599  11.630  1.00  0.00    -0.342 N 
HETATM   11  S   UNL     1     -43.374 -52.486  12.947  1.00  0.00    -0.037 SA
HETATM   12  H   UNL     1     -42.785 -50.176  11.658  1.00  0.00     0.172 HD
HETATM   13  H   UNL     1     -39.613 -51.611  11.741  1.00  0.00     0.164 HD
ENDROOT
BRANCH  10  14
HETATM   14  C   UNL     1     -38.313 -49.967  11.419  1.00  0.00     0.131 C 
BRANCH  14  15
HETATM   15  C   UNL     1     -37.541 -49.808  12.723  1.00  0.00     0.029 C 
HETATM   16  C   UNL     1     -37.723 -50.929  13.731  1.00  0.00     0.034 C 
HETATM   17  C   UNL     1     -37.556 -50.240  15.077  1.00  0.00     0.168 C 
HETATM   18  O   UNL     1     -37.547 -48.825  14.848  1.00  0.00    -0.391 OA
HETATM   19  C   UNL     1     -37.992 -48.596  13.510  1.00  0.00     0.173 C 
ENDBRANCH  14  15
ENDBRANCH  10  14
BRANCH   1  20
HETATM   20  C   UNL     1     -43.121 -54.932  14.338  1.00  0.00     0.036 C 
HETATM   21  C   UNL     1     -42.347 -55.095  15.645  1.00  0.00     0.016 C 
HETATM   22  C   UNL     1     -44.583 -54.577  14.625  1.00  0.00     0.016 C 
ENDBRANCH   1  20
TORSDOF 3
ENDMDL
MODEL 8
REMARK VINA RESULT:      -5.4      2.951      6.322
REMARK  3 active torsions:
REMARK  status: ('A' for Active; 'I' for Inactive)
REMARK    1  A    between atoms: C_2  and  C_4 
REMARK       I    between atoms: N_10  and  C_11 
REMARK       I    between atoms: C_11  and  N_13 
REMARK    2  A    between atoms: N_13  and  C_14 
REMARK    3  A    between atoms: C_14  and  C_15 
ROOT
HETATM    1  C   UNL     1     -44.730 -52.270  13.753  1.00  0.00     0.073 A 
HETATM    2  N   UNL     1     -43.964 -51.202  13.657  1.00  0.00    -0.296 N 
ATOM      3  HN  UNL     1     -44.321 -50.253  13.544  1.00  0.00     0.187 HD
HETATM    4  N   UNL     1     -42.631 -51.518  13.726  1.00  0.00    -0.279 N 
ATOM      5  HN  UNL     1     -41.878 -50.831  13.670  1.00  0.00     0.189 HD
HETATM    6  C   UNL     1     -42.438 -52.808  13.873  1.00  0.00     0.169 A 
HETATM    7  N   UNL     1     -41.250 -53.480  13.890  1.00  0.00    -0.288 N 
HETATM    8  C   UNL     1     -40.052 -52.926  13.537  1.00  0.00     0.322 C 
HETATM    9  O   UNL     1     -39.040 -53.623  13.508  1.00  0.00    -0.247 OA
HETATM   10  N   UNL     1     -40.064 -51.614  13.167  1.00  0.00    -0.342 N 
HETATM   11  S   UNL     1     -43.857 -53.738  14.010  1.00  0.00    -0.037 SA
HETATM   12  H   UNL     1     -41.249 -54.474  14.061  1.00  0.00     0.172 HD
HETATM   13  H   UNL     1     -40.871 -51.065  13.458  1.00  0.00     0.164 HD
ENDROOT
BRANCH  10  14
HETATM   14  C   UNL     1     -38.903 -50.911  12.683  1.00  0.00     0.131 C 
BRANCH  14  15
HETATM   15  C   UNL     1     -39.286 -49.753  11.769  1.00  0.00     0.029 C 
HETATM   16  C   UNL     1     -39.376 -48.394  12.440  1.00  0.00     0.034 C 
HETATM   17  C   UNL     1     -40.436 -47.658  11.635  1.00  0.00     0.168 C 
HETATM   18  O   UNL     1     -41.066 -48.609  10.766  1.00  0.00    -0.391 OA
HETATM   19  C   UNL     1     -40.676 -49.915  11.193  1.00  0.00     0.173 C 
ENDBRANCH  14  15
ENDBRANCH  10  14
BRANCH   1  20
HETATM   20  C   UNL     1     -46.225 -52.242  13.639  1.00  0.00     0.036 C 
HETATM   21  C   UNL     1     -46.820 -51.390  14.759  1.00  0.00     0.016 C 
HETATM   22  C   UNL     1     -46.635 -51.687  12.272  1.00  0.00     0.016 C 
ENDBRANCH   1  20
TORSDOF 3
ENDMDL
MODEL 9
REMARK VINA RESULT:      -5.3      3.855      6.481
REMARK  3 active torsions:
REMARK  status: ('A' for Active; 'I' for Inactive)
REMARK    1  A    between atoms: C_2  and  C_4 
REMARK       I    between atoms: N_10  and  C_11 
REMARK       I    between atoms: C_11  and  N_13 
REMARK    2  A    between atoms: N_13  and  C_14 
REMARK    3  A    between atoms: C_14  and  C_15 
ROOT
HETATM    1  C   UNL     1     -43.065 -52.518  12.526  1.00  0.00     0.073 A 
HETATM    2  N   UNL     1     -43.202 -51.230  12.768  1.00  0.00    -0.296 N 
ATOM      3  HN  UNL     1     -44.085 -50.788  13.022  1.00  0.00     0.187 HD
HETATM    4  N   UNL     1     -42.015 -50.554  12.638  1.00  0.00    -0.279 N 
ATOM      5  HN  UNL     1     -41.911 -49.550  12.783  1.00  0.00     0.189 HD
HETATM    6  C   UNL     1     -41.028 -51.354  12.305  1.00  0.00     0.169 A 
HETATM    7  N   UNL     1     -39.739 -51.014  12.010  1.00  0.00    -0.288 N 
HETATM    8  C   UNL     1     -39.314 -49.732  11.803  1.00  0.00     0.322 C 
HETATM    9  O   UNL     1     -38.151 -49.519  11.465  1.00  0.00    -0.247 OA
HETATM   10  N   UNL     1     -40.247 -48.745  11.924  1.00  0.00    -0.342 N 
HETATM   11  S   UNL     1     -41.441 -53.001  12.191  1.00  0.00    -0.037 SA
HETATM   12  H   UNL     1     -39.070 -51.743  11.816  1.00  0.00     0.172 HD
HETATM   13  H   UNL     1     -41.093 -48.978  12.440  1.00  0.00     0.164 HD
ENDROOT
BRANCH  10  14
HETATM   14  C   UNL     1     -39.978 -47.356  11.650  1.00  0.00     0.131 C 
BRANCH  14  15
HETATM   15  C   UNL     1     -40.903 -46.806  10.570  1.00  0.00     0.029 C 
HETATM   16  C   UNL     1     -41.604 -45.503  10.912  1.00  0.00     0.034 C 
HETATM   17  C   UNL     1     -42.917 -45.585  10.149  1.00  0.00     0.168 C 
HETATM   18  O   UNL     1     -43.050 -46.920   9.644  1.00  0.00    -0.391 OA
HETATM   19  C   UNL     1     -42.068 -47.731  10.291  1.00  0.00     0.173 C 
ENDBRANCH  14  15
ENDBRANCH  10  14
BRANCH   1  20
HETATM   20  C   UNL     1     -44.204 -53.495  12.522  1.00  0.00     0.036 C 
HETATM   21  C   UNL     1     -44.098 -54.428  13.727  1.00  0.00     0.016 C 
HETATM   22  C   UNL     1     -45.538 -52.744  12.546  1.00  0.00     0.016 C 
ENDBRANCH   1  20
TORSDOF 3
ENDMDL
