MODEL 1
REMARK VINA RESULT:      -5.0      0.000      0.000
REMARK  3 active torsions:
REMARK  status: ('A' for Active; 'I' for Inactive)
REMARK    1  A    between atoms: C_4  and  O_6 
REMARK    2  A    between atoms: C_4  and  C_7 
REMARK    3  A    between atoms: N_9  and  C_13 
ROOT
HETATM    1  C   UNL     2     -43.028 -52.673  12.518  1.00  0.00     0.074 A 
HETATM    2  C   UNL     2     -44.064 -51.994  13.135  1.00  0.00     0.137 A 
HETATM    3  N   UNL     2     -45.129 -52.817  13.098  1.00  0.00    -0.277 N 
HETATM    4  N   UNL     2     -44.765 -53.945  12.508  1.00  0.00    -0.020 NA
HETATM    5  N   UNL     2     -43.493 -53.886  12.146  1.00  0.00    -0.284 N 
ATOM      6  HN  UNL     2     -42.963 -54.620  11.674  1.00  0.00     0.184 HD
ENDROOT
BRANCH   1   7
HETATM    7  C   UNL     2     -41.631 -52.160  12.241  1.00  0.00     0.095 C 
HETATM    8  C   UNL     2     -40.655 -52.669  13.326  1.00  0.00     0.052 C 
HETATM    9  C   UNL     2     -41.626 -50.623  12.221  1.00  0.00     0.052 C 
BRANCH   7  10
HETATM   10  O   UNL     2     -41.242 -52.651  10.979  1.00  0.00    -0.384 OA
HETATM   11  H   UNL     2     -42.026 -53.095  10.559  1.00  0.00     0.211 HD
ENDBRANCH   7  10
ENDBRANCH   1   7
BRANCH   3  12
HETATM   12  C   UNL     2     -46.475 -52.542  13.604  1.00  0.00     0.161 C 
HETATM   13  C   UNL     2     -46.590 -51.345  14.539  1.00  0.00     0.298 C 
HETATM   14  N   UNL     2     -47.306 -52.126  15.551  1.00  0.00     0.087 N 
HETATM   15  C   UNL     2     -46.875 -53.333  14.838  1.00  0.00     0.298 C 
HETATM   16  H   UNL     2     -48.331 -52.002  15.369  1.00  0.00     0.316 HD
ENDBRANCH   3  12
TORSDOF 3
ENDMDL
MODEL 2
REMARK VINA RESULT:      -4.9      5.885      7.403
REMARK  3 active torsions:
REMARK  status: ('A' for Active; 'I' for Inactive)
REMARK    1  A    between atoms: C_4  and  O_6 
REMARK    2  A    between atoms: C_4  and  C_7 
REMARK    3  A    between atoms: N_9  and  C_13 
ROOT
HETATM    1  C   UNL     2     -42.428 -47.176   9.871  1.00  0.00     0.074 A 
HETATM    2  C   UNL     2     -42.141 -48.307  10.614  1.00  0.00     0.137 A 
HETATM    3  N   UNL     2     -40.956 -48.076  11.209  1.00  0.00    -0.277 N 
HETATM    4  N   UNL     2     -40.545 -46.865  10.866  1.00  0.00    -0.020 NA
HETATM    5  N   UNL     2     -41.421 -46.295  10.054  1.00  0.00    -0.284 N 
ATOM      6  HN  UNL     2     -41.348 -45.363   9.643  1.00  0.00     0.184 HD
ENDROOT
BRANCH   1   7
HETATM    7  C   UNL     2     -43.617 -46.954   8.960  1.00  0.00     0.095 C 
HETATM    8  C   UNL     2     -44.920 -47.369   9.679  1.00  0.00     0.052 C 
HETATM    9  C   UNL     2     -43.454 -47.773   7.669  1.00  0.00     0.052 C 
BRANCH   7  10
HETATM   10  O   UNL     2     -43.660 -45.581   8.646  1.00  0.00    -0.384 OA
HETATM   11  H   UNL     2     -43.473 -45.474   7.676  1.00  0.00     0.211 HD
ENDBRANCH   7  10
ENDBRANCH   1   7
BRANCH   3  12
HETATM   12  C   UNL     2     -40.215 -48.987  12.083  1.00  0.00     0.161 C 
HETATM   13  C   UNL     2     -38.753 -49.201  11.715  1.00  0.00     0.298 C 
HETATM   14  N   UNL     2     -38.891 -50.659  11.755  1.00  0.00     0.087 N 
HETATM   15  C   UNL     2     -40.344 -50.462  11.737  1.00  0.00     0.298 C 
HETATM   16  H   UNL     2     -38.626 -50.968  12.721  1.00  0.00     0.316 HD
ENDBRANCH   3  12
TORSDOF 3
ENDMDL
MODEL 3
REMARK VINA RESULT:      -4.8      1.833      2.184
REMARK  3 active torsions:
REMARK  status: ('A' for Active; 'I' for Inactive)
REMARK    1  A    between atoms: C_4  and  O_6 
REMARK    2  A    between atoms: C_4  and  C_7 
REMARK    3  A    between atoms: N_9  and  C_13 
ROOT
HETATM    1  C   UNL     2     -41.840 -53.990  13.674  1.00  0.00     0.074 A 
HETATM    2  C   UNL     2     -43.052 -53.724  13.061  1.00  0.00     0.137 A 
HETATM    3  N   UNL     2     -43.991 -54.348  13.796  1.00  0.00    -0.277 N 
HETATM    4  N   UNL     2     -43.395 -54.949  14.814  1.00  0.00    -0.020 NA
HETATM    5  N   UNL     2     -42.087 -54.748  14.765  1.00  0.00    -0.284 N 
ATOM      6  HN  UNL     2     -41.395 -55.100  15.428  1.00  0.00     0.184 HD
ENDROOT
BRANCH   1   7
HETATM    7  C   UNL     2     -40.463 -53.574  13.204  1.00  0.00     0.095 C 
HETATM    8  C   UNL     2     -39.387 -54.480  13.846  1.00  0.00     0.052 C 
HETATM    9  C   UNL     2     -40.196 -52.107  13.581  1.00  0.00     0.052 C 
BRANCH   7  10
HETATM   10  O   UNL     2     -40.433 -53.715  11.803  1.00  0.00    -0.384 OA
HETATM   11  H   UNL     2     -39.499 -53.913  11.526  1.00  0.00     0.211 HD
ENDBRANCH   7  10
ENDBRANCH   1   7
BRANCH   3  12
HETATM   12  C   UNL     2     -45.432 -54.386  13.540  1.00  0.00     0.161 C 
HETATM   13  C   UNL     2     -46.117 -53.028  13.462  1.00  0.00     0.298 C 
HETATM   14  N   UNL     2     -47.152 -53.426  14.419  1.00  0.00     0.087 N 
HETATM   15  C   UNL     2     -46.302 -54.567  14.772  1.00  0.00     0.298 C 
HETATM   16  H   UNL     2     -47.961 -53.795  13.864  1.00  0.00     0.316 HD
ENDBRANCH   3  12
TORSDOF 3
ENDMDL
MODEL 4
REMARK VINA RESULT:      -4.8      2.463      5.154
REMARK  3 active torsions:
REMARK  status: ('A' for Active; 'I' for Inactive)
REMARK    1  A    between atoms: C_4  and  O_6 
REMARK    2  A    between atoms: C_4  and  C_7 
REMARK    3  A    between atoms: N_9  and  C_13 
ROOT
HETATM    1  C   UNL     2     -44.673 -52.013  12.907  1.00  0.00     0.074 A 
HETATM    2  C   UNL     2     -43.680 -52.963  12.742  1.00  0.00     0.137 A 
HETATM    3  N   UNL     2     -42.524 -52.284  12.626  1.00  0.00    -0.277 N 
HETATM    4  N   UNL     2     -42.787 -50.990  12.730  1.00  0.00    -0.020 NA
HETATM    5  N   UNL     2     -44.086 -50.797  12.902  1.00  0.00    -0.284 N 
ATOM      6  HN  UNL     2     -44.554 -49.897  13.011  1.00  0.00     0.184 HD
ENDROOT
BRANCH   1   7
HETATM    7  C   UNL     2     -46.164 -52.254  13.016  1.00  0.00     0.095 C 
HETATM    8  C   UNL     2     -46.884 -51.689  11.770  1.00  0.00     0.052 C 
HETATM    9  C   UNL     2     -46.717 -51.580  14.283  1.00  0.00     0.052 C 
BRANCH   7  10
HETATM   10  O   UNL     2     -46.364 -53.646  13.095  1.00  0.00    -0.384 OA
HETATM   11  H   UNL     2     -47.223 -53.814  13.564  1.00  0.00     0.211 HD
ENDBRANCH   7  10
ENDBRANCH   1   7
BRANCH   3  12
HETATM   12  C   UNL     2     -41.189 -52.844  12.410  1.00  0.00     0.161 C 
HETATM   13  C   UNL     2     -40.945 -54.211  13.035  1.00  0.00     0.298 C 
HETATM   14  N   UNL     2     -39.708 -53.764  13.682  1.00  0.00     0.087 N 
HETATM   15  C   UNL     2     -40.130 -52.388  13.400  1.00  0.00     0.298 C 
HETATM   16  H   UNL     2     -38.919 -53.991  13.030  1.00  0.00     0.316 HD
ENDBRANCH   3  12
TORSDOF 3
ENDMDL
MODEL 5
REMARK VINA RESULT:      -4.8      2.444      5.204
REMARK  3 active torsions:
REMARK  status: ('A' for Active; 'I' for Inactive)
REMARK    1  A    between atoms: C_4  and  O_6 
REMARK    2  A    between atoms: C_4  and  C_7 
REMARK    3  A    between atoms: N_9  and  C_13 
ROOT
HETATM    1  C   UNL     2     -44.341 -52.395  12.803  1.00  0.00     0.074 A 
HETATM    2  C   UNL     2     -43.555 -51.324  13.192  1.00  0.00     0.137 A 
HETATM    3  N   UNL     2     -42.342 -51.529  12.646  1.00  0.00    -0.277 N 
HETATM    4  N   UNL     2     -42.382 -52.652  11.946  1.00  0.00    -0.020 NA
HETATM    5  N   UNL     2     -43.586 -53.199  12.022  1.00  0.00    -0.284 N 
ATOM      6  HN  UNL     2     -43.886 -54.066  11.576  1.00  0.00     0.184 HD
ENDROOT
BRANCH   1   7
HETATM    7  C   UNL     2     -45.773 -52.677  13.206  1.00  0.00     0.095 C 
HETATM    8  C   UNL     2     -46.347 -51.478  13.994  1.00  0.00     0.052 C 
HETATM    9  C   UNL     2     -45.838 -53.945  14.073  1.00  0.00     0.052 C 
BRANCH   7  10
HETATM   10  O   UNL     2     -46.514 -52.873  12.024  1.00  0.00    -0.384 OA
HETATM   11  H   UNL     2     -47.266 -52.223  12.013  1.00  0.00     0.211 HD
ENDBRANCH   7  10
ENDBRANCH   1   7
BRANCH   3  12
HETATM   12  C   UNL     2     -41.156 -50.683  12.789  1.00  0.00     0.161 C 
HETATM   13  C   UNL     2     -40.640 -50.058  11.499  1.00  0.00     0.298 C 
HETATM   14  N   UNL     2     -39.274 -50.525  11.746  1.00  0.00     0.087 N 
HETATM   15  C   UNL     2     -39.828 -51.423  12.764  1.00  0.00     0.298 C 
HETATM   16  H   UNL     2     -38.769 -49.755  12.246  1.00  0.00     0.316 HD
ENDBRANCH   3  12
TORSDOF 3
ENDMDL
MODEL 6
REMARK VINA RESULT:      -4.7      5.566      6.481
REMARK  3 active torsions:
REMARK  status: ('A' for Active; 'I' for Inactive)
REMARK    1  A    between atoms: C_4  and  O_6 
REMARK    2  A    between atoms: C_4  and  C_7 
REMARK    3  A    between atoms: N_9  and  C_13 
ROOT
HETATM    1  C   UNL     2     -40.598 -48.238  11.117  1.00  0.00     0.074 A 
HETATM    2  C   UNL     2     -41.823 -48.389  10.490  1.00  0.00     0.137 A 
HETATM    3  N   UNL     2     -42.166 -47.170  10.033  1.00  0.00    -0.277 N 
HETATM    4  N   UNL     2     -41.199 -46.320  10.345  1.00  0.00    -0.020 NA
HETATM    5  N   UNL     2     -40.233 -46.942  11.004  1.00  0.00    -0.284 N 
ATOM      6  HN  UNL     2     -39.374 -46.522  11.359  1.00  0.00     0.184 HD
ENDROOT
BRANCH   1   7
HETATM    7  C   UNL     2     -39.809 -49.298  11.856  1.00  0.00     0.095 C 
HETATM    8  C   UNL     2     -40.770 -50.233  12.625  1.00  0.00     0.052 C 
HETATM    9  C   UNL     2     -38.831 -48.638  12.841  1.00  0.00     0.052 C 
BRANCH   7  10
HETATM   10  O   UNL     2     -39.089 -50.036  10.896  1.00  0.00    -0.384 OA
HETATM   11  H   UNL     2     -38.382 -49.450  10.515  1.00  0.00     0.211 HD
ENDBRANCH   7  10
ENDBRANCH   1   7
BRANCH   3  12
HETATM   12  C   UNL     2     -43.391 -46.806   9.320  1.00  0.00     0.161 C 
HETATM   13  C   UNL     2     -44.652 -47.526   9.779  1.00  0.00     0.298 C 
HETATM   14  N   UNL     2     -45.001 -47.918   8.411  1.00  0.00     0.087 N 
HETATM   15  C   UNL     2     -43.632 -47.562   8.024  1.00  0.00     0.298 C 
HETATM   16  H   UNL     2     -45.639 -47.178   8.031  1.00  0.00     0.316 HD
ENDBRANCH   3  12
TORSDOF 3
ENDMDL
MODEL 7
REMARK VINA RESULT:      -4.6      6.532      7.490
REMARK  3 active torsions:
REMARK  status: ('A' for Active; 'I' for Inactive)
REMARK    1  A    between atoms: C_4  and  O_6 
REMARK    2  A    between atoms: C_4  and  C_7 
REMARK    3  A    between atoms: N_9  and  C_13 
ROOT
HETATM    1  C   UNL     2     -42.600 -47.401   9.848  1.00  0.00     0.074 A 
HETATM    2  C   UNL     2     -42.382 -46.743  11.046  1.00  0.00     0.137 A 
HETATM    3  N   UNL     2     -41.415 -47.429  11.683  1.00  0.00    -0.277 N 
HETATM    4  N   UNL     2     -41.045 -48.442  10.915  1.00  0.00    -0.020 NA
HETATM    5  N   UNL     2     -41.749 -48.449   9.793  1.00  0.00    -0.284 N 
ATOM      6  HN  UNL     2     -41.663 -49.120   9.029  1.00  0.00     0.184 HD
ENDROOT
BRANCH   1   7
HETATM    7  C   UNL     2     -43.635 -47.071   8.795  1.00  0.00     0.095 C 
HETATM    8  C   UNL     2     -45.056 -47.299   9.359  1.00  0.00     0.052 C 
HETATM    9  C   UNL     2     -43.424 -47.951   7.551  1.00  0.00     0.052 C 
BRANCH   7  10
HETATM   10  O   UNL     2     -43.470 -45.715   8.449  1.00  0.00    -0.384 OA
HETATM   11  H   UNL     2     -43.650 -45.615   7.477  1.00  0.00     0.211 HD
ENDBRANCH   7  10
ENDBRANCH   1   7
BRANCH   3  12
HETATM   12  C   UNL     2     -40.851 -47.140  13.003  1.00  0.00     0.161 C 
HETATM   13  C   UNL     2     -40.271 -45.743  13.175  1.00  0.00     0.298 C 
HETATM   14  N   UNL     2     -39.008 -46.263  13.704  1.00  0.00     0.087 N 
HETATM   15  C   UNL     2     -39.409 -47.581  13.199  1.00  0.00     0.298 C 
HETATM   16  H   UNL     2     -39.097 -46.286  14.748  1.00  0.00     0.316 HD
ENDBRANCH   3  12
TORSDOF 3
ENDMDL
MODEL 8
REMARK VINA RESULT:      -4.6      6.008      6.524
REMARK  3 active torsions:
REMARK  status: ('A' for Active; 'I' for Inactive)
REMARK    1  A    between atoms: C_4  and  O_6 
REMARK    2  A    between atoms: C_4  and  C_7 
REMARK    3  A    between atoms: N_9  and  C_13 
ROOT
HETATM    1  C   UNL     2     -39.535 -49.369  11.543  1.00  0.00     0.074 A 
HETATM    2  C   UNL     2     -39.625 -48.003  11.744  1.00  0.00     0.137 A 
HETATM    3  N   UNL     2     -40.698 -47.588  11.046  1.00  0.00    -0.277 N 
HETATM    4  N   UNL     2     -41.249 -48.642  10.462  1.00  0.00    -0.020 NA
HETATM    5  N   UNL     2     -40.563 -49.738  10.748  1.00  0.00    -0.284 N 
ATOM      6  HN  UNL     2     -40.773 -50.684  10.428  1.00  0.00     0.184 HD
ENDROOT
BRANCH   1   7
HETATM    7  C   UNL     2     -38.461 -50.304  12.058  1.00  0.00     0.095 C 
HETATM    8  C   UNL     2     -38.040 -49.891  13.487  1.00  0.00     0.052 C 
HETATM    9  C   UNL     2     -37.238 -50.267  11.127  1.00  0.00     0.052 C 
BRANCH   7  10
HETATM   10  O   UNL     2     -39.004 -51.604  12.075  1.00  0.00    -0.384 OA
HETATM   11  H   UNL     2     -38.388 -52.194  12.585  1.00  0.00     0.211 HD
ENDBRANCH   7  10
ENDBRANCH   1   7
BRANCH   3  12
HETATM   12  C   UNL     2     -41.195 -46.217  10.921  1.00  0.00     0.161 C 
HETATM   13  C   UNL     2     -42.108 -45.748  12.045  1.00  0.00     0.298 C 
HETATM   14  N   UNL     2     -43.132 -45.285  11.105  1.00  0.00     0.087 N 
HETATM   15  C   UNL     2     -42.442 -46.058  10.067  1.00  0.00     0.298 C 
HETATM   16  H   UNL     2     -42.945 -44.270  10.920  1.00  0.00     0.316 HD
ENDBRANCH   3  12
TORSDOF 3
ENDMDL
MODEL 9
REMARK VINA RESULT:      -4.5      4.198      5.271
REMARK  3 active torsions:
REMARK  status: ('A' for Active; 'I' for Inactive)
REMARK    1  A    between atoms: C_4  and  O_6 
REMARK    2  A    between atoms: C_4  and  C_7 
REMARK    3  A    between atoms: N_9  and  C_13 
ROOT
HETATM    1  C   UNL     2     -40.708 -51.208  12.000  1.00  0.00     0.074 A 
HETATM    2  C   UNL     2     -41.647 -50.200  11.873  1.00  0.00     0.137 A 
HETATM    3  N   UNL     2     -40.966 -49.090  11.535  1.00  0.00    -0.277 N 
HETATM    4  N   UNL     2     -39.682 -49.399  11.442  1.00  0.00    -0.020 NA
HETATM    5  N   UNL     2     -39.496 -50.681  11.719  1.00  0.00    -0.284 N 
ATOM      6  HN  UNL     2     -38.604 -51.177  11.719  1.00  0.00     0.184 HD
ENDROOT
BRANCH   1   7
HETATM    7  C   UNL     2     -40.950 -52.639  12.431  1.00  0.00     0.095 C 
HETATM    8  C   UNL     2     -42.445 -52.845  12.766  1.00  0.00     0.052 C 
HETATM    9  C   UNL     2     -40.093 -52.972  13.663  1.00  0.00     0.052 C 
BRANCH   7  10
HETATM   10  O   UNL     2     -40.580 -53.473  11.358  1.00  0.00    -0.384 OA
HETATM   11  H   UNL     2     -40.705 -52.969  10.510  1.00  0.00     0.211 HD
ENDBRANCH   7  10
ENDBRANCH   1   7
BRANCH   3  12
HETATM   12  C   UNL     2     -41.514 -47.751  11.311  1.00  0.00     0.161 C 
HETATM   13  C   UNL     2     -42.516 -47.272  12.353  1.00  0.00     0.298 C 
HETATM   14  N   UNL     2     -43.498 -46.903  11.330  1.00  0.00     0.087 N 
HETATM   15  C   UNL     2     -42.711 -47.691  10.376  1.00  0.00     0.298 C 
HETATM   16  H   UNL     2     -43.345 -45.891  11.105  1.00  0.00     0.316 HD
ENDBRANCH   3  12
TORSDOF 3
ENDMDL
