MODEL 1
REMARK VINA RESULT:      -6.1      0.000      0.000
REMARK  5 active torsions:
REMARK  status: ('A' for Active; 'I' for Inactive)
REMARK    1  A    between atoms: O_1  and  C_2 
REMARK    2  A    between atoms: C_2  and  C_3 
REMARK    3  A    between atoms: C_9  and  N_10 
REMARK       I    between atoms: N_10  and  C_11 
REMARK    4  A    between atoms: C_11  and  C_13 
REMARK    5  A    between atoms: C_13  and  C_14 
ROOT
HETATM    1  N   UNL     1     -42.506 -46.836  10.364  1.00  0.00    -0.356 N 
HETATM    2  C   UNL     1     -43.143 -46.264   9.288  1.00  0.00     0.223 C 
HETATM    3  O   UNL     1     -43.460 -45.077   9.240  1.00  0.00    -0.273 OA
HETATM    4  H   UNL     1     -42.237 -47.814  10.307  1.00  0.00     0.162 HD
ENDROOT
BRANCH   1   5
HETATM    5  C   UNL     1     -42.100 -46.097  11.552  1.00  0.00     0.090 C 
HETATM    6  C   UNL     1     -40.565 -46.105  11.747  1.00  0.00     0.032 C 
HETATM    7  C   UNL     1     -39.984 -47.477  12.143  1.00  0.00     0.009 C 
HETATM    8  C   UNL     1     -40.268 -47.833  13.600  1.00  0.00     0.001 C 
HETATM    9  C   UNL     1     -41.595 -48.533  13.863  1.00  0.00     0.000 C 
HETATM   10  C   UNL     1     -42.816 -48.059  13.081  1.00  0.00     0.002 C 
HETATM   11  C   UNL     1     -42.888 -46.560  12.792  1.00  0.00     0.026 C 
BRANCH   6  12
HETATM   12  C   UNL     1     -39.839 -45.538  10.512  1.00  0.00     0.170 C 
BRANCH  12  13
HETATM   13  O   UNL     1     -40.488 -44.378  10.005  1.00  0.00    -0.400 OA
HETATM   14  H   UNL     1     -39.896 -43.626  10.191  1.00  0.00     0.209 HD
ENDBRANCH  12  13
ENDBRANCH   6  12
ENDBRANCH   1   5
BRANCH   2  15
HETATM   15  C   UNL     1     -43.437 -47.224   8.154  1.00  0.00     0.161 C 
BRANCH  15  16
HETATM   16  C   UNL     1     -44.808 -47.780   8.276  1.00  0.00     0.043 A 
HETATM   17  C   UNL     1     -45.723 -47.633   9.346  1.00  0.00     0.054 A 
HETATM   18  C   UNL     1     -46.829 -48.328   8.941  1.00  0.00     0.169 A 
HETATM   19  O   UNL     1     -46.609 -48.853   7.709  1.00  0.00    -0.250 OA
HETATM   20  N   UNL     1     -45.337 -48.510   7.284  1.00  0.00    -0.265 N 
ATOM     21  HN  UNL     1     -44.894 -48.761   6.400  1.00  0.00     0.194 HD
ENDBRANCH  15  16
ENDBRANCH   2  15
TORSDOF 5
ENDMDL
MODEL 2
REMARK VINA RESULT:      -5.8      5.926      8.070
REMARK  5 active torsions:
REMARK  status: ('A' for Active; 'I' for Inactive)
REMARK    1  A    between atoms: O_1  and  C_2 
REMARK    2  A    between atoms: C_2  and  C_3 
REMARK    3  A    between atoms: C_9  and  N_10 
REMARK       I    between atoms: N_10  and  C_11 
REMARK    4  A    between atoms: C_11  and  C_13 
REMARK    5  A    between atoms: C_13  and  C_14 
ROOT
HETATM    1  N   UNL     1     -44.494 -53.370  14.141  1.00  0.00    -0.356 N 
HETATM    2  C   UNL     1     -43.757 -53.787  13.058  1.00  0.00     0.223 C 
HETATM    3  O   UNL     1     -44.244 -54.365  12.088  1.00  0.00    -0.273 OA
HETATM    4  H   UNL     1     -44.024 -52.858  14.883  1.00  0.00     0.162 HD
ENDROOT
BRANCH   1   5
HETATM    5  C   UNL     1     -45.938 -53.530  14.248  1.00  0.00     0.090 C 
HETATM    6  C   UNL     1     -46.691 -52.198  14.016  1.00  0.00     0.032 C 
HETATM    7  C   UNL     1     -46.509 -51.162  15.143  1.00  0.00     0.009 C 
HETATM    8  C   UNL     1     -47.314 -51.511  16.393  1.00  0.00     0.001 C 
HETATM    9  C   UNL     1     -46.623 -52.434  17.388  1.00  0.00     0.000 C 
HETATM   10  C   UNL     1     -45.792 -53.586  16.833  1.00  0.00     0.002 C 
HETATM   11  C   UNL     1     -46.323 -54.243  15.559  1.00  0.00     0.026 C 
BRANCH   6  12
HETATM   12  C   UNL     1     -46.338 -51.585  12.647  1.00  0.00     0.170 C 
BRANCH  12  13
HETATM   13  O   UNL     1     -46.503 -52.524  11.591  1.00  0.00    -0.400 OA
HETATM   14  H   UNL     1     -45.841 -53.224  11.738  1.00  0.00     0.209 HD
ENDBRANCH  12  13
ENDBRANCH   6  12
ENDBRANCH   1   5
BRANCH   2  15
HETATM   15  C   UNL     1     -42.276 -53.483  13.157  1.00  0.00     0.161 C 
BRANCH  15  16
HETATM   16  C   UNL     1     -41.972 -52.152  12.577  1.00  0.00     0.043 A 
HETATM   17  C   UNL     1     -42.468 -50.887  12.974  1.00  0.00     0.054 A 
HETATM   18  C   UNL     1     -41.861 -50.004  12.123  1.00  0.00     0.169 A 
HETATM   19  O   UNL     1     -41.047 -50.680  11.275  1.00  0.00    -0.250 OA
HETATM   20  N   UNL     1     -41.111 -52.034  11.556  1.00  0.00    -0.265 N 
ATOM     21  HN  UNL     1     -40.609 -52.786  11.085  1.00  0.00     0.194 HD
ENDBRANCH  15  16
ENDBRANCH   2  15
TORSDOF 5
ENDMDL
MODEL 3
REMARK VINA RESULT:      -5.8      3.971      5.941
REMARK  5 active torsions:
REMARK  status: ('A' for Active; 'I' for Inactive)
REMARK    1  A    between atoms: O_1  and  C_2 
REMARK    2  A    between atoms: C_2  and  C_3 
REMARK    3  A    between atoms: C_9  and  N_10 
REMARK       I    between atoms: N_10  and  C_11 
REMARK    4  A    between atoms: C_11  and  C_13 
REMARK    5  A    between atoms: C_13  and  C_14 
ROOT
HETATM    1  N   UNL     1     -43.042 -50.161  12.223  1.00  0.00    -0.356 N 
HETATM    2  C   UNL     1     -42.340 -48.983  12.124  1.00  0.00     0.223 C 
HETATM    3  O   UNL     1     -41.680 -48.507  13.046  1.00  0.00    -0.273 OA
HETATM    4  H   UNL     1     -43.526 -50.510  11.400  1.00  0.00     0.162 HD
ENDROOT
BRANCH   1   5
HETATM    5  C   UNL     1     -43.056 -50.998  13.415  1.00  0.00     0.090 C 
HETATM    6  C   UNL     1     -42.612 -52.450  13.113  1.00  0.00     0.032 C 
HETATM    7  C   UNL     1     -43.620 -53.260  12.274  1.00  0.00     0.009 C 
HETATM    8  C   UNL     1     -44.836 -53.699  13.086  1.00  0.00     0.001 C 
HETATM    9  C   UNL     1     -45.983 -52.699  13.151  1.00  0.00     0.000 C 
HETATM   10  C   UNL     1     -45.633 -51.221  13.292  1.00  0.00     0.002 C 
HETATM   11  C   UNL     1     -44.408 -50.900  14.148  1.00  0.00     0.026 C 
BRANCH   6  12
HETATM   12  C   UNL     1     -41.211 -52.485  12.472  1.00  0.00     0.170 C 
BRANCH  12  13
HETATM   13  O   UNL     1     -41.281 -52.496  11.051  1.00  0.00    -0.400 OA
HETATM   14  H   UNL     1     -40.708 -53.224  10.751  1.00  0.00     0.209 HD
ENDBRANCH  12  13
ENDBRANCH   6  12
ENDBRANCH   1   5
BRANCH   2  15
HETATM   15  C   UNL     1     -42.449 -48.302  10.775  1.00  0.00     0.161 C 
BRANCH  15  16
HETATM   16  C   UNL     1     -41.593 -47.091  10.726  1.00  0.00     0.043 A 
HETATM   17  C   UNL     1     -41.988 -45.733  10.769  1.00  0.00     0.054 A 
HETATM   18  C   UNL     1     -40.812 -45.037  10.706  1.00  0.00     0.169 A 
HETATM   19  O   UNL     1     -39.774 -45.907  10.640  1.00  0.00    -0.250 OA
HETATM   20  N   UNL     1     -40.259 -47.204  10.653  1.00  0.00    -0.265 N 
ATOM     21  HN  UNL     1     -39.715 -48.066  10.615  1.00  0.00     0.194 HD
ENDBRANCH  15  16
ENDBRANCH   2  15
TORSDOF 5
ENDMDL
MODEL 4
REMARK VINA RESULT:      -5.6      2.496      3.644
REMARK  5 active torsions:
REMARK  status: ('A' for Active; 'I' for Inactive)
REMARK    1  A    between atoms: O_1  and  C_2 
REMARK    2  A    between atoms: C_2  and  C_3 
REMARK    3  A    between atoms: C_9  and  N_10 
REMARK       I    between atoms: N_10  and  C_11 
REMARK    4  A    between atoms: C_11  and  C_13 
REMARK    5  A    between atoms: C_13  and  C_14 
ROOT
HETATM    1  N   UNL     1     -42.559 -45.354  11.019  1.00  0.00    -0.356 N 
HETATM    2  C   UNL     1     -43.220 -45.876   9.933  1.00  0.00     0.223 C 
HETATM    3  O   UNL     1     -43.392 -45.258   8.883  1.00  0.00    -0.273 OA
HETATM    4  H   UNL     1     -42.417 -45.946  11.834  1.00  0.00     0.162 HD
ENDROOT
BRANCH   1   5
HETATM    5  C   UNL     1     -41.956 -44.028  11.041  1.00  0.00     0.090 C 
HETATM    6  C   UNL     1     -40.418 -44.090  11.201  1.00  0.00     0.032 C 
HETATM    7  C   UNL     1     -39.943 -44.560  12.590  1.00  0.00     0.009 C 
HETATM    8  C   UNL     1     -40.108 -43.483  13.660  1.00  0.00     0.001 C 
HETATM    9  C   UNL     1     -41.465 -43.438  14.349  1.00  0.00     0.000 C 
HETATM   10  C   UNL     1     -42.706 -43.670  13.493  1.00  0.00     0.002 C 
HETATM   11  C   UNL     1     -42.653 -43.117  12.070  1.00  0.00     0.026 C 
BRANCH   6  12
HETATM   12  C   UNL     1     -39.771 -44.934  10.086  1.00  0.00     0.170 C 
BRANCH  12  13
HETATM   13  O   UNL     1     -39.747 -46.317  10.418  1.00  0.00    -0.400 OA
HETATM   14  H   UNL     1     -39.122 -46.739   9.800  1.00  0.00     0.209 HD
ENDBRANCH  12  13
ENDBRANCH   6  12
ENDBRANCH   1   5
BRANCH   2  15
HETATM   15  C   UNL     1     -43.734 -47.287  10.133  1.00  0.00     0.161 C 
BRANCH  15  16
HETATM   16  C   UNL     1     -42.672 -48.159  10.694  1.00  0.00     0.043 A 
HETATM   17  C   UNL     1     -42.624 -48.776  11.967  1.00  0.00     0.054 A 
HETATM   18  C   UNL     1     -41.445 -49.470  11.961  1.00  0.00     0.169 A 
HETATM   19  O   UNL     1     -40.824 -49.297  10.768  1.00  0.00    -0.250 OA
HETATM   20  N   UNL     1     -41.592 -48.472   9.964  1.00  0.00    -0.265 N 
ATOM     21  HN  UNL     1     -41.381 -48.166   9.015  1.00  0.00     0.194 HD
ENDBRANCH  15  16
ENDBRANCH   2  15
TORSDOF 5
ENDMDL
MODEL 5
REMARK VINA RESULT:      -5.6      6.488      8.693
REMARK  5 active torsions:
REMARK  status: ('A' for Active; 'I' for Inactive)
REMARK    1  A    between atoms: O_1  and  C_2 
REMARK    2  A    between atoms: C_2  and  C_3 
REMARK    3  A    between atoms: C_9  and  N_10 
REMARK       I    between atoms: N_10  and  C_11 
REMARK    4  A    between atoms: C_11  and  C_13 
REMARK    5  A    between atoms: C_13  and  C_14 
ROOT
HETATM    1  N   UNL     1     -44.269 -52.655  13.952  1.00  0.00    -0.356 N 
HETATM    2  C   UNL     1     -43.428 -53.016  12.927  1.00  0.00     0.223 C 
HETATM    3  O   UNL     1     -43.676 -53.922  12.133  1.00  0.00    -0.273 OA
HETATM    4  H   UNL     1     -44.013 -51.865  14.538  1.00  0.00     0.162 HD
ENDROOT
BRANCH   1   5
HETATM    5  C   UNL     1     -45.565 -53.276  14.194  1.00  0.00     0.090 C 
HETATM    6  C   UNL     1     -46.735 -52.283  13.989  1.00  0.00     0.032 C 
HETATM    7  C   UNL     1     -46.826 -51.180  15.063  1.00  0.00     0.009 C 
HETATM    8  C   UNL     1     -47.372 -51.701  16.390  1.00  0.00     0.001 C 
HETATM    9  C   UNL     1     -46.340 -52.283  17.347  1.00  0.00     0.000 C 
HETATM   10  C   UNL     1     -45.217 -53.127  16.755  1.00  0.00     0.002 C 
HETATM   11  C   UNL     1     -45.591 -53.997  15.556  1.00  0.00     0.026 C 
BRANCH   6  12
HETATM   12  C   UNL     1     -46.710 -51.671  12.575  1.00  0.00     0.170 C 
BRANCH  12  13
HETATM   13  O   UNL     1     -46.466 -52.656  11.578  1.00  0.00    -0.400 OA
HETATM   14  H   UNL     1     -47.057 -52.447  10.832  1.00  0.00     0.209 HD
ENDBRANCH  12  13
ENDBRANCH   6  12
ENDBRANCH   1   5
BRANCH   2  15
HETATM   15  C   UNL     1     -42.149 -52.207  12.854  1.00  0.00     0.161 C 
BRANCH  15  16
HETATM   16  C   UNL     1     -40.981 -53.032  13.248  1.00  0.00     0.043 A 
HETATM   17  C   UNL     1     -40.073 -52.818  14.312  1.00  0.00     0.054 A 
HETATM   18  C   UNL     1     -39.207 -53.874  14.234  1.00  0.00     0.169 A 
HETATM   19  O   UNL     1     -39.567 -54.680  13.204  1.00  0.00    -0.250 OA
HETATM   20  N   UNL     1     -40.685 -54.155  12.579  1.00  0.00    -0.265 N 
ATOM     21  HN  UNL     1     -41.181 -54.543  11.776  1.00  0.00     0.194 HD
ENDBRANCH  15  16
ENDBRANCH   2  15
TORSDOF 5
ENDMDL
MODEL 6
REMARK VINA RESULT:      -5.6      6.851      9.094
REMARK  5 active torsions:
REMARK  status: ('A' for Active; 'I' for Inactive)
REMARK    1  A    between atoms: O_1  and  C_2 
REMARK    2  A    between atoms: C_2  and  C_3 
REMARK    3  A    between atoms: C_9  and  N_10 
REMARK       I    between atoms: N_10  and  C_11 
REMARK    4  A    between atoms: C_11  and  C_13 
REMARK    5  A    between atoms: C_13  and  C_14 
ROOT
HETATM    1  N   UNL     1     -43.602 -53.911  15.236  1.00  0.00    -0.356 N 
HETATM    2  C   UNL     1     -42.700 -54.916  15.491  1.00  0.00     0.223 C 
HETATM    3  O   UNL     1     -43.016 -56.100  15.597  1.00  0.00    -0.273 OA
HETATM    4  H   UNL     1     -43.255 -52.963  15.117  1.00  0.00     0.162 HD
ENDROOT
BRANCH   1   5
HETATM    5  C   UNL     1     -45.027 -54.134  15.024  1.00  0.00     0.090 C 
HETATM    6  C   UNL     1     -45.515 -53.547  13.677  1.00  0.00     0.032 C 
HETATM    7  C   UNL     1     -45.533 -52.007  13.627  1.00  0.00     0.009 C 
HETATM    8  C   UNL     1     -46.695 -51.410  14.419  1.00  0.00     0.001 C 
HETATM    9  C   UNL     1     -46.430 -51.169  15.899  1.00  0.00     0.000 C 
HETATM   10  C   UNL     1     -45.624 -52.218  16.659  1.00  0.00     0.002 C 
HETATM   11  C   UNL     1     -45.850 -53.670  16.241  1.00  0.00     0.026 C 
BRANCH   6  12
HETATM   12  C   UNL     1     -44.718 -54.125  12.492  1.00  0.00     0.170 C 
BRANCH  12  13
HETATM   13  O   UNL     1     -43.530 -53.383  12.243  1.00  0.00    -0.400 OA
HETATM   14  H   UNL     1     -43.754 -52.722  11.563  1.00  0.00     0.209 HD
ENDBRANCH  12  13
ENDBRANCH   6  12
ENDBRANCH   1   5
BRANCH   2  15
HETATM   15  C   UNL     1     -41.268 -54.446  15.643  1.00  0.00     0.161 C 
BRANCH  15  16
HETATM   16  C   UNL     1     -40.852 -53.639  14.470  1.00  0.00     0.043 A 
HETATM   17  C   UNL     1     -40.444 -52.284  14.435  1.00  0.00     0.054 A 
HETATM   18  C   UNL     1     -40.161 -52.050  13.117  1.00  0.00     0.169 A 
HETATM   19  O   UNL     1     -40.372 -53.183  12.401  1.00  0.00    -0.250 OA
HETATM   20  N   UNL     1     -40.807 -54.188  13.248  1.00  0.00    -0.265 N 
ATOM     21  HN  UNL     1     -41.044 -55.147  12.994  1.00  0.00     0.194 HD
ENDBRANCH  15  16
ENDBRANCH   2  15
TORSDOF 5
ENDMDL
MODEL 7
REMARK VINA RESULT:      -5.6      4.324      5.874
REMARK  5 active torsions:
REMARK  status: ('A' for Active; 'I' for Inactive)
REMARK    1  A    between atoms: O_1  and  C_2 
REMARK    2  A    between atoms: C_2  and  C_3 
REMARK    3  A    between atoms: C_9  and  N_10 
REMARK       I    between atoms: N_10  and  C_11 
REMARK    4  A    between atoms: C_11  and  C_13 
REMARK    5  A    between atoms: C_13  and  C_14 
ROOT
HETATM    1  N   UNL     1     -41.735 -50.898  12.655  1.00  0.00    -0.356 N 
HETATM    2  C   UNL     1     -40.854 -49.859  12.839  1.00  0.00     0.223 C 
HETATM    3  O   UNL     1     -40.390 -49.548  13.935  1.00  0.00    -0.273 OA
HETATM    4  H   UNL     1     -42.036 -51.120  11.710  1.00  0.00     0.162 HD
ENDROOT
BRANCH   1   5
HETATM    5  C   UNL     1     -42.191 -51.773  13.727  1.00  0.00     0.090 C 
HETATM    6  C   UNL     1     -42.308 -53.246  13.268  1.00  0.00     0.032 C 
HETATM    7  C   UNL     1     -43.457 -53.512  12.275  1.00  0.00     0.009 C 
HETATM    8  C   UNL     1     -44.825 -53.513  12.952  1.00  0.00     0.001 C 
HETATM    9  C   UNL     1     -45.502 -52.155  13.078  1.00  0.00     0.000 C 
HETATM   10  C   UNL     1     -44.629 -50.954  13.427  1.00  0.00     0.002 C 
HETATM   11  C   UNL     1     -43.471 -51.222  14.387  1.00  0.00     0.026 C 
BRANCH   6  12
HETATM   12  C   UNL     1     -40.969 -53.767  12.710  1.00  0.00     0.170 C 
BRANCH  12  13
HETATM   13  O   UNL     1     -40.691 -53.231  11.421  1.00  0.00    -0.400 OA
HETATM   14  H   UNL     1     -39.721 -53.182  11.345  1.00  0.00     0.209 HD
ENDBRANCH  12  13
ENDBRANCH   6  12
ENDBRANCH   1   5
BRANCH   2  15
HETATM   15  C   UNL     1     -40.498 -49.109  11.571  1.00  0.00     0.161 C 
BRANCH  15  16
HETATM   16  C   UNL     1     -41.714 -48.542  10.937  1.00  0.00     0.043 A 
HETATM   17  C   UNL     1     -42.886 -48.056  11.564  1.00  0.00     0.054 A 
HETATM   18  C   UNL     1     -43.676 -47.641  10.527  1.00  0.00     0.169 A 
HETATM   19  O   UNL     1     -43.028 -47.848   9.353  1.00  0.00    -0.250 OA
HETATM   20  N   UNL     1     -41.790 -48.415   9.605  1.00  0.00    -0.265 N 
ATOM     21  HN  UNL     1     -41.084 -48.681   8.919  1.00  0.00     0.194 HD
ENDBRANCH  15  16
ENDBRANCH   2  15
TORSDOF 5
ENDMDL
MODEL 8
REMARK VINA RESULT:      -5.4      4.724      5.893
REMARK  5 active torsions:
REMARK  status: ('A' for Active; 'I' for Inactive)
REMARK    1  A    between atoms: O_1  and  C_2 
REMARK    2  A    between atoms: C_2  and  C_3 
REMARK    3  A    between atoms: C_9  and  N_10 
REMARK       I    between atoms: N_10  and  C_11 
REMARK    4  A    between atoms: C_11  and  C_13 
REMARK    5  A    between atoms: C_13  and  C_14 
ROOT
HETATM    1  N   UNL     1     -40.936 -50.618  12.532  1.00  0.00    -0.356 N 
HETATM    2  C   UNL     1     -41.032 -51.988  12.483  1.00  0.00     0.223 C 
HETATM    3  O   UNL     1     -40.636 -52.663  11.534  1.00  0.00    -0.273 OA
HETATM    4  H   UNL     1     -41.245 -50.137  13.372  1.00  0.00     0.162 HD
ENDROOT
BRANCH   1   5
HETATM    5  C   UNL     1     -40.323 -49.811  11.484  1.00  0.00     0.090 C 
HETATM    6  C   UNL     1     -39.028 -49.115  11.967  1.00  0.00     0.032 C 
HETATM    7  C   UNL     1     -39.259 -47.988  12.994  1.00  0.00     0.009 C 
HETATM    8  C   UNL     1     -39.817 -46.720  12.353  1.00  0.00     0.001 C 
HETATM    9  C   UNL     1     -41.333 -46.655  12.227  1.00  0.00     0.000 C 
HETATM   10  C   UNL     1     -42.070 -47.933  11.838  1.00  0.00     0.002 C 
HETATM   11  C   UNL     1     -41.348 -48.850  10.851  1.00  0.00     0.026 C 
BRANCH   6  12
HETATM   12  C   UNL     1     -38.006 -50.139  12.497  1.00  0.00     0.170 C 
BRANCH  12  13
HETATM   13  O   UNL     1     -37.857 -51.243  11.612  1.00  0.00    -0.400 OA
HETATM   14  H   UNL     1     -37.279 -50.942  10.888  1.00  0.00     0.209 HD
ENDBRANCH  12  13
ENDBRANCH   6  12
ENDBRANCH   1   5
BRANCH   2  15
HETATM   15  C   UNL     1     -41.679 -52.612  13.703  1.00  0.00     0.161 C 
BRANCH  15  16
HETATM   16  C   UNL     1     -42.956 -53.275  13.340  1.00  0.00     0.043 A 
HETATM   17  C   UNL     1     -43.734 -54.167  14.115  1.00  0.00     0.054 A 
HETATM   18  C   UNL     1     -44.805 -54.462  13.317  1.00  0.00     0.169 A 
HETATM   19  O   UNL     1     -44.694 -53.790  12.144  1.00  0.00    -0.250 OA
HETATM   20  N   UNL     1     -43.530 -53.039  12.152  1.00  0.00    -0.265 N 
ATOM     21  HN  UNL     1     -43.183 -52.433  11.409  1.00  0.00     0.194 HD
ENDBRANCH  15  16
ENDBRANCH   2  15
TORSDOF 5
ENDMDL
MODEL 9
REMARK VINA RESULT:      -5.3      7.829     10.154
REMARK  5 active torsions:
REMARK  status: ('A' for Active; 'I' for Inactive)
REMARK    1  A    between atoms: O_1  and  C_2 
REMARK    2  A    between atoms: C_2  and  C_3 
REMARK    3  A    between atoms: C_9  and  N_10 
REMARK       I    between atoms: N_10  and  C_11 
REMARK    4  A    between atoms: C_11  and  C_13 
REMARK    5  A    between atoms: C_13  and  C_14 
ROOT
HETATM    1  N   UNL     1     -43.548 -53.805  15.230  1.00  0.00    -0.356 N 
HETATM    2  C   UNL     1     -42.845 -54.837  15.802  1.00  0.00     0.223 C 
HETATM    3  O   UNL     1     -43.050 -56.022  15.545  1.00  0.00    -0.273 OA
HETATM    4  H   UNL     1     -43.287 -52.850  15.461  1.00  0.00     0.162 HD
ENDROOT
BRANCH   1   5
HETATM    5  C   UNL     1     -44.589 -53.991  14.227  1.00  0.00     0.090 C 
HETATM    6  C   UNL     1     -44.571 -52.875  13.154  1.00  0.00     0.032 C 
HETATM    7  C   UNL     1     -45.020 -51.493  13.670  1.00  0.00     0.009 C 
HETATM    8  C   UNL     1     -46.530 -51.407  13.873  1.00  0.00     0.001 C 
HETATM    9  C   UNL     1     -47.042 -51.869  15.231  1.00  0.00     0.000 C 
HETATM   10  C   UNL     1     -46.392 -53.099  15.857  1.00  0.00     0.002 C 
HETATM   11  C   UNL     1     -45.966 -54.199  14.886  1.00  0.00     0.026 C 
BRANCH   6  12
HETATM   12  C   UNL     1     -43.197 -52.783  12.463  1.00  0.00     0.170 C 
BRANCH  12  13
HETATM   13  O   UNL     1     -42.535 -54.042  12.436  1.00  0.00    -0.400 OA
HETATM   14  H   UNL     1     -42.847 -54.502  11.635  1.00  0.00     0.209 HD
ENDBRANCH  12  13
ENDBRANCH   6  12
ENDBRANCH   1   5
BRANCH   2  15
HETATM   15  C   UNL     1     -41.788 -54.398  16.795  1.00  0.00     0.161 C 
BRANCH  15  16
HETATM   16  C   UNL     1     -40.486 -55.044  16.497  1.00  0.00     0.043 A 
HETATM   17  C   UNL     1     -39.305 -54.448  15.993  1.00  0.00     0.054 A 
HETATM   18  C   UNL     1     -38.411 -55.481  15.920  1.00  0.00     0.169 A 
HETATM   19  O   UNL     1     -38.999 -56.622  16.358  1.00  0.00    -0.250 OA
HETATM   20  N   UNL     1     -40.308 -56.353  16.724  1.00  0.00    -0.265 N 
ATOM     21  HN  UNL     1     -40.993 -57.013  17.090  1.00  0.00     0.194 HD
ENDBRANCH  15  16
ENDBRANCH   2  15
TORSDOF 5
ENDMDL
