MODEL 1
REMARK VINA RESULT:      -6.0      0.000      0.000
REMARK  4 active torsions:
REMARK  status: ('A' for Active; 'I' for Inactive)
REMARK    1  A    between atoms: C_6  and  N_7 
REMARK       I    between atoms: N_7  and  C_8 
REMARK       I    between atoms: C_8  and  N_10 
REMARK    2  A    between atoms: N_10  and  C_11 
REMARK    3  A    between atoms: C_13  and  C_14 
REMARK    4  A    between atoms: C_14  and  O_15 
ROOT
HETATM    1  N   UNL     1     -42.942 -53.483  12.733  1.00  0.00    -0.295 N 
HETATM    2  C   UNL     1     -41.752 -52.859  12.488  1.00  0.00     0.322 C 
HETATM    3  O   UNL     1     -40.727 -53.522  12.345  1.00  0.00    -0.247 OA
HETATM    4  N   UNL     1     -41.779 -51.507  12.463  1.00  0.00    -0.335 N 
HETATM    5  H   UNL     1     -42.855 -54.486  12.796  1.00  0.00     0.172 HD
HETATM    6  H   UNL     1     -42.706 -51.095  12.535  1.00  0.00     0.164 HD
ENDROOT
BRANCH   1   7
HETATM    7  C   UNL     1     -44.176 -52.901  13.056  1.00  0.00     0.109 A 
HETATM    8  C   UNL     1     -44.412 -52.578  14.386  1.00  0.00     0.049 A 
HETATM    9  C   UNL     1     -45.590 -51.916  14.715  1.00  0.00     0.006 A 
HETATM   10  C   UNL     1     -46.517 -51.627  13.718  1.00  0.00     0.025 A 
HETATM   11  C   UNL     1     -46.230 -52.007  12.415  1.00  0.00     0.007 A 
HETATM   12  C   UNL     1     -47.223 -51.787  11.313  1.00  0.00     0.068 C 
HETATM   13  N   UNL     1     -45.075 -52.632  12.080  1.00  0.00    -0.346 N 
ATOM     14  HN  UNL     1     -44.887 -52.895  11.113  1.00  0.00     0.167 HD
ENDBRANCH   1   7
BRANCH   4  15
HETATM   15  C   UNL     1     -40.626 -50.657  12.454  1.00  0.00     0.109 C 
HETATM   16  C   UNL     1     -40.477 -49.839  11.166  1.00  0.00     0.040 C 
HETATM   17  C   UNL     1     -40.397 -48.359  11.581  1.00  0.00     0.034 C 
HETATM   18  C   UNL     1     -40.801 -48.377  13.027  1.00  0.00    -0.022 C 
HETATM   19  C   UNL     1     -40.862 -49.622  13.507  1.00  0.00    -0.005 C 
BRANCH  17  20
HETATM   20  C   UNL     1     -41.256 -47.476  10.675  1.00  0.00     0.172 C 
BRANCH  20  21
HETATM   21  O   UNL     1     -41.785 -48.220   9.584  1.00  0.00    -0.400 OA
HETATM   22  H   UNL     1     -42.636 -47.813   9.346  1.00  0.00     0.209 HD
ENDBRANCH  20  21
ENDBRANCH  17  20
ENDBRANCH   4  15
TORSDOF 4
ENDMDL
MODEL 2
REMARK VINA RESULT:      -5.8      2.206      3.194
REMARK  4 active torsions:
REMARK  status: ('A' for Active; 'I' for Inactive)
REMARK    1  A    between atoms: C_6  and  N_7 
REMARK       I    between atoms: N_7  and  C_8 
REMARK       I    between atoms: C_8  and  N_10 
REMARK    2  A    between atoms: N_10  and  C_11 
REMARK    3  A    between atoms: C_13  and  C_14 
REMARK    4  A    between atoms: C_14  and  O_15 
ROOT
HETATM    1  N   UNL     1     -44.970 -54.734  14.951  1.00  0.00    -0.295 N 
HETATM    2  C   UNL     1     -43.640 -55.022  14.821  1.00  0.00     0.322 C 
HETATM    3  O   UNL     1     -43.179 -56.042  15.326  1.00  0.00    -0.247 OA
HETATM    4  N   UNL     1     -42.892 -54.109  14.160  1.00  0.00    -0.335 N 
HETATM    5  H   UNL     1     -45.469 -55.418  15.499  1.00  0.00     0.172 HD
HETATM    6  H   UNL     1     -43.418 -53.345  13.743  1.00  0.00     0.164 HD
ENDROOT
BRANCH   1   7
HETATM    7  C   UNL     1     -45.646 -53.566  14.569  1.00  0.00     0.109 A 
HETATM    8  C   UNL     1     -45.934 -52.632  15.555  1.00  0.00     0.049 A 
HETATM    9  C   UNL     1     -46.521 -51.426  15.184  1.00  0.00     0.006 A 
HETATM   10  C   UNL     1     -46.837 -51.199  13.848  1.00  0.00     0.025 A 
HETATM   11  C   UNL     1     -46.549 -52.190  12.920  1.00  0.00     0.007 A 
HETATM   12  C   UNL     1     -46.935 -52.030  11.480  1.00  0.00     0.068 C 
HETATM   13  N   UNL     1     -45.958 -53.359  13.268  1.00  0.00    -0.346 N 
ATOM     14  HN  UNL     1     -45.752 -54.068  12.564  1.00  0.00     0.167 HD
ENDBRANCH   1   7
BRANCH   4  15
HETATM   15  C   UNL     1     -41.461 -54.094  14.109  1.00  0.00     0.109 C 
HETATM   16  C   UNL     1     -40.900 -53.490  12.817  1.00  0.00     0.040 C 
HETATM   17  C   UNL     1     -39.956 -52.346  13.230  1.00  0.00     0.034 C 
HETATM   18  C   UNL     1     -40.251 -52.156  14.690  1.00  0.00    -0.022 C 
HETATM   19  C   UNL     1     -41.014 -53.141  15.171  1.00  0.00    -0.005 C 
BRANCH  17  20
HETATM   20  C   UNL     1     -40.162 -51.107  12.357  1.00  0.00     0.172 C 
BRANCH  20  21
HETATM   21  O   UNL     1     -40.880 -51.428  11.171  1.00  0.00    -0.400 OA
HETATM   22  H   UNL     1     -41.313 -50.611  10.870  1.00  0.00     0.209 HD
ENDBRANCH  20  21
ENDBRANCH  17  20
ENDBRANCH   4  15
TORSDOF 4
ENDMDL
MODEL 3
REMARK VINA RESULT:      -5.6      4.114      6.172
REMARK  4 active torsions:
REMARK  status: ('A' for Active; 'I' for Inactive)
REMARK    1  A    between atoms: C_6  and  N_7 
REMARK       I    between atoms: N_7  and  C_8 
REMARK       I    between atoms: C_8  and  N_10 
REMARK    2  A    between atoms: N_10  and  C_11 
REMARK    3  A    between atoms: C_13  and  C_14 
REMARK    4  A    between atoms: C_14  and  O_15 
ROOT
HETATM    1  N   UNL     1     -41.818 -49.140  10.566  1.00  0.00    -0.295 N 
HETATM    2  C   UNL     1     -42.149 -47.876  10.165  1.00  0.00     0.322 C 
HETATM    3  O   UNL     1     -43.047 -47.706   9.344  1.00  0.00    -0.247 OA
HETATM    4  N   UNL     1     -41.409 -46.870  10.685  1.00  0.00    -0.335 N 
HETATM    5  H   UNL     1     -42.363 -49.854  10.107  1.00  0.00     0.172 HD
HETATM    6  H   UNL     1     -40.742 -47.153  11.399  1.00  0.00     0.164 HD
ENDROOT
BRANCH   1   7
HETATM    7  C   UNL     1     -40.747 -49.540  11.377  1.00  0.00     0.109 A 
HETATM    8  C   UNL     1     -41.019 -49.858  12.701  1.00  0.00     0.049 A 
HETATM    9  C   UNL     1     -39.988 -50.346  13.498  1.00  0.00     0.006 A 
HETATM   10  C   UNL     1     -38.708 -50.468  12.966  1.00  0.00     0.025 A 
HETATM   11  C   UNL     1     -38.502 -50.101  11.644  1.00  0.00     0.007 A 
HETATM   12  C   UNL     1     -37.130 -50.143  11.040  1.00  0.00     0.068 C 
HETATM   13  N   UNL     1     -39.503 -49.646  10.853  1.00  0.00    -0.346 N 
ATOM     14  HN  UNL     1     -39.324 -49.390   9.882  1.00  0.00     0.167 HD
ENDBRANCH   1   7
BRANCH   4  15
HETATM   15  C   UNL     1     -41.429 -45.511  10.235  1.00  0.00     0.109 C 
HETATM   16  C   UNL     1     -42.494 -44.652  10.926  1.00  0.00     0.040 C 
HETATM   17  C   UNL     1     -41.765 -43.445  11.544  1.00  0.00     0.034 C 
HETATM   18  C   UNL     1     -40.314 -43.821  11.442  1.00  0.00    -0.022 C 
HETATM   19  C   UNL     1     -40.138 -44.903  10.681  1.00  0.00    -0.005 C 
BRANCH  17  20
HETATM   20  C   UNL     1     -42.264 -43.153  12.960  1.00  0.00     0.172 C 
BRANCH  20  21
HETATM   21  O   UNL     1     -43.202 -44.136  13.386  1.00  0.00    -0.400 OA
HETATM   22  H   UNL     1     -43.964 -44.082  12.785  1.00  0.00     0.209 HD
ENDBRANCH  20  21
ENDBRANCH  17  20
ENDBRANCH   4  15
TORSDOF 4
ENDMDL
MODEL 4
REMARK VINA RESULT:      -5.6      2.303      5.708
REMARK  4 active torsions:
REMARK  status: ('A' for Active; 'I' for Inactive)
REMARK    1  A    between atoms: C_6  and  N_7 
REMARK       I    between atoms: N_7  and  C_8 
REMARK       I    between atoms: C_8  and  N_10 
REMARK    2  A    between atoms: N_10  and  C_11 
REMARK    3  A    between atoms: C_13  and  C_14 
REMARK    4  A    between atoms: C_14  and  O_15 
ROOT
HETATM    1  N   UNL     1     -40.930 -50.558  11.979  1.00  0.00    -0.295 N 
HETATM    2  C   UNL     1     -41.324 -51.850  12.191  1.00  0.00     0.322 C 
HETATM    3  O   UNL     1     -40.503 -52.762  12.130  1.00  0.00    -0.247 OA
HETATM    4  N   UNL     1     -42.643 -52.044  12.417  1.00  0.00    -0.335 N 
HETATM    5  H   UNL     1     -39.949 -50.477  11.760  1.00  0.00     0.172 HD
HETATM    6  H   UNL     1     -43.193 -51.192  12.501  1.00  0.00     0.164 HD
ENDROOT
BRANCH   1   7
HETATM    7  C   UNL     1     -41.733 -49.414  11.871  1.00  0.00     0.109 A 
HETATM    8  C   UNL     1     -42.086 -48.757  13.042  1.00  0.00     0.049 A 
HETATM    9  C   UNL     1     -42.804 -47.568  12.952  1.00  0.00     0.006 A 
HETATM   10  C   UNL     1     -43.180 -47.086  11.703  1.00  0.00     0.025 A 
HETATM   11  C   UNL     1     -42.819 -47.811  10.576  1.00  0.00     0.007 A 
HETATM   12  C   UNL     1     -43.260 -47.377   9.209  1.00  0.00     0.068 C 
HETATM   13  N   UNL     1     -42.102 -48.957  10.650  1.00  0.00    -0.346 N 
ATOM     14  HN  UNL     1     -41.844 -49.467   9.805  1.00  0.00     0.167 HD
ENDBRANCH   1   7
BRANCH   4  15
HETATM   15  C   UNL     1     -43.301 -53.316  12.434  1.00  0.00     0.109 C 
HETATM   16  C   UNL     1     -43.104 -54.090  13.741  1.00  0.00     0.040 C 
HETATM   17  C   UNL     1     -44.507 -54.417  14.285  1.00  0.00     0.034 C 
HETATM   18  C   UNL     1     -45.416 -53.569  13.443  1.00  0.00    -0.022 C 
HETATM   19  C   UNL     1     -44.768 -53.029  12.408  1.00  0.00    -0.005 C 
BRANCH  17  20
HETATM   20  C   UNL     1     -44.596 -54.169  15.792  1.00  0.00     0.172 C 
BRANCH  20  21
HETATM   21  O   UNL     1     -45.880 -54.519  16.295  1.00  0.00    -0.400 OA
HETATM   22  H   UNL     1     -46.535 -54.195  15.654  1.00  0.00     0.209 HD
ENDBRANCH  20  21
ENDBRANCH  17  20
ENDBRANCH   4  15
TORSDOF 4
ENDMDL
MODEL 5
REMARK VINA RESULT:      -5.4      2.454      4.497
REMARK  4 active torsions:
REMARK  status: ('A' for Active; 'I' for Inactive)
REMARK    1  A    between atoms: C_6  and  N_7 
REMARK       I    between atoms: N_7  and  C_8 
REMARK       I    between atoms: C_8  and  N_10 
REMARK    2  A    between atoms: N_10  and  C_11 
REMARK    3  A    between atoms: C_13  and  C_14 
REMARK    4  A    between atoms: C_14  and  O_15 
ROOT
HETATM    1  N   UNL     1     -42.911 -49.705  13.891  1.00  0.00    -0.295 N 
HETATM    2  C   UNL     1     -41.675 -50.201  13.583  1.00  0.00     0.322 C 
HETATM    3  O   UNL     1     -40.748 -49.434  13.337  1.00  0.00    -0.247 OA
HETATM    4  N   UNL     1     -41.568 -51.548  13.525  1.00  0.00    -0.335 N 
HETATM    5  H   UNL     1     -42.948 -48.697  13.865  1.00  0.00     0.172 HD
HETATM    6  H   UNL     1     -42.401 -52.057  13.812  1.00  0.00     0.164 HD
ENDROOT
BRANCH   1   7
HETATM    7  C   UNL     1     -44.110 -50.411  14.063  1.00  0.00     0.109 A 
HETATM    8  C   UNL     1     -44.568 -50.604  15.360  1.00  0.00     0.049 A 
HETATM    9  C   UNL     1     -45.802 -51.220  15.549  1.00  0.00     0.006 A 
HETATM   10  C   UNL     1     -46.527 -51.658  14.446  1.00  0.00     0.025 A 
HETATM   11  C   UNL     1     -45.993 -51.460  13.180  1.00  0.00     0.007 A 
HETATM   12  C   UNL     1     -46.696 -51.977  11.960  1.00  0.00     0.068 C 
HETATM   13  N   UNL     1     -44.804 -50.842  12.983  1.00  0.00    -0.346 N 
ATOM     14  HN  UNL     1     -44.438 -50.704  12.041  1.00  0.00     0.167 HD
ENDBRANCH   1   7
BRANCH   4  15
HETATM   15  C   UNL     1     -40.445 -52.267  13.002  1.00  0.00     0.109 C 
HETATM   16  C   UNL     1     -39.392 -52.612  14.061  1.00  0.00     0.040 C 
HETATM   17  C   UNL     1     -39.191 -54.137  14.013  1.00  0.00     0.034 C 
HETATM   18  C   UNL     1     -40.332 -54.616  13.162  1.00  0.00    -0.022 C 
HETATM   19  C   UNL     1     -40.966 -53.600  12.570  1.00  0.00    -0.005 C 
BRANCH  17  20
HETATM   20  C   UNL     1     -39.128 -54.739  15.418  1.00  0.00     0.172 C 
BRANCH  20  21
HETATM   21  O   UNL     1     -38.153 -55.773  15.490  1.00  0.00    -0.400 OA
HETATM   22  H   UNL     1     -37.719 -55.696  16.357  1.00  0.00     0.209 HD
ENDBRANCH  20  21
ENDBRANCH  17  20
ENDBRANCH   4  15
TORSDOF 4
ENDMDL
MODEL 6
REMARK VINA RESULT:      -5.4      3.652      5.191
REMARK  4 active torsions:
REMARK  status: ('A' for Active; 'I' for Inactive)
REMARK    1  A    between atoms: C_6  and  N_7 
REMARK       I    between atoms: N_7  and  C_8 
REMARK       I    between atoms: C_8  and  N_10 
REMARK    2  A    between atoms: N_10  and  C_11 
REMARK    3  A    between atoms: C_13  and  C_14 
REMARK    4  A    between atoms: C_14  and  O_15 
ROOT
HETATM    1  N   UNL     1     -46.229 -51.747  13.769  1.00  0.00    -0.295 N 
HETATM    2  C   UNL     1     -45.390 -52.689  13.244  1.00  0.00     0.322 C 
HETATM    3  O   UNL     1     -45.553 -53.086  12.092  1.00  0.00    -0.247 OA
HETATM    4  N   UNL     1     -44.434 -53.168  14.072  1.00  0.00    -0.335 N 
HETATM    5  H   UNL     1     -46.956 -51.466  13.128  1.00  0.00     0.172 HD
HETATM    6  H   UNL     1     -44.378 -52.703  14.976  1.00  0.00     0.164 HD
ENDROOT
BRANCH   1   7
HETATM    7  C   UNL     1     -46.288 -51.277  15.088  1.00  0.00     0.109 A 
HETATM    8  C   UNL     1     -47.418 -51.580  15.835  1.00  0.00     0.049 A 
HETATM    9  C   UNL     1     -47.458 -51.204  17.174  1.00  0.00     0.006 A 
HETATM   10  C   UNL     1     -46.387 -50.505  17.722  1.00  0.00     0.025 A 
HETATM   11  C   UNL     1     -45.302 -50.208  16.909  1.00  0.00     0.007 A 
HETATM   12  C   UNL     1     -44.154 -49.394  17.425  1.00  0.00     0.068 C 
HETATM   13  N   UNL     1     -45.245 -50.589  15.610  1.00  0.00    -0.346 N 
ATOM     14  HN  UNL     1     -44.432 -50.363  15.036  1.00  0.00     0.167 HD
ENDBRANCH   1   7
BRANCH   4  15
HETATM   15  C   UNL     1     -43.607 -54.308  13.811  1.00  0.00     0.109 C 
HETATM   16  C   UNL     1     -42.351 -53.980  12.997  1.00  0.00     0.040 C 
HETATM   17  C   UNL     1     -41.144 -54.475  13.815  1.00  0.00     0.034 C 
HETATM   18  C   UNL     1     -41.735 -54.779  15.162  1.00  0.00    -0.022 C 
HETATM   19  C   UNL     1     -43.069 -54.747  15.134  1.00  0.00    -0.005 C 
BRANCH  17  20
HETATM   20  C   UNL     1     -40.010 -53.449  13.817  1.00  0.00     0.172 C 
BRANCH  20  21
HETATM   21  O   UNL     1     -38.775 -54.049  13.442  1.00  0.00    -0.400 OA
HETATM   22  H   UNL     1     -38.295 -54.253  14.263  1.00  0.00     0.209 HD
ENDBRANCH  20  21
ENDBRANCH  17  20
ENDBRANCH   4  15
TORSDOF 4
ENDMDL
MODEL 7
REMARK VINA RESULT:      -5.3      2.734      5.947
REMARK  4 active torsions:
REMARK  status: ('A' for Active; 'I' for Inactive)
REMARK    1  A    between atoms: C_6  and  N_7 
REMARK       I    between atoms: N_7  and  C_8 
REMARK       I    between atoms: C_8  and  N_10 
REMARK    2  A    between atoms: N_10  and  C_11 
REMARK    3  A    between atoms: C_13  and  C_14 
REMARK    4  A    between atoms: C_14  and  O_15 
ROOT
HETATM    1  N   UNL     1     -41.646 -50.031  12.223  1.00  0.00    -0.295 N 
HETATM    2  C   UNL     1     -42.325 -51.106  12.724  1.00  0.00     0.322 C 
HETATM    3  O   UNL     1     -41.731 -52.156  12.956  1.00  0.00    -0.247 OA
HETATM    4  N   UNL     1     -43.658 -50.946  12.892  1.00  0.00    -0.335 N 
HETATM    5  H   UNL     1     -40.668 -50.223  12.065  1.00  0.00     0.172 HD
HETATM    6  H   UNL     1     -44.002 -50.005  12.717  1.00  0.00     0.164 HD
ENDROOT
BRANCH   1   7
HETATM    7  C   UNL     1     -42.166 -48.810  11.770  1.00  0.00     0.109 A 
HETATM    8  C   UNL     1     -42.248 -47.764  12.679  1.00  0.00     0.049 A 
HETATM    9  C   UNL     1     -42.674 -46.518  12.229  1.00  0.00     0.006 A 
HETATM   10  C   UNL     1     -43.040 -46.358  10.896  1.00  0.00     0.025 A 
HETATM   11  C   UNL     1     -42.963 -47.456  10.050  1.00  0.00     0.007 A 
HETATM   12  C   UNL     1     -43.413 -47.360   8.623  1.00  0.00     0.068 C 
HETATM   13  N   UNL     1     -42.528 -48.667  10.473  1.00  0.00    -0.346 N 
ATOM     14  HN  UNL     1     -42.475 -49.456   9.829  1.00  0.00     0.167 HD
ENDBRANCH   1   7
BRANCH   4  15
HETATM   15  C   UNL     1     -44.587 -51.997  13.179  1.00  0.00     0.109 C 
HETATM   16  C   UNL     1     -44.837 -52.201  14.677  1.00  0.00     0.040 C 
HETATM   17  C   UNL     1     -46.356 -52.079  14.899  1.00  0.00     0.034 C 
HETATM   18  C   UNL     1     -46.857 -51.522  13.597  1.00  0.00    -0.022 C 
HETATM   19  C   UNL     1     -45.911 -51.540  12.656  1.00  0.00    -0.005 C 
BRANCH  17  20
HETATM   20  C   UNL     1     -46.677 -51.237  16.135  1.00  0.00     0.172 C 
BRANCH  20  21
HETATM   21  O   UNL     1     -47.993 -51.501  16.608  1.00  0.00    -0.400 OA
HETATM   22  H   UNL     1     -48.608 -51.040  16.012  1.00  0.00     0.209 HD
ENDBRANCH  20  21
ENDBRANCH  17  20
ENDBRANCH   4  15
TORSDOF 4
ENDMDL
MODEL 8
REMARK VINA RESULT:      -5.0      3.324      6.266
REMARK  4 active torsions:
REMARK  status: ('A' for Active; 'I' for Inactive)
REMARK    1  A    between atoms: C_6  and  N_7 
REMARK       I    between atoms: N_7  and  C_8 
REMARK       I    between atoms: C_8  and  N_10 
REMARK    2  A    between atoms: N_10  and  C_11 
REMARK    3  A    between atoms: C_13  and  C_14 
REMARK    4  A    between atoms: C_14  and  O_15 
ROOT
HETATM    1  N   UNL     1     -43.146 -53.777  12.585  1.00  0.00    -0.295 N 
HETATM    2  C   UNL     1     -44.282 -53.075  12.875  1.00  0.00     0.322 C 
HETATM    3  O   UNL     1     -45.257 -53.147  12.130  1.00  0.00    -0.247 OA
HETATM    4  N   UNL     1     -44.236 -52.290  13.975  1.00  0.00    -0.335 N 
HETATM    5  H   UNL     1     -43.216 -54.301  11.726  1.00  0.00     0.172 HD
HETATM    6  H   UNL     1     -43.388 -52.378  14.529  1.00  0.00     0.164 HD
ENDROOT
BRANCH   1   7
HETATM    7  C   UNL     1     -41.902 -53.717  13.229  1.00  0.00     0.109 A 
HETATM    8  C   UNL     1     -40.973 -52.798  12.760  1.00  0.00     0.049 A 
HETATM    9  C   UNL     1     -39.768 -52.657  13.441  1.00  0.00     0.006 A 
HETATM   10  C   UNL     1     -39.506 -53.459  14.547  1.00  0.00     0.025 A 
HETATM   11  C   UNL     1     -40.468 -54.380  14.941  1.00  0.00     0.007 A 
HETATM   12  C   UNL     1     -40.210 -55.321  16.079  1.00  0.00     0.068 C 
HETATM   13  N   UNL     1     -41.653 -54.509  14.298  1.00  0.00    -0.346 N 
ATOM     14  HN  UNL     1     -42.345 -55.190  14.613  1.00  0.00     0.167 HD
ENDBRANCH   1   7
BRANCH   4  15
HETATM   15  C   UNL     1     -45.215 -51.307  14.331  1.00  0.00     0.109 C 
HETATM   16  C   UNL     1     -46.454 -51.895  15.014  1.00  0.00     0.040 C 
HETATM   17  C   UNL     1     -46.610 -51.167  16.362  1.00  0.00     0.034 C 
HETATM   18  C   UNL     1     -45.310 -50.432  16.517  1.00  0.00    -0.022 C 
HETATM   19  C   UNL     1     -44.591 -50.460  15.392  1.00  0.00    -0.005 C 
BRANCH  17  20
HETATM   20  C   UNL     1     -46.945 -52.144  17.491  1.00  0.00     0.172 C 
BRANCH  20  21
HETATM   21  O   UNL     1     -46.226 -53.363  17.344  1.00  0.00    -0.400 OA
HETATM   22  H   UNL     1     -46.613 -54.000  17.969  1.00  0.00     0.209 HD
ENDBRANCH  20  21
ENDBRANCH  17  20
ENDBRANCH   4  15
TORSDOF 4
ENDMDL
MODEL 9
REMARK VINA RESULT:      -5.0      1.763      2.445
REMARK  4 active torsions:
REMARK  status: ('A' for Active; 'I' for Inactive)
REMARK    1  A    between atoms: C_6  and  N_7 
REMARK       I    between atoms: N_7  and  C_8 
REMARK       I    between atoms: C_8  and  N_10 
REMARK    2  A    between atoms: N_10  and  C_11 
REMARK    3  A    between atoms: C_13  and  C_14 
REMARK    4  A    between atoms: C_14  and  O_15 
ROOT
HETATM    1  N   UNL     1     -42.128 -51.912  13.728  1.00  0.00    -0.295 N 
HETATM    2  C   UNL     1     -41.393 -50.846  13.293  1.00  0.00     0.322 C 
HETATM    3  O   UNL     1     -40.209 -50.745  13.608  1.00  0.00    -0.247 OA
HETATM    4  N   UNL     1     -42.054 -49.922  12.559  1.00  0.00    -0.335 N 
HETATM    5  H   UNL     1     -41.601 -52.540  14.316  1.00  0.00     0.172 HD
HETATM    6  H   UNL     1     -43.014 -50.167  12.325  1.00  0.00     0.164 HD
ENDROOT
BRANCH   1   7
HETATM    7  C   UNL     1     -43.507 -52.128  13.592  1.00  0.00     0.109 A 
HETATM    8  C   UNL     1     -43.938 -52.914  12.531  1.00  0.00     0.049 A 
HETATM    9  C   UNL     1     -45.292 -53.218  12.430  1.00  0.00     0.006 A 
HETATM   10  C   UNL     1     -46.183 -52.702  13.366  1.00  0.00     0.025 A 
HETATM   11  C   UNL     1     -45.686 -51.898  14.382  1.00  0.00     0.007 A 
HETATM   12  C   UNL     1     -46.608 -51.255  15.375  1.00  0.00     0.068 C 
HETATM   13  N   UNL     1     -44.367 -51.614  14.502  1.00  0.00    -0.346 N 
ATOM     14  HN  UNL     1     -44.028 -51.025  15.263  1.00  0.00     0.167 HD
ENDBRANCH   1   7
BRANCH   4  15
HETATM   15  C   UNL     1     -41.547 -48.631  12.203  1.00  0.00     0.109 C 
HETATM   16  C   UNL     1     -41.487 -48.393  10.690  1.00  0.00     0.040 C 
HETATM   17  C   UNL     1     -42.291 -47.111  10.405  1.00  0.00     0.034 C 
HETATM   18  C   UNL     1     -43.011 -46.854  11.698  1.00  0.00    -0.022 C 
HETATM   19  C   UNL     1     -42.557 -47.638  12.679  1.00  0.00    -0.005 C 
BRANCH  17  20
HETATM   20  C   UNL     1     -43.192 -47.275   9.180  1.00  0.00     0.172 C 
BRANCH  20  21
HETATM   21  O   UNL     1     -42.897 -46.295   8.191  1.00  0.00    -0.400 OA
HETATM   22  H   UNL     1     -42.479 -45.546   8.649  1.00  0.00     0.209 HD
ENDBRANCH  20  21
ENDBRANCH  17  20
ENDBRANCH   4  15
TORSDOF 4
ENDMDL
