MODEL 1
REMARK VINA RESULT:      -5.5      0.000      0.000
REMARK  4 active torsions:
REMARK  status: ('A' for Active; 'I' for Inactive)
REMARK    1  A    between atoms: C_2  and  S_3 
REMARK    2  A    between atoms: S_3  and  C_4 
REMARK    3  A    between atoms: C_8  and  N_9 
REMARK       I    between atoms: N_9  and  C_10 
REMARK       I    between atoms: C_10  and  N_12 
REMARK    4  A    between atoms: N_12  and  C_13 
ROOT
HETATM    1  N   UNL     1     -42.246 -48.842  11.045  1.00  0.00    -0.337 N 
HETATM    2  C   UNL     1     -42.007 -49.929  11.856  1.00  0.00     0.322 C 
HETATM    3  O   UNL     1     -42.615 -50.110  12.902  1.00  0.00    -0.247 OA
HETATM    4  N   UNL     1     -41.027 -50.768  11.387  1.00  0.00    -0.289 N 
HETATM    5  H   UNL     1     -41.851 -48.862  10.121  1.00  0.00     0.164 HD
HETATM    6  H   UNL     1     -40.322 -50.435  10.751  1.00  0.00     0.172 HD
ENDROOT
BRANCH   1   7
HETATM    7  C   UNL     1     -43.283 -47.819  11.293  1.00  0.00     0.100 C 
HETATM    8  C   UNL     1     -43.478 -46.859  10.099  1.00  0.00     0.070 C 
HETATM    9  C   UNL     1     -42.294 -45.892  10.223  1.00  0.00     0.017 C 
HETATM   10  C   UNL     1     -42.042 -45.779  11.733  1.00  0.00     0.003 C 
HETATM   11  C   UNL     1     -43.008 -46.775  12.386  1.00  0.00     0.026 C 
BRANCH   8  12
HETATM   12  S   UNL     1     -43.631 -47.612   8.448  1.00  0.00    -0.163 SA
BRANCH  12  13
HETATM   13  C   UNL     1     -45.416 -48.009   8.423  1.00  0.00     0.070 C 
HETATM   14  C   UNL     1     -46.295 -46.985   9.122  1.00  0.00     0.016 C 
ENDBRANCH  12  13
ENDBRANCH   8  12
ENDBRANCH   1   7
BRANCH   4  15
HETATM   15  C   UNL     1     -40.784 -51.927  12.086  1.00  0.00     0.152 A 
HETATM   16  N   UNL     1     -41.379 -53.085  11.936  1.00  0.00    -0.346 N 
HETATM   17  C   UNL     1     -40.948 -53.964  12.896  1.00  0.00     0.097 A 
ATOM     18  HN  UNL     1     -42.063 -53.301  11.210  1.00  0.00     0.167 HD
HETATM   19  C   UNL     1     -39.956 -53.483  13.722  1.00  0.00     0.070 A 
HETATM   20  S   UNL     1     -39.581 -51.857  13.289  1.00  0.00    -0.064 SA
ENDBRANCH   4  15
TORSDOF 4
ENDMDL
MODEL 2
REMARK VINA RESULT:      -5.2      2.730      6.402
REMARK  4 active torsions:
REMARK  status: ('A' for Active; 'I' for Inactive)
REMARK    1  A    between atoms: C_2  and  S_3 
REMARK    2  A    between atoms: S_3  and  C_4 
REMARK    3  A    between atoms: C_8  and  N_9 
REMARK       I    between atoms: N_9  and  C_10 
REMARK       I    between atoms: C_10  and  N_12 
REMARK    4  A    between atoms: N_12  and  C_13 
ROOT
HETATM    1  N   UNL     1     -43.938 -50.093  12.473  1.00  0.00    -0.337 N 
HETATM    2  C   UNL     1     -42.983 -49.106  12.382  1.00  0.00     0.322 C 
HETATM    3  O   UNL     1     -42.223 -48.844  13.305  1.00  0.00    -0.247 OA
HETATM    4  N   UNL     1     -42.977 -48.446  11.178  1.00  0.00    -0.289 N 
HETATM    5  H   UNL     1     -44.389 -50.376  11.620  1.00  0.00     0.164 HD
HETATM    6  H   UNL     1     -43.797 -48.424  10.597  1.00  0.00     0.172 HD
ENDROOT
BRANCH   1   7
HETATM    7  C   UNL     1     -44.120 -50.984  13.638  1.00  0.00     0.100 C 
HETATM    8  C   UNL     1     -43.740 -52.450  13.339  1.00  0.00     0.070 C 
HETATM    9  C   UNL     1     -44.952 -52.981  12.565  1.00  0.00     0.017 C 
HETATM   10  C   UNL     1     -46.151 -52.224  13.153  1.00  0.00     0.003 C 
HETATM   11  C   UNL     1     -45.553 -51.215  14.141  1.00  0.00     0.026 C 
BRANCH   8  12
HETATM   12  S   UNL     1     -42.153 -52.738  12.491  1.00  0.00    -0.163 SA
BRANCH  12  13
HETATM   13  C   UNL     1     -41.526 -54.175  13.430  1.00  0.00     0.070 C 
HETATM   14  C   UNL     1     -42.374 -54.559  14.631  1.00  0.00     0.016 C 
ENDBRANCH  12  13
ENDBRANCH   8  12
ENDBRANCH   1   7
BRANCH   4  15
HETATM   15  C   UNL     1     -41.997 -47.505  10.965  1.00  0.00     0.152 A 
HETATM   16  N   UNL     1     -40.700 -47.682  11.018  1.00  0.00    -0.346 N 
HETATM   17  C   UNL     1     -40.053 -46.483  10.867  1.00  0.00     0.097 A 
ATOM     18  HN  UNL     1     -40.238 -48.582  11.153  1.00  0.00     0.167 HD
HETATM   19  C   UNL     1     -40.876 -45.407  10.612  1.00  0.00     0.070 A 
HETATM   20  S   UNL     1     -42.519 -45.927  10.596  1.00  0.00    -0.064 SA
ENDBRANCH   4  15
TORSDOF 4
ENDMDL
MODEL 3
REMARK VINA RESULT:      -5.0      1.811      6.750
REMARK  4 active torsions:
REMARK  status: ('A' for Active; 'I' for Inactive)
REMARK    1  A    between atoms: C_2  and  S_3 
REMARK    2  A    between atoms: S_3  and  C_4 
REMARK    3  A    between atoms: C_8  and  N_9 
REMARK       I    between atoms: N_9  and  C_10 
REMARK       I    between atoms: C_10  and  N_12 
REMARK    4  A    between atoms: N_12  and  C_13 
ROOT
HETATM    1  N   UNL     1     -41.278 -51.166  12.456  1.00  0.00    -0.337 N 
HETATM    2  C   UNL     1     -41.931 -50.012  12.091  1.00  0.00     0.322 C 
HETATM    3  O   UNL     1     -42.836 -49.532  12.761  1.00  0.00    -0.247 OA
HETATM    4  N   UNL     1     -41.482 -49.467  10.913  1.00  0.00    -0.289 N 
HETATM    5  H   UNL     1     -40.430 -51.391  11.966  1.00  0.00     0.164 HD
HETATM    6  H   UNL     1     -41.017 -50.036  10.225  1.00  0.00     0.172 HD
ENDROOT
BRANCH   1   7
HETATM    7  C   UNL     1     -41.533 -51.919  13.703  1.00  0.00     0.100 C 
HETATM    8  C   UNL     1     -40.242 -52.231  14.491  1.00  0.00     0.070 C 
HETATM    9  C   UNL     1     -39.639 -53.419  13.730  1.00  0.00     0.017 C 
HETATM   10  C   UNL     1     -40.852 -54.194  13.198  1.00  0.00     0.003 C 
HETATM   11  C   UNL     1     -42.075 -53.350  13.573  1.00  0.00     0.026 C 
BRANCH   8  12
HETATM   12  S   UNL     1     -39.071 -50.858  14.740  1.00  0.00    -0.163 SA
BRANCH  12  13
HETATM   13  C   UNL     1     -37.859 -51.204  13.416  1.00  0.00     0.070 C 
HETATM   14  C   UNL     1     -37.806 -50.150  12.323  1.00  0.00     0.016 C 
ENDBRANCH  12  13
ENDBRANCH   8  12
ENDBRANCH   1   7
BRANCH   4  15
HETATM   15  C   UNL     1     -42.015 -48.264  10.516  1.00  0.00     0.152 A 
HETATM   16  N   UNL     1     -43.142 -48.065   9.878  1.00  0.00    -0.346 N 
HETATM   17  C   UNL     1     -43.273 -46.740   9.553  1.00  0.00     0.097 A 
ATOM     18  HN  UNL     1     -43.822 -48.791   9.654  1.00  0.00     0.167 HD
HETATM   19  C   UNL     1     -42.271 -45.922  10.029  1.00  0.00     0.070 A 
HETATM   20  S   UNL     1     -41.113 -46.868  10.887  1.00  0.00    -0.064 SA
ENDBRANCH   4  15
TORSDOF 4
ENDMDL
MODEL 4
REMARK VINA RESULT:      -4.9      3.590      5.925
REMARK  4 active torsions:
REMARK  status: ('A' for Active; 'I' for Inactive)
REMARK    1  A    between atoms: C_2  and  S_3 
REMARK    2  A    between atoms: S_3  and  C_4 
REMARK    3  A    between atoms: C_8  and  N_9 
REMARK       I    between atoms: N_9  and  C_10 
REMARK       I    between atoms: C_10  and  N_12 
REMARK    4  A    between atoms: N_12  and  C_13 
ROOT
HETATM    1  N   UNL     1     -43.906 -51.020  13.445  1.00  0.00    -0.337 N 
HETATM    2  C   UNL     1     -42.584 -50.657  13.326  1.00  0.00     0.322 C 
HETATM    3  O   UNL     1     -41.767 -50.864  14.214  1.00  0.00    -0.247 OA
HETATM    4  N   UNL     1     -42.280 -50.040  12.138  1.00  0.00    -0.289 N 
HETATM    5  H   UNL     1     -44.467 -50.993  12.611  1.00  0.00     0.164 HD
HETATM    6  H   UNL     1     -42.992 -49.574  11.601  1.00  0.00     0.172 HD
ENDROOT
BRANCH   1   7
HETATM    7  C   UNL     1     -44.480 -51.744  14.598  1.00  0.00     0.100 C 
HETATM    8  C   UNL     1     -45.169 -53.067  14.196  1.00  0.00     0.070 C 
HETATM    9  C   UNL     1     -46.518 -52.608  13.631  1.00  0.00     0.017 C 
HETATM   10  C   UNL     1     -46.872 -51.353  14.442  1.00  0.00     0.003 C 
HETATM   11  C   UNL     1     -45.656 -51.089  15.338  1.00  0.00     0.026 C 
BRANCH   8  12
HETATM   12  S   UNL     1     -44.249 -54.171  13.075  1.00  0.00    -0.163 SA
BRANCH  12  13
HETATM   13  C   UNL     1     -42.685 -54.363  14.002  1.00  0.00     0.070 C 
HETATM   14  C   UNL     1     -41.432 -54.193  13.159  1.00  0.00     0.016 C 
ENDBRANCH  12  13
ENDBRANCH   8  12
ENDBRANCH   1   7
BRANCH   4  15
HETATM   15  C   UNL     1     -40.964 -49.725  11.895  1.00  0.00     0.152 A 
HETATM   16  N   UNL     1     -40.007 -50.538  11.523  1.00  0.00    -0.346 N 
HETATM   17  C   UNL     1     -38.807 -49.876  11.498  1.00  0.00     0.097 A 
ATOM     18  HN  UNL     1     -40.136 -51.522  11.286  1.00  0.00     0.167 HD
HETATM   19  C   UNL     1     -38.882 -48.528  11.773  1.00  0.00     0.070 A 
HETATM   20  S   UNL     1     -40.517 -48.095  12.104  1.00  0.00    -0.064 SA
ENDBRANCH   4  15
TORSDOF 4
ENDMDL
MODEL 5
REMARK VINA RESULT:      -4.9      4.714      6.085
REMARK  4 active torsions:
REMARK  status: ('A' for Active; 'I' for Inactive)
REMARK    1  A    between atoms: C_2  and  S_3 
REMARK    2  A    between atoms: S_3  and  C_4 
REMARK    3  A    between atoms: C_8  and  N_9 
REMARK       I    between atoms: N_9  and  C_10 
REMARK       I    between atoms: C_10  and  N_12 
REMARK    4  A    between atoms: N_12  and  C_13 
ROOT
HETATM    1  N   UNL     1     -42.504 -45.759  10.655  1.00  0.00    -0.337 N 
HETATM    2  C   UNL     1     -43.042 -46.772   9.896  1.00  0.00     0.322 C 
HETATM    3  O   UNL     1     -42.480 -47.849   9.751  1.00  0.00    -0.247 OA
HETATM    4  N   UNL     1     -44.246 -46.454   9.316  1.00  0.00    -0.289 N 
HETATM    5  H   UNL     1     -43.105 -44.985  10.883  1.00  0.00     0.164 HD
HETATM    6  H   UNL     1     -44.504 -45.496   9.153  1.00  0.00     0.172 HD
ENDROOT
BRANCH   1   7
HETATM    7  C   UNL     1     -41.247 -45.861  11.426  1.00  0.00     0.100 C 
HETATM    8  C   UNL     1     -41.016 -44.654  12.363  1.00  0.00     0.070 C 
HETATM    9  C   UNL     1     -40.511 -43.560  11.415  1.00  0.00     0.017 C 
HETATM   10  C   UNL     1     -39.727 -44.314  10.333  1.00  0.00     0.003 C 
HETATM   11  C   UNL     1     -39.926 -45.803  10.646  1.00  0.00     0.026 C 
BRANCH   8  12
HETATM   12  S   UNL     1     -42.421 -44.129  13.398  1.00  0.00    -0.163 SA
BRANCH  12  13
HETATM   13  C   UNL     1     -42.650 -45.618  14.434  1.00  0.00     0.070 C 
HETATM   14  C   UNL     1     -43.737 -45.488  15.487  1.00  0.00     0.016 C 
ENDBRANCH  12  13
ENDBRANCH   8  12
ENDBRANCH   1   7
BRANCH   4  15
HETATM   15  C   UNL     1     -44.901 -47.438   8.613  1.00  0.00     0.152 A 
HETATM   16  N   UNL     1     -44.472 -48.076   7.553  1.00  0.00    -0.346 N 
HETATM   17  C   UNL     1     -45.455 -48.898   7.066  1.00  0.00     0.097 A 
ATOM     18  HN  UNL     1     -43.541 -47.977   7.148  1.00  0.00     0.167 HD
HETATM   19  C   UNL     1     -46.606 -48.938   7.823  1.00  0.00     0.070 A 
HETATM   20  S   UNL     1     -46.448 -47.878   9.173  1.00  0.00    -0.064 SA
ENDBRANCH   4  15
TORSDOF 4
ENDMDL
MODEL 6
REMARK VINA RESULT:      -4.8      4.580      6.328
REMARK  4 active torsions:
REMARK  status: ('A' for Active; 'I' for Inactive)
REMARK    1  A    between atoms: C_2  and  S_3 
REMARK    2  A    between atoms: S_3  and  C_4 
REMARK    3  A    between atoms: C_8  and  N_9 
REMARK       I    between atoms: N_9  and  C_10 
REMARK       I    between atoms: C_10  and  N_12 
REMARK    4  A    between atoms: N_12  and  C_13 
ROOT
HETATM    1  N   UNL     1     -41.944 -53.025  14.174  1.00  0.00    -0.337 N 
HETATM    2  C   UNL     1     -40.769 -52.725  13.522  1.00  0.00     0.322 C 
HETATM    3  O   UNL     1     -40.120 -53.572  12.923  1.00  0.00    -0.247 OA
HETATM    4  N   UNL     1     -40.398 -51.407  13.621  1.00  0.00    -0.289 N 
HETATM    5  H   UNL     1     -42.513 -52.253  14.476  1.00  0.00     0.164 HD
HETATM    6  H   UNL     1     -40.728 -50.833  14.378  1.00  0.00     0.172 HD
ENDROOT
BRANCH   1   7
HETATM    7  C   UNL     1     -42.589 -54.355  14.178  1.00  0.00     0.100 C 
HETATM    8  C   UNL     1     -44.130 -54.276  14.110  1.00  0.00     0.070 C 
HETATM    9  C   UNL     1     -44.532 -53.920  15.546  1.00  0.00     0.017 C 
HETATM   10  C   UNL     1     -43.475 -54.601  16.426  1.00  0.00     0.003 C 
HETATM   11  C   UNL     1     -42.458 -55.206  15.450  1.00  0.00     0.026 C 
BRANCH   8  12
HETATM   12  S   UNL     1     -44.847 -53.164  12.857  1.00  0.00    -0.163 SA
BRANCH  12  13
HETATM   13  C   UNL     1     -45.235 -51.704  13.886  1.00  0.00     0.070 C 
HETATM   14  C   UNL     1     -46.720 -51.423  14.040  1.00  0.00     0.016 C 
ENDBRANCH  12  13
ENDBRANCH   8  12
ENDBRANCH   1   7
BRANCH   4  15
HETATM   15  C   UNL     1     -39.285 -50.998  12.924  1.00  0.00     0.152 A 
HETATM   16  N   UNL     1     -38.047 -51.384  13.108  1.00  0.00    -0.346 N 
HETATM   17  C   UNL     1     -37.204 -50.665  12.300  1.00  0.00     0.097 A 
ATOM     18  HN  UNL     1     -37.753 -52.113  13.758  1.00  0.00     0.167 HD
HETATM   19  C   UNL     1     -37.830 -49.789  11.440  1.00  0.00     0.070 A 
HETATM   20  S   UNL     1     -39.535 -49.857  11.686  1.00  0.00    -0.064 SA
ENDBRANCH   4  15
TORSDOF 4
ENDMDL
MODEL 7
REMARK VINA RESULT:      -4.8      3.509      4.935
REMARK  4 active torsions:
REMARK  status: ('A' for Active; 'I' for Inactive)
REMARK    1  A    between atoms: C_2  and  S_3 
REMARK    2  A    between atoms: S_3  and  C_4 
REMARK    3  A    between atoms: C_8  and  N_9 
REMARK       I    between atoms: N_9  and  C_10 
REMARK       I    between atoms: C_10  and  N_12 
REMARK    4  A    between atoms: N_12  and  C_13 
ROOT
HETATM    1  N   UNL     1     -40.369 -50.854  12.561  1.00  0.00    -0.337 N 
HETATM    2  C   UNL     1     -41.343 -51.705  13.028  1.00  0.00     0.322 C 
HETATM    3  O   UNL     1     -41.259 -52.263  14.114  1.00  0.00    -0.247 OA
HETATM    4  N   UNL     1     -42.397 -51.874  12.163  1.00  0.00    -0.289 N 
HETATM    5  H   UNL     1     -40.595 -50.291  11.758  1.00  0.00     0.164 HD
HETATM    6  H   UNL     1     -42.287 -51.708  11.177  1.00  0.00     0.172 HD
ENDROOT
BRANCH   1   7
HETATM    7  C   UNL     1     -39.160 -50.462  13.316  1.00  0.00     0.100 C 
HETATM    8  C   UNL     1     -38.724 -49.006  13.040  1.00  0.00     0.070 C 
HETATM    9  C   UNL     1     -38.018 -49.098  11.682  1.00  0.00     0.017 C 
HETATM   10  C   UNL     1     -37.372 -50.490  11.674  1.00  0.00     0.003 C 
HETATM   11  C   UNL     1     -37.842 -51.168  12.967  1.00  0.00     0.026 C 
BRANCH   8  12
HETATM   12  S   UNL     1     -40.021 -47.728  13.100  1.00  0.00    -0.163 SA
BRANCH  12  13
HETATM   13  C   UNL     1     -40.260 -47.408  11.316  1.00  0.00     0.070 C 
HETATM   14  C   UNL     1     -39.975 -45.977  10.892  1.00  0.00     0.016 C 
ENDBRANCH  12  13
ENDBRANCH   8  12
ENDBRANCH   1   7
BRANCH   4  15
HETATM   15  C   UNL     1     -43.460 -52.637  12.586  1.00  0.00     0.152 A 
HETATM   16  N   UNL     1     -43.573 -53.941  12.534  1.00  0.00    -0.346 N 
HETATM   17  C   UNL     1     -44.826 -54.323  12.938  1.00  0.00     0.097 A 
ATOM     18  HN  UNL     1     -42.835 -54.579  12.236  1.00  0.00     0.167 HD
HETATM   19  C   UNL     1     -45.632 -53.296  13.379  1.00  0.00     0.070 A 
HETATM   20  S   UNL     1     -44.787 -51.799  13.246  1.00  0.00    -0.064 SA
ENDBRANCH   4  15
TORSDOF 4
ENDMDL
MODEL 8
REMARK VINA RESULT:      -4.7      3.680      5.336
REMARK  4 active torsions:
REMARK  status: ('A' for Active; 'I' for Inactive)
REMARK    1  A    between atoms: C_2  and  S_3 
REMARK    2  A    between atoms: S_3  and  C_4 
REMARK    3  A    between atoms: C_8  and  N_9 
REMARK       I    between atoms: N_9  and  C_10 
REMARK       I    between atoms: C_10  and  N_12 
REMARK    4  A    between atoms: N_12  and  C_13 
ROOT
HETATM    1  N   UNL     1     -40.288 -51.046  12.493  1.00  0.00    -0.337 N 
HETATM    2  C   UNL     1     -41.532 -51.316  13.016  1.00  0.00     0.322 C 
HETATM    3  O   UNL     1     -41.829 -51.043  14.171  1.00  0.00    -0.247 OA
HETATM    4  N   UNL     1     -42.388 -51.924  12.131  1.00  0.00    -0.289 N 
HETATM    5  H   UNL     1     -40.181 -51.122  11.496  1.00  0.00     0.164 HD
HETATM    6  H   UNL     1     -42.035 -52.445  11.346  1.00  0.00     0.172 HD
ENDROOT
BRANCH   1   7
HETATM    7  C   UNL     1     -39.203 -50.351  13.217  1.00  0.00     0.100 C 
HETATM    8  C   UNL     1     -38.690 -49.098  12.474  1.00  0.00     0.070 C 
HETATM    9  C   UNL     1     -37.783 -49.678  11.383  1.00  0.00     0.017 C 
HETATM   10  C   UNL     1     -37.181 -50.943  12.010  1.00  0.00     0.003 C 
HETATM   11  C   UNL     1     -37.865 -51.089  13.375  1.00  0.00     0.026 C 
BRANCH   8  12
HETATM   12  S   UNL     1     -39.946 -47.943  11.837  1.00  0.00    -0.163 SA
BRANCH  12  13
HETATM   13  C   UNL     1     -39.898 -46.648  13.127  1.00  0.00     0.070 C 
HETATM   14  C   UNL     1     -38.676 -46.707  14.028  1.00  0.00     0.016 C 
ENDBRANCH  12  13
ENDBRANCH   8  12
ENDBRANCH   1   7
BRANCH   4  15
HETATM   15  C   UNL     1     -43.682 -52.149  12.539  1.00  0.00     0.152 A 
HETATM   16  N   UNL     1     -44.601 -51.252  12.796  1.00  0.00    -0.346 N 
HETATM   17  C   UNL     1     -45.727 -51.858  13.291  1.00  0.00     0.097 A 
ATOM     18  HN  UNL     1     -44.495 -50.248  12.649  1.00  0.00     0.167 HD
HETATM   19  C   UNL     1     -45.678 -53.235  13.324  1.00  0.00     0.070 A 
HETATM   20  S   UNL     1     -44.148 -53.774  12.741  1.00  0.00    -0.064 SA
ENDBRANCH   4  15
TORSDOF 4
ENDMDL
MODEL 9
REMARK VINA RESULT:      -4.7      2.688      6.679
REMARK  4 active torsions:
REMARK  status: ('A' for Active; 'I' for Inactive)
REMARK    1  A    between atoms: C_2  and  S_3 
REMARK    2  A    between atoms: S_3  and  C_4 
REMARK    3  A    between atoms: C_8  and  N_9 
REMARK       I    between atoms: N_9  and  C_10 
REMARK       I    between atoms: C_10  and  N_12 
REMARK    4  A    between atoms: N_12  and  C_13 
ROOT
HETATM    1  N   UNL     1     -41.873 -52.339  13.666  1.00  0.00    -0.337 N 
HETATM    2  C   UNL     1     -41.619 -51.387  12.705  1.00  0.00     0.322 C 
HETATM    3  O   UNL     1     -41.166 -51.673  11.605  1.00  0.00    -0.247 OA
HETATM    4  N   UNL     1     -41.909 -50.105  13.102  1.00  0.00    -0.289 N 
HETATM    5  H   UNL     1     -42.417 -52.056  14.463  1.00  0.00     0.164 HD
HETATM    6  H   UNL     1     -41.933 -49.859  14.077  1.00  0.00     0.172 HD
ENDROOT
BRANCH   1   7
HETATM    7  C   UNL     1     -41.698 -53.794  13.476  1.00  0.00     0.100 C 
HETATM    8  C   UNL     1     -42.407 -54.632  14.562  1.00  0.00     0.070 C 
HETATM    9  C   UNL     1     -41.460 -54.532  15.764  1.00  0.00     0.017 C 
HETATM   10  C   UNL     1     -40.058 -54.440  15.146  1.00  0.00     0.003 C 
HETATM   11  C   UNL     1     -40.282 -54.368  13.631  1.00  0.00     0.026 C 
BRANCH   8  12
HETATM   12  S   UNL     1     -44.130 -54.189  14.956  1.00  0.00    -0.163 SA
BRANCH  12  13
HETATM   13  C   UNL     1     -44.903 -54.344  13.306  1.00  0.00     0.070 C 
HETATM   14  C   UNL     1     -45.316 -53.023  12.680  1.00  0.00     0.016 C 
ENDBRANCH  12  13
ENDBRANCH   8  12
ENDBRANCH   1   7
BRANCH   4  15
HETATM   15  C   UNL     1     -41.773 -49.098  12.175  1.00  0.00     0.152 A 
HETATM   16  N   UNL     1     -42.429 -48.959  11.050  1.00  0.00    -0.346 N 
HETATM   17  C   UNL     1     -41.930 -47.898  10.340  1.00  0.00     0.097 A 
ATOM     18  HN  UNL     1     -43.199 -49.555  10.746  1.00  0.00     0.167 HD
HETATM   19  C   UNL     1     -40.943 -47.181  10.983  1.00  0.00     0.070 A 
HETATM   20  S   UNL     1     -40.617 -47.895  12.518  1.00  0.00    -0.064 SA
ENDBRANCH   4  15
TORSDOF 4
ENDMDL
