MODEL 1
REMARK VINA RESULT:      -6.1      0.000      0.000
REMARK  6 active torsions:
REMARK  status: ('A' for Active; 'I' for Inactive)
REMARK    1  A    between atoms: C_2  and  C_3 
REMARK    2  A    between atoms: C_3  and  C_4 
REMARK    3  A    between atoms: C_7  and  N_10 
REMARK    4  A    between atoms: N_10  and  C_11 
REMARK    5  A    between atoms: C_11  and  C_12 
REMARK    6  A    between atoms: C_12  and  C_13 
ROOT
HETATM    1  N   UNL     1     -42.672 -52.477  11.885  1.00  0.00     0.088 N 
HETATM    2  H   UNL     1     -42.921 -51.496  11.756  1.00  0.00     0.316 HD
ENDROOT
BRANCH   1   3
HETATM    3  C   UNL     1     -43.307 -52.996  13.112  1.00  0.00     0.220 C 
HETATM    4  C   UNL     1     -44.661 -53.641  12.748  1.00  0.00     0.036 C 
HETATM    5  C   UNL     1     -45.749 -52.619  12.387  1.00  0.00     0.007 C 
HETATM    6  C   UNL     1     -45.928 -51.518  13.452  1.00  0.00    -0.014 C 
HETATM    7  C   UNL     1     -44.565 -50.884  13.775  1.00  0.00     0.007 C 
HETATM    8  C   UNL     1     -43.537 -51.931  14.202  1.00  0.00     0.036 C 
BRANCH   6   9
HETATM    9  C   UNL     1     -46.668 -52.077  14.690  1.00  0.00     0.004 C 
BRANCH   9  10
HETATM   10  C   UNL     1     -46.589 -51.178  15.928  1.00  0.00    -0.004 C 
HETATM   11  C   UNL     1     -47.877 -51.234  16.734  1.00  0.00     0.005 C 
ENDBRANCH   9  10
ENDBRANCH   6   9
ENDBRANCH   1   3
BRANCH   1  12
HETATM   12  C   UNL     1     -41.210 -52.607  11.901  1.00  0.00     0.277 C 
BRANCH  12  13
HETATM   13  C   UNL     1     -40.535 -51.323  12.401  1.00  0.00     0.108 C 
BRANCH  13  14
HETATM   14  C   UNL     1     -40.955 -50.163  11.571  1.00  0.00     0.098 A 
HETATM   15  N   UNL     1     -40.580 -49.883  10.341  1.00  0.00    -0.288 N 
HETATM   16  N   UNL     1     -41.234 -48.742   9.947  1.00  0.00    -0.295 N 
ATOM     17  HN  UNL     1     -39.920 -50.420   9.779  1.00  0.00     0.188 HD
HETATM   18  C   UNL     1     -41.993 -48.351  10.943  1.00  0.00     0.198 A 
ATOM     19  HN  UNL     1     -41.146 -48.281   9.041  1.00  0.00     0.187 HD
HETATM   20  N   UNL     1     -41.851 -49.213  11.987  1.00  0.00    -0.340 N 
HETATM   21  H   UNL     1     -42.318 -49.171  12.880  1.00  0.00     0.168 HD
ENDBRANCH  13  14
ENDBRANCH  12  13
ENDBRANCH   1  12
TORSDOF 6
ENDMDL
MODEL 2
REMARK VINA RESULT:      -5.6      1.289      2.005
REMARK  6 active torsions:
REMARK  status: ('A' for Active; 'I' for Inactive)
REMARK    1  A    between atoms: C_2  and  C_3 
REMARK    2  A    between atoms: C_3  and  C_4 
REMARK    3  A    between atoms: C_7  and  N_10 
REMARK    4  A    between atoms: N_10  and  C_11 
REMARK    5  A    between atoms: C_11  and  C_12 
REMARK    6  A    between atoms: C_12  and  C_13 
ROOT
HETATM    1  N   UNL     1     -41.325 -53.655  13.185  1.00  0.00     0.088 N 
HETATM    2  H   UNL     1     -41.731 -54.529  12.851  1.00  0.00     0.316 HD
ENDROOT
BRANCH   1   3
HETATM    3  C   UNL     1     -42.299 -52.947  14.040  1.00  0.00     0.220 C 
HETATM    4  C   UNL     1     -42.711 -53.868  15.207  1.00  0.00     0.036 C 
HETATM    5  C   UNL     1     -43.632 -55.021  14.782  1.00  0.00     0.007 C 
HETATM    6  C   UNL     1     -44.865 -54.552  13.983  1.00  0.00    -0.014 C 
HETATM    7  C   UNL     1     -44.417 -53.656  12.818  1.00  0.00     0.007 C 
HETATM    8  C   UNL     1     -43.566 -52.481  13.298  1.00  0.00     0.036 C 
BRANCH   6   9
HETATM    9  C   UNL     1     -45.900 -53.888  14.923  1.00  0.00     0.004 C 
BRANCH   9  10
HETATM   10  C   UNL     1     -46.824 -52.882  14.228  1.00  0.00    -0.004 C 
HETATM   11  C   UNL     1     -46.800 -51.534  14.932  1.00  0.00     0.005 C 
ENDBRANCH   9  10
ENDBRANCH   6   9
ENDBRANCH   1   3
BRANCH   1  12
HETATM   12  C   UNL     1     -40.886 -52.854  12.036  1.00  0.00     0.277 C 
BRANCH  12  13
HETATM   13  C   UNL     1     -40.201 -51.556  12.483  1.00  0.00     0.108 C 
BRANCH  13  14
HETATM   14  C   UNL     1     -40.751 -50.397  11.733  1.00  0.00     0.098 A 
HETATM   15  N   UNL     1     -40.474 -50.040  10.497  1.00  0.00    -0.288 N 
HETATM   16  N   UNL     1     -41.229 -48.935  10.194  1.00  0.00    -0.295 N 
ATOM     17  HN  UNL     1     -39.812 -50.503   9.874  1.00  0.00     0.188 HD
HETATM   18  C   UNL     1     -41.951 -48.642  11.250  1.00  0.00     0.198 A 
ATOM     19  HN  UNL     1     -41.229 -48.431   9.307  1.00  0.00     0.187 HD
HETATM   20  N   UNL     1     -41.685 -49.533  12.243  1.00  0.00    -0.340 N 
HETATM   21  H   UNL     1     -42.097 -49.562  13.163  1.00  0.00     0.168 HD
ENDBRANCH  13  14
ENDBRANCH  12  13
ENDBRANCH   1  12
TORSDOF 6
ENDMDL
MODEL 3
REMARK VINA RESULT:      -5.4      1.952      3.189
REMARK  6 active torsions:
REMARK  status: ('A' for Active; 'I' for Inactive)
REMARK    1  A    between atoms: C_2  and  C_3 
REMARK    2  A    between atoms: C_3  and  C_4 
REMARK    3  A    between atoms: C_7  and  N_10 
REMARK    4  A    between atoms: N_10  and  C_11 
REMARK    5  A    between atoms: C_11  and  C_12 
REMARK    6  A    between atoms: C_12  and  C_13 
ROOT
HETATM    1  N   UNL     1     -43.849 -49.869  12.582  1.00  0.00     0.088 N 
HETATM    2  H   UNL     1     -44.537 -49.145  12.790  1.00  0.00     0.316 HD
ENDROOT
BRANCH   1   3
HETATM    3  C   UNL     1     -43.794 -50.839  13.694  1.00  0.00     0.220 C 
HETATM    4  C   UNL     1     -43.498 -52.243  13.127  1.00  0.00     0.036 C 
HETATM    5  C   UNL     1     -44.690 -52.868  12.388  1.00  0.00     0.007 C 
HETATM    6  C   UNL     1     -45.990 -52.867  13.218  1.00  0.00    -0.014 C 
HETATM    7  C   UNL     1     -46.264 -51.451  13.749  1.00  0.00     0.007 C 
HETATM    8  C   UNL     1     -45.079 -50.901  14.541  1.00  0.00     0.036 C 
BRANCH   6   9
HETATM    9  C   UNL     1     -45.929 -53.949  14.323  1.00  0.00     0.004 C 
BRANCH   9  10
HETATM   10  C   UNL     1     -45.167 -55.216  13.920  1.00  0.00    -0.004 C 
HETATM   11  C   UNL     1     -43.910 -55.393  14.757  1.00  0.00     0.005 C 
ENDBRANCH   9  10
ENDBRANCH   6   9
ENDBRANCH   1   3
BRANCH   1  12
HETATM   12  C   UNL     1     -42.551 -49.240  12.308  1.00  0.00     0.277 C 
BRANCH  12  13
HETATM   13  C   UNL     1     -42.714 -47.775  11.886  1.00  0.00     0.108 C 
BRANCH  13  14
HETATM   14  C   UNL     1     -43.064 -47.689  10.444  1.00  0.00     0.098 A 
HETATM   15  N   UNL     1     -42.410 -48.214   9.430  1.00  0.00    -0.288 N 
HETATM   16  N   UNL     1     -43.100 -47.920   8.280  1.00  0.00    -0.295 N 
ATOM     17  HN  UNL     1     -41.541 -48.745   9.488  1.00  0.00     0.188 HD
HETATM   18  C   UNL     1     -44.161 -47.224   8.617  1.00  0.00     0.198 A 
ATOM     19  HN  UNL     1     -42.837 -48.195   7.334  1.00  0.00     0.187 HD
HETATM   20  N   UNL     1     -44.180 -47.053   9.967  1.00  0.00    -0.340 N 
HETATM   21  H   UNL     1     -44.879 -46.568  10.510  1.00  0.00     0.168 HD
ENDBRANCH  13  14
ENDBRANCH  12  13
ENDBRANCH   1  12
TORSDOF 6
ENDMDL
MODEL 4
REMARK VINA RESULT:      -5.3      1.729      2.462
REMARK  6 active torsions:
REMARK  status: ('A' for Active; 'I' for Inactive)
REMARK    1  A    between atoms: C_2  and  C_3 
REMARK    2  A    between atoms: C_3  and  C_4 
REMARK    3  A    between atoms: C_7  and  N_10 
REMARK    4  A    between atoms: N_10  and  C_11 
REMARK    5  A    between atoms: C_11  and  C_12 
REMARK    6  A    between atoms: C_12  and  C_13 
ROOT
HETATM    1  N   UNL     1     -43.078 -52.994  14.320  1.00  0.00     0.088 N 
HETATM    2  H   UNL     1     -42.834 -52.065  14.664  1.00  0.00     0.316 HD
ENDROOT
BRANCH   1   3
HETATM    3  C   UNL     1     -44.247 -53.509  15.060  1.00  0.00     0.220 C 
HETATM    4  C   UNL     1     -45.487 -53.464  14.143  1.00  0.00     0.036 C 
HETATM    5  C   UNL     1     -46.022 -52.044  13.905  1.00  0.00     0.007 C 
HETATM    6  C   UNL     1     -46.268 -51.260  15.210  1.00  0.00    -0.014 C 
HETATM    7  C   UNL     1     -45.008 -51.309  16.089  1.00  0.00     0.007 C 
HETATM    8  C   UNL     1     -44.558 -52.743  16.360  1.00  0.00     0.036 C 
BRANCH   6   9
HETATM    9  C   UNL     1     -47.545 -51.773  15.918  1.00  0.00     0.004 C 
BRANCH   9  10
HETATM   10  C   UNL     1     -48.031 -50.878  17.062  1.00  0.00    -0.004 C 
HETATM   11  C   UNL     1     -47.974 -51.609  18.395  1.00  0.00     0.005 C 
ENDBRANCH   9  10
ENDBRANCH   6   9
ENDBRANCH   1   3
BRANCH   1  12
HETATM   12  C   UNL     1     -41.905 -53.871  14.423  1.00  0.00     0.277 C 
BRANCH  12  13
HETATM   13  C   UNL     1     -41.273 -54.129  13.050  1.00  0.00     0.108 C 
BRANCH  13  14
HETATM   14  C   UNL     1     -40.916 -52.843  12.396  1.00  0.00     0.098 A 
HETATM   15  N   UNL     1     -41.284 -52.423  11.204  1.00  0.00    -0.288 N 
HETATM   16  N   UNL     1     -40.759 -51.169  11.014  1.00  0.00    -0.295 N 
ATOM     17  HN  UNL     1     -41.859 -52.939  10.538  1.00  0.00     0.188 HD
HETATM   18  C   UNL     1     -40.083 -50.851  12.092  1.00  0.00     0.198 A 
ATOM     19  HN  UNL     1     -40.874 -50.589  10.183  1.00  0.00     0.187 HD
HETATM   20  N   UNL     1     -40.153 -51.872  12.989  1.00  0.00    -0.340 N 
HETATM   21  H   UNL     1     -39.738 -51.905  13.908  1.00  0.00     0.168 HD
ENDBRANCH  13  14
ENDBRANCH  12  13
ENDBRANCH   1  12
TORSDOF 6
ENDMDL
MODEL 5
REMARK VINA RESULT:      -5.2      1.801      2.678
REMARK  6 active torsions:
REMARK  status: ('A' for Active; 'I' for Inactive)
REMARK    1  A    between atoms: C_2  and  C_3 
REMARK    2  A    between atoms: C_3  and  C_4 
REMARK    3  A    between atoms: C_7  and  N_10 
REMARK    4  A    between atoms: N_10  and  C_11 
REMARK    5  A    between atoms: C_11  and  C_12 
REMARK    6  A    between atoms: C_12  and  C_13 
ROOT
HETATM    1  N   UNL     1     -42.519 -50.531  12.043  1.00  0.00     0.088 N 
HETATM    2  H   UNL     1     -43.312 -50.588  11.405  1.00  0.00     0.316 HD
ENDROOT
BRANCH   1   3
HETATM    3  C   UNL     1     -42.864 -51.171  13.328  1.00  0.00     0.220 C 
HETATM    4  C   UNL     1     -42.852 -52.703  13.149  1.00  0.00     0.036 C 
HETATM    5  C   UNL     1     -44.046 -53.236  12.343  1.00  0.00     0.007 C 
HETATM    6  C   UNL     1     -45.408 -52.751  12.880  1.00  0.00    -0.014 C 
HETATM    7  C   UNL     1     -45.392 -51.221  13.026  1.00  0.00     0.007 C 
HETATM    8  C   UNL     1     -44.231 -50.744  13.897  1.00  0.00     0.036 C 
BRANCH   6   9
HETATM    9  C   UNL     1     -45.775 -53.501  14.182  1.00  0.00     0.004 C 
BRANCH   9  10
HETATM   10  C   UNL     1     -47.038 -52.977  14.874  1.00  0.00    -0.004 C 
HETATM   11  C   UNL     1     -46.709 -52.337  16.214  1.00  0.00     0.005 C 
ENDBRANCH   9  10
ENDBRANCH   6   9
ENDBRANCH   1   3
BRANCH   1  12
HETATM   12  C   UNL     1     -42.119 -49.126  12.195  1.00  0.00     0.277 C 
BRANCH  12  13
HETATM   13  C   UNL     1     -41.603 -48.541  10.874  1.00  0.00     0.108 C 
BRANCH  13  14
HETATM   14  C   UNL     1     -42.704 -47.852  10.150  1.00  0.00     0.098 A 
HETATM   15  N   UNL     1     -43.673 -47.129  10.670  1.00  0.00    -0.288 N 
HETATM   16  N   UNL     1     -44.447 -46.653   9.642  1.00  0.00    -0.295 N 
ATOM     17  HN  UNL     1     -43.823 -46.954  11.664  1.00  0.00     0.188 HD
HETATM   18  C   UNL     1     -43.934 -47.094   8.517  1.00  0.00     0.198 A 
ATOM     19  HN  UNL     1     -45.273 -46.062   9.734  1.00  0.00     0.187 HD
HETATM   20  N   UNL     1     -42.837 -47.853   8.787  1.00  0.00    -0.340 N 
HETATM   21  H   UNL     1     -42.235 -48.313   8.120  1.00  0.00     0.168 HD
ENDBRANCH  13  14
ENDBRANCH  12  13
ENDBRANCH   1  12
TORSDOF 6
ENDMDL
MODEL 6
REMARK VINA RESULT:      -5.2      2.876      4.137
REMARK  6 active torsions:
REMARK  status: ('A' for Active; 'I' for Inactive)
REMARK    1  A    between atoms: C_2  and  C_3 
REMARK    2  A    between atoms: C_3  and  C_4 
REMARK    3  A    between atoms: C_7  and  N_10 
REMARK    4  A    between atoms: N_10  and  C_11 
REMARK    5  A    between atoms: C_11  and  C_12 
REMARK    6  A    between atoms: C_12  and  C_13 
ROOT
HETATM    1  N   UNL     1     -43.433 -53.468  12.493  1.00  0.00     0.088 N 
HETATM    2  H   UNL     1     -43.193 -52.488  12.639  1.00  0.00     0.316 HD
ENDROOT
BRANCH   1   3
HETATM    3  C   UNL     1     -44.794 -53.729  13.002  1.00  0.00     0.220 C 
HETATM    4  C   UNL     1     -45.753 -52.648  12.463  1.00  0.00     0.036 C 
HETATM    5  C   UNL     1     -45.563 -51.275  13.123  1.00  0.00     0.007 C 
HETATM    6  C   UNL     1     -45.599 -51.330  14.664  1.00  0.00    -0.014 C 
HETATM    7  C   UNL     1     -44.618 -52.401  15.167  1.00  0.00     0.007 C 
HETATM    8  C   UNL     1     -44.895 -53.766  14.539  1.00  0.00     0.036 C 
BRANCH   6   9
HETATM    9  C   UNL     1     -47.050 -51.524  15.165  1.00  0.00     0.004 C 
BRANCH   9  10
HETATM   10  C   UNL     1     -47.168 -51.754  16.675  1.00  0.00    -0.004 C 
HETATM   11  C   UNL     1     -46.875 -50.479  17.451  1.00  0.00     0.005 C 
ENDBRANCH   9  10
ENDBRANCH   6   9
ENDBRANCH   1   3
BRANCH   1  12
HETATM   12  C   UNL     1     -42.415 -54.317  13.123  1.00  0.00     0.277 C 
BRANCH  12  13
HETATM   13  C   UNL     1     -41.010 -53.720  12.969  1.00  0.00     0.108 C 
BRANCH  13  14
HETATM   14  C   UNL     1     -40.078 -54.332  13.952  1.00  0.00     0.098 A 
HETATM   15  N   UNL     1     -38.905 -54.877  13.709  1.00  0.00    -0.288 N 
HETATM   16  N   UNL     1     -38.370 -55.286  14.905  1.00  0.00    -0.295 N 
ATOM     17  HN  UNL     1     -38.470 -54.978  12.792  1.00  0.00     0.188 HD
HETATM   18  C   UNL     1     -39.226 -54.981  15.851  1.00  0.00     0.198 A 
ATOM     19  HN  UNL     1     -37.468 -55.743  15.035  1.00  0.00     0.187 HD
HETATM   20  N   UNL     1     -40.316 -54.381  15.300  1.00  0.00    -0.340 N 
HETATM   21  H   UNL     1     -41.129 -54.030  15.784  1.00  0.00     0.168 HD
ENDBRANCH  13  14
ENDBRANCH  12  13
ENDBRANCH   1  12
TORSDOF 6
ENDMDL
MODEL 7
REMARK VINA RESULT:      -5.1      2.496      4.335
REMARK  6 active torsions:
REMARK  status: ('A' for Active; 'I' for Inactive)
REMARK    1  A    between atoms: C_2  and  C_3 
REMARK    2  A    between atoms: C_3  and  C_4 
REMARK    3  A    between atoms: C_7  and  N_10 
REMARK    4  A    between atoms: N_10  and  C_11 
REMARK    5  A    between atoms: C_11  and  C_12 
REMARK    6  A    between atoms: C_12  and  C_13 
ROOT
HETATM    1  N   UNL     1     -41.720 -50.328  11.528  1.00  0.00     0.088 N 
HETATM    2  H   UNL     1     -42.477 -50.650  10.925  1.00  0.00     0.316 HD
ENDROOT
BRANCH   1   3
HETATM    3  C   UNL     1     -42.001 -50.709  12.927  1.00  0.00     0.220 C 
HETATM    4  C   UNL     1     -40.831 -51.558  13.465  1.00  0.00     0.036 C 
HETATM    5  C   UNL     1     -40.788 -52.980  12.885  1.00  0.00     0.007 C 
HETATM    6  C   UNL     1     -42.128 -53.732  13.019  1.00  0.00    -0.014 C 
HETATM    7  C   UNL     1     -43.266 -52.867  12.456  1.00  0.00     0.007 C 
HETATM    8  C   UNL     1     -43.315 -51.490  13.116  1.00  0.00     0.036 C 
BRANCH   6   9
HETATM    9  C   UNL     1     -42.351 -54.186  14.482  1.00  0.00     0.004 C 
BRANCH   9  10
HETATM   10  C   UNL     1     -41.076 -54.640  15.200  1.00  0.00    -0.004 C 
HETATM   11  C   UNL     1     -41.401 -55.510  16.404  1.00  0.00     0.005 C 
ENDBRANCH   9  10
ENDBRANCH   6   9
ENDBRANCH   1   3
BRANCH   1  12
HETATM   12  C   UNL     1     -41.544 -48.881  11.355  1.00  0.00     0.277 C 
BRANCH  12  13
HETATM   13  C   UNL     1     -42.872 -48.130  11.513  1.00  0.00     0.108 C 
BRANCH  13  14
HETATM   14  C   UNL     1     -43.411 -47.749  10.180  1.00  0.00     0.098 A 
HETATM   15  N   UNL     1     -44.507 -47.066   9.928  1.00  0.00    -0.288 N 
HETATM   16  N   UNL     1     -44.609 -46.913   8.567  1.00  0.00    -0.295 N 
ATOM     17  HN  UNL     1     -45.167 -46.713  10.621  1.00  0.00     0.188 HD
HETATM   18  C   UNL     1     -43.573 -47.504   8.020  1.00  0.00     0.198 A 
ATOM     19  HN  UNL     1     -45.355 -46.426   8.071  1.00  0.00     0.187 HD
HETATM   20  N   UNL     1     -42.792 -48.045   8.995  1.00  0.00    -0.340 N 
HETATM   21  H   UNL     1     -41.928 -48.550   8.873  1.00  0.00     0.168 HD
ENDBRANCH  13  14
ENDBRANCH  12  13
ENDBRANCH   1  12
TORSDOF 6
ENDMDL
MODEL 8
REMARK VINA RESULT:      -5.1      5.725      8.688
REMARK  6 active torsions:
REMARK  status: ('A' for Active; 'I' for Inactive)
REMARK    1  A    between atoms: C_2  and  C_3 
REMARK    2  A    between atoms: C_3  and  C_4 
REMARK    3  A    between atoms: C_7  and  N_10 
REMARK    4  A    between atoms: N_10  and  C_11 
REMARK    5  A    between atoms: C_11  and  C_12 
REMARK    6  A    between atoms: C_12  and  C_13 
ROOT
HETATM    1  N   UNL     1     -42.915 -45.718  11.472  1.00  0.00     0.088 N 
HETATM    2  H   UNL     1     -42.752 -45.137  10.650  1.00  0.00     0.316 HD
ENDROOT
BRANCH   1   3
HETATM    3  C   UNL     1     -41.987 -45.327  12.551  1.00  0.00     0.220 C 
HETATM    4  C   UNL     1     -42.591 -44.144  13.336  1.00  0.00     0.036 C 
HETATM    5  C   UNL     1     -42.558 -42.817  12.565  1.00  0.00     0.007 C 
HETATM    6  C   UNL     1     -41.159 -42.463  12.021  1.00  0.00    -0.014 C 
HETATM    7  C   UNL     1     -40.596 -43.655  11.228  1.00  0.00     0.007 C 
HETATM    8  C   UNL     1     -40.579 -44.936  12.061  1.00  0.00     0.036 C 
BRANCH   6   9
HETATM    9  C   UNL     1     -40.237 -41.982  13.166  1.00  0.00     0.004 C 
BRANCH   9  10
HETATM   10  C   UNL     1     -39.730 -40.545  13.002  1.00  0.00    -0.004 C 
HETATM   11  C   UNL     1     -40.536 -39.792  11.955  1.00  0.00     0.005 C 
ENDBRANCH   9  10
ENDBRANCH   6   9
ENDBRANCH   1   3
BRANCH   1  12
HETATM   12  C   UNL     1     -42.793 -47.132  11.099  1.00  0.00     0.277 C 
BRANCH  12  13
HETATM   13  C   UNL     1     -43.085 -47.348   9.608  1.00  0.00     0.108 C 
BRANCH  13  14
HETATM   14  C   UNL     1     -44.520 -47.088   9.320  1.00  0.00     0.098 A 
HETATM   15  N   UNL     1     -45.050 -45.986   8.834  1.00  0.00    -0.288 N 
HETATM   16  N   UNL     1     -46.401 -46.190   8.694  1.00  0.00    -0.295 N 
ATOM     17  HN  UNL     1     -44.547 -45.130   8.602  1.00  0.00     0.188 HD
HETATM   18  C   UNL     1     -46.665 -47.411   9.097  1.00  0.00     0.198 A 
ATOM     19  HN  UNL     1     -47.078 -45.514   8.340  1.00  0.00     0.187 HD
HETATM   20  N   UNL     1     -45.513 -48.014   9.500  1.00  0.00    -0.340 N 
HETATM   21  H   UNL     1     -45.408 -48.955   9.849  1.00  0.00     0.168 HD
ENDBRANCH  13  14
ENDBRANCH  12  13
ENDBRANCH   1  12
TORSDOF 6
ENDMDL
MODEL 9
REMARK VINA RESULT:      -5.0      4.980      6.689
REMARK  6 active torsions:
REMARK  status: ('A' for Active; 'I' for Inactive)
REMARK    1  A    between atoms: C_2  and  C_3 
REMARK    2  A    between atoms: C_3  and  C_4 
REMARK    3  A    between atoms: C_7  and  N_10 
REMARK    4  A    between atoms: N_10  and  C_11 
REMARK    5  A    between atoms: C_11  and  C_12 
REMARK    6  A    between atoms: C_12  and  C_13 
ROOT
HETATM    1  N   UNL     1     -40.191 -47.610  11.004  1.00  0.00     0.088 N 
HETATM    2  H   UNL     1     -40.119 -47.976  10.055  1.00  0.00     0.316 HD
ENDROOT
BRANCH   1   3
HETATM    3  C   UNL     1     -40.318 -48.726  11.962  1.00  0.00     0.220 C 
HETATM    4  C   UNL     1     -39.846 -48.256  13.353  1.00  0.00     0.036 C 
HETATM    5  C   UNL     1     -38.323 -48.087  13.459  1.00  0.00     0.007 C 
HETATM    6  C   UNL     1     -37.539 -49.333  12.999  1.00  0.00    -0.014 C 
HETATM    7  C   UNL     1     -38.020 -49.761  11.603  1.00  0.00     0.007 C 
HETATM    8  C   UNL     1     -39.530 -49.990  11.566  1.00  0.00     0.036 C 
BRANCH   6   9
HETATM    9  C   UNL     1     -37.628 -50.453  14.062  1.00  0.00     0.004 C 
BRANCH   9  10
HETATM   10  C   UNL     1     -36.922 -50.124  15.381  1.00  0.00    -0.004 C 
HETATM   11  C   UNL     1     -37.887 -50.188  16.555  1.00  0.00     0.005 C 
ENDBRANCH   9  10
ENDBRANCH   6   9
ENDBRANCH   1   3
BRANCH   1  12
HETATM   12  C   UNL     1     -41.312 -46.666  11.075  1.00  0.00     0.277 C 
BRANCH  12  13
HETATM   13  C   UNL     1     -42.651 -47.394  11.251  1.00  0.00     0.108 C 
BRANCH  13  14
HETATM   14  C   UNL     1     -43.369 -47.474   9.951  1.00  0.00     0.098 A 
HETATM   15  N   UNL     1     -44.610 -47.114   9.701  1.00  0.00    -0.288 N 
HETATM   16  N   UNL     1     -44.854 -47.326   8.367  1.00  0.00    -0.295 N 
ATOM     17  HN  UNL     1     -45.275 -46.742  10.380  1.00  0.00     0.188 HD
HETATM   18  C   UNL     1     -43.757 -47.809   7.832  1.00  0.00     0.198 A 
ATOM     19  HN  UNL     1     -45.729 -47.140   7.878  1.00  0.00     0.187 HD
HETATM   20  N   UNL     1     -42.797 -47.921   8.790  1.00  0.00    -0.340 N 
HETATM   21  H   UNL     1     -41.851 -48.252   8.670  1.00  0.00     0.168 HD
ENDBRANCH  13  14
ENDBRANCH  12  13
ENDBRANCH   1  12
TORSDOF 6
ENDMDL
