MODEL 1
REMARK VINA RESULT:      -5.6      0.000      0.000
REMARK  4 active torsions:
REMARK  status: ('A' for Active; 'I' for Inactive)
REMARK    1  A    between atoms: C_2  and  C_4 
REMARK    2  A    between atoms: C_4  and  N_5 
REMARK       I    between atoms: N_5  and  C_6 
REMARK    3  A    between atoms: C_6  and  C_8 
REMARK    4  A    between atoms: C_8  and  C_9 
ROOT
HETATM    1  C   UNL     1     -43.069 -46.324  10.089  1.00  0.00     0.041 C 
HETATM    2  C   UNL     1     -43.458 -47.549  10.496  1.00  0.00     0.018 C 
HETATM    3  C   UNL     1     -42.606 -48.443  11.361  1.00  0.00     0.069 C 
HETATM    4  N   UNL     1     -44.669 -48.118  10.163  1.00  0.00    -0.349 N 
ATOM      5  HN  UNL     1     -44.935 -49.036  10.520  1.00  0.00     0.167 HD
HETATM    6  C   UNL     1     -45.455 -47.453   9.385  1.00  0.00     0.080 C 
HETATM    7  C   UNL     1     -46.764 -48.037   8.931  1.00  0.00     0.089 C 
HETATM    8  N   UNL     1     -45.173 -46.203   8.922  1.00  0.00    -0.313 N 
HETATM    9  C   UNL     1     -44.058 -45.531   9.317  1.00  0.00     0.255 C 
HETATM   10  O   UNL     1     -43.878 -44.346   9.055  1.00  0.00    -0.268 OA
HETATM   11  H   UNL     1     -45.847 -45.682   8.382  1.00  0.00     0.170 HD
ENDROOT
BRANCH   1  12
HETATM   12  C   UNL     1     -41.729 -45.680  10.280  1.00  0.00     0.149 C 
BRANCH  12  13
HETATM   13  C   UNL     1     -41.631 -45.025  11.645  1.00  0.00     0.222 C 
HETATM   14  N   UNL     1     -42.730 -44.271  11.991  1.00  0.00    -0.360 N 
HETATM   15  H   UNL     1     -43.552 -44.306  11.395  1.00  0.00     0.162 HD
HETATM   16  O   UNL     1     -40.648 -45.167  12.367  1.00  0.00    -0.273 OA
BRANCH  14  17
HETATM   17  C   UNL     1     -42.817 -43.557  13.248  1.00  0.00     0.126 C 
BRANCH  17  18
HETATM   18  C   UNL     1     -42.955 -42.038  13.061  1.00  0.00    -0.005 C 
HETATM   19  C   UNL     1     -41.601 -41.332  13.162  1.00  0.00     0.011 C 
HETATM   20  C   UNL     1     -43.597 -41.733  11.705  1.00  0.00     0.011 C 
ENDBRANCH  17  18
ENDBRANCH  14  17
ENDBRANCH  12  13
ENDBRANCH   1  12
TORSDOF 4
ENDMDL
MODEL 2
REMARK VINA RESULT:      -5.6      7.504      9.237
REMARK  4 active torsions:
REMARK  status: ('A' for Active; 'I' for Inactive)
REMARK    1  A    between atoms: C_2  and  C_4 
REMARK    2  A    between atoms: C_4  and  N_5 
REMARK       I    between atoms: N_5  and  C_6 
REMARK    3  A    between atoms: C_6  and  C_8 
REMARK    4  A    between atoms: C_8  and  C_9 
ROOT
HETATM    1  C   UNL     1     -42.908 -54.154  13.823  1.00  0.00     0.041 C 
HETATM    2  C   UNL     1     -41.622 -53.853  14.093  1.00  0.00     0.018 C 
HETATM    3  C   UNL     1     -40.837 -54.495  15.210  1.00  0.00     0.069 C 
HETATM    4  N   UNL     1     -40.889 -52.925  13.384  1.00  0.00    -0.349 N 
ATOM      5  HN  UNL     1     -39.908 -52.751  13.603  1.00  0.00     0.167 HD
HETATM    6  C   UNL     1     -41.482 -52.283  12.435  1.00  0.00     0.080 C 
HETATM    7  C   UNL     1     -40.762 -51.213  11.661  1.00  0.00     0.089 C 
HETATM    8  N   UNL     1     -42.774 -52.511  12.068  1.00  0.00    -0.313 N 
HETATM    9  C   UNL     1     -43.513 -53.502  12.635  1.00  0.00     0.255 C 
HETATM   10  O   UNL     1     -44.609 -53.838  12.197  1.00  0.00    -0.268 OA
HETATM   11  H   UNL     1     -43.179 -52.047  11.269  1.00  0.00     0.170 HD
ENDROOT
BRANCH   1  12
HETATM   12  C   UNL     1     -43.825 -55.037  14.615  1.00  0.00     0.149 C 
BRANCH  12  13
HETATM   13  C   UNL     1     -44.635 -54.227  15.609  1.00  0.00     0.222 C 
HETATM   14  N   UNL     1     -45.850 -53.794  15.130  1.00  0.00    -0.360 N 
HETATM   15  H   UNL     1     -46.169 -54.139  14.229  1.00  0.00     0.162 HD
HETATM   16  O   UNL     1     -44.226 -53.988  16.742  1.00  0.00    -0.273 OA
BRANCH  14  17
HETATM   17  C   UNL     1     -46.759 -52.995  15.926  1.00  0.00     0.126 C 
BRANCH  17  18
HETATM   18  C   UNL     1     -46.767 -51.514  15.513  1.00  0.00    -0.005 C 
HETATM   19  C   UNL     1     -45.688 -50.717  16.251  1.00  0.00     0.011 C 
HETATM   20  C   UNL     1     -46.556 -51.391  14.001  1.00  0.00     0.011 C 
ENDBRANCH  17  18
ENDBRANCH  14  17
ENDBRANCH  12  13
ENDBRANCH   1  12
TORSDOF 4
ENDMDL
MODEL 3
REMARK VINA RESULT:      -5.4      6.800      8.764
REMARK  4 active torsions:
REMARK  status: ('A' for Active; 'I' for Inactive)
REMARK    1  A    between atoms: C_2  and  C_4 
REMARK    2  A    between atoms: C_4  and  N_5 
REMARK       I    between atoms: N_5  and  C_6 
REMARK    3  A    between atoms: C_6  and  C_8 
REMARK    4  A    between atoms: C_8  and  C_9 
ROOT
HETATM    1  C   UNL     1     -45.631 -53.383  13.903  1.00  0.00     0.041 C 
HETATM    2  C   UNL     1     -46.368 -52.294  13.605  1.00  0.00     0.018 C 
HETATM    3  C   UNL     1     -46.585 -51.801  12.196  1.00  0.00     0.069 C 
HETATM    4  N   UNL     1     -46.996 -51.513  14.552  1.00  0.00    -0.349 N 
ATOM      5  HN  UNL     1     -47.571 -50.715  14.279  1.00  0.00     0.167 HD
HETATM    6  C   UNL     1     -46.835 -51.822  15.794  1.00  0.00     0.080 C 
HETATM    7  C   UNL     1     -47.440 -50.979  16.882  1.00  0.00     0.089 C 
HETATM    8  N   UNL     1     -46.122 -52.905  16.212  1.00  0.00    -0.313 N 
HETATM    9  C   UNL     1     -45.588 -53.792  15.329  1.00  0.00     0.255 C 
HETATM   10  O   UNL     1     -45.100 -54.860  15.684  1.00  0.00    -0.268 OA
HETATM   11  H   UNL     1     -46.085 -53.161  17.187  1.00  0.00     0.170 HD
ENDROOT
BRANCH   1  12
HETATM   12  C   UNL     1     -44.801 -54.209  12.967  1.00  0.00     0.149 C 
BRANCH  12  13
HETATM   13  C   UNL     1     -43.356 -53.750  12.973  1.00  0.00     0.222 C 
HETATM   14  N   UNL     1     -43.081 -52.733  12.088  1.00  0.00    -0.360 N 
HETATM   15  H   UNL     1     -43.855 -52.286  11.604  1.00  0.00     0.162 HD
HETATM   16  O   UNL     1     -42.516 -54.254  13.713  1.00  0.00    -0.273 OA
BRANCH  14  17
HETATM   17  C   UNL     1     -41.755 -52.170  11.940  1.00  0.00     0.126 C 
BRANCH  17  18
HETATM   18  C   UNL     1     -41.627 -50.774  12.570  1.00  0.00    -0.005 C 
HETATM   19  C   UNL     1     -40.946 -49.787  11.618  1.00  0.00     0.011 C 
HETATM   20  C   UNL     1     -43.011 -50.246  12.958  1.00  0.00     0.011 C 
ENDBRANCH  17  18
ENDBRANCH  14  17
ENDBRANCH  12  13
ENDBRANCH   1  12
TORSDOF 4
ENDMDL
MODEL 4
REMARK VINA RESULT:      -5.2      7.729      9.582
REMARK  4 active torsions:
REMARK  status: ('A' for Active; 'I' for Inactive)
REMARK    1  A    between atoms: C_2  and  C_4 
REMARK    2  A    between atoms: C_4  and  N_5 
REMARK       I    between atoms: N_5  and  C_6 
REMARK    3  A    between atoms: C_6  and  C_8 
REMARK    4  A    between atoms: C_8  and  C_9 
ROOT
HETATM    1  C   UNL     1     -44.748 -53.061  14.683  1.00  0.00     0.041 C 
HETATM    2  C   UNL     1     -44.388 -52.018  13.909  1.00  0.00     0.018 C 
HETATM    3  C   UNL     1     -43.134 -51.212  14.136  1.00  0.00     0.069 C 
HETATM    4  N   UNL     1     -45.127 -51.572  12.833  1.00  0.00    -0.349 N 
ATOM      5  HN  UNL     1     -44.800 -50.798  12.255  1.00  0.00     0.167 HD
HETATM    6  C   UNL     1     -46.245 -52.165  12.581  1.00  0.00     0.080 C 
HETATM    7  C   UNL     1     -47.132 -51.694  11.462  1.00  0.00     0.089 C 
HETATM    8  N   UNL     1     -46.704 -53.236  13.288  1.00  0.00    -0.313 N 
HETATM    9  C   UNL     1     -45.964 -53.809  14.276  1.00  0.00     0.255 C 
HETATM   10  O   UNL     1     -46.278 -54.873  14.798  1.00  0.00    -0.268 OA
HETATM   11  H   UNL     1     -47.542 -53.724  13.011  1.00  0.00     0.170 HD
ENDROOT
BRANCH   1  12
HETATM   12  C   UNL     1     -44.092 -53.531  15.947  1.00  0.00     0.149 C 
BRANCH  12  13
HETATM   13  C   UNL     1     -42.973 -54.510  15.645  1.00  0.00     0.222 C 
HETATM   14  N   UNL     1     -41.719 -53.943  15.609  1.00  0.00    -0.360 N 
HETATM   15  H   UNL     1     -41.614 -52.975  15.902  1.00  0.00     0.162 HD
HETATM   16  O   UNL     1     -43.186 -55.704  15.454  1.00  0.00    -0.273 OA
BRANCH  14  17
HETATM   17  C   UNL     1     -40.527 -54.713  15.323  1.00  0.00     0.126 C 
BRANCH  17  18
HETATM   18  C   UNL     1     -39.849 -54.294  14.009  1.00  0.00    -0.005 C 
HETATM   19  C   UNL     1     -40.869 -54.115  12.881  1.00  0.00     0.011 C 
HETATM   20  C   UNL     1     -39.071 -52.991  14.213  1.00  0.00     0.011 C 
ENDBRANCH  17  18
ENDBRANCH  14  17
ENDBRANCH  12  13
ENDBRANCH   1  12
TORSDOF 4
ENDMDL
MODEL 5
REMARK VINA RESULT:      -5.1      6.109      8.582
REMARK  4 active torsions:
REMARK  status: ('A' for Active; 'I' for Inactive)
REMARK    1  A    between atoms: C_2  and  C_4 
REMARK    2  A    between atoms: C_4  and  N_5 
REMARK       I    between atoms: N_5  and  C_6 
REMARK    3  A    between atoms: C_6  and  C_8 
REMARK    4  A    between atoms: C_8  and  C_9 
ROOT
HETATM    1  C   UNL     1     -40.535 -51.420  12.548  1.00  0.00     0.041 C 
HETATM    2  C   UNL     1     -40.748 -50.090  12.484  1.00  0.00     0.018 C 
HETATM    3  C   UNL     1     -41.988 -49.477  11.885  1.00  0.00     0.069 C 
HETATM    4  N   UNL     1     -39.856 -49.149  12.954  1.00  0.00    -0.349 N 
ATOM      5  HN  UNL     1     -40.072 -48.153  12.914  1.00  0.00     0.167 HD
HETATM    6  C   UNL     1     -38.739 -49.568  13.446  1.00  0.00     0.080 C 
HETATM    7  C   UNL     1     -37.693 -48.596  13.920  1.00  0.00     0.089 C 
HETATM    8  N   UNL     1     -38.420 -50.887  13.570  1.00  0.00    -0.313 N 
HETATM    9  C   UNL     1     -39.307 -51.868  13.250  1.00  0.00     0.255 C 
HETATM   10  O   UNL     1     -39.107 -53.048  13.522  1.00  0.00    -0.268 OA
HETATM   11  H   UNL     1     -37.573 -51.178  14.034  1.00  0.00     0.170 HD
ENDROOT
BRANCH   1  12
HETATM   12  C   UNL     1     -41.371 -52.509  11.946  1.00  0.00     0.149 C 
BRANCH  12  13
HETATM   13  C   UNL     1     -42.622 -52.751  12.770  1.00  0.00     0.222 C 
HETATM   14  N   UNL     1     -43.781 -52.822  12.031  1.00  0.00    -0.360 N 
HETATM   15  H   UNL     1     -43.712 -52.838  11.018  1.00  0.00     0.162 HD
HETATM   16  O   UNL     1     -42.584 -52.873  13.991  1.00  0.00    -0.273 OA
BRANCH  14  17
HETATM   17  C   UNL     1     -45.078 -53.035  12.640  1.00  0.00     0.126 C 
BRANCH  17  18
HETATM   18  C   UNL     1     -45.932 -51.757  12.682  1.00  0.00    -0.005 C 
HETATM   19  C   UNL     1     -47.048 -51.792  11.635  1.00  0.00     0.011 C 
HETATM   20  C   UNL     1     -46.536 -51.577  14.077  1.00  0.00     0.011 C 
ENDBRANCH  17  18
ENDBRANCH  14  17
ENDBRANCH  12  13
ENDBRANCH   1  12
TORSDOF 4
ENDMDL
MODEL 6
REMARK VINA RESULT:      -5.1      7.955      9.732
REMARK  4 active torsions:
REMARK  status: ('A' for Active; 'I' for Inactive)
REMARK    1  A    between atoms: C_2  and  C_4 
REMARK    2  A    between atoms: C_4  and  N_5 
REMARK       I    between atoms: N_5  and  C_6 
REMARK    3  A    between atoms: C_6  and  C_8 
REMARK    4  A    between atoms: C_8  and  C_9 
ROOT
HETATM    1  C   UNL     1     -45.542 -53.257  13.843  1.00  0.00     0.041 C 
HETATM    2  C   UNL     1     -46.346 -52.202  13.601  1.00  0.00     0.018 C 
HETATM    3  C   UNL     1     -46.601 -51.655  12.219  1.00  0.00     0.069 C 
HETATM    4  N   UNL     1     -47.014 -51.506  14.587  1.00  0.00    -0.349 N 
ATOM      5  HN  UNL     1     -47.637 -50.733  14.355  1.00  0.00     0.167 HD
HETATM    6  C   UNL     1     -46.826 -51.865  15.812  1.00  0.00     0.080 C 
HETATM    7  C   UNL     1     -47.474 -51.114  16.942  1.00  0.00     0.089 C 
HETATM    8  N   UNL     1     -46.046 -52.922  16.175  1.00  0.00    -0.313 N 
HETATM    9  C   UNL     1     -45.465 -53.730  15.248  1.00  0.00     0.255 C 
HETATM   10  O   UNL     1     -44.911 -54.783  15.549  1.00  0.00    -0.268 OA
HETATM   11  H   UNL     1     -45.988 -53.222  17.136  1.00  0.00     0.170 HD
ENDROOT
BRANCH   1  12
HETATM   12  C   UNL     1     -44.670 -53.985  12.865  1.00  0.00     0.149 C 
BRANCH  12  13
HETATM   13  C   UNL     1     -43.256 -53.437  12.886  1.00  0.00     0.222 C 
HETATM   14  N   UNL     1     -42.330 -54.282  13.455  1.00  0.00    -0.360 N 
HETATM   15  H   UNL     1     -42.616 -55.227  13.695  1.00  0.00     0.162 HD
HETATM   16  O   UNL     1     -42.979 -52.332  12.428  1.00  0.00    -0.273 OA
BRANCH  14  17
HETATM   17  C   UNL     1     -40.931 -53.929  13.579  1.00  0.00     0.126 C 
BRANCH  17  18
HETATM   18  C   UNL     1     -40.297 -54.459  14.876  1.00  0.00    -0.005 C 
HETATM   19  C   UNL     1     -39.439 -53.391  15.560  1.00  0.00     0.011 C 
HETATM   20  C   UNL     1     -41.389 -54.937  15.836  1.00  0.00     0.011 C 
ENDBRANCH  17  18
ENDBRANCH  14  17
ENDBRANCH  12  13
ENDBRANCH   1  12
TORSDOF 4
ENDMDL
MODEL 7
REMARK VINA RESULT:      -5.1      7.013      8.361
REMARK  4 active torsions:
REMARK  status: ('A' for Active; 'I' for Inactive)
REMARK    1  A    between atoms: C_2  and  C_4 
REMARK    2  A    between atoms: C_4  and  N_5 
REMARK       I    between atoms: N_5  and  C_6 
REMARK    3  A    between atoms: C_6  and  C_8 
REMARK    4  A    between atoms: C_8  and  C_9 
ROOT
HETATM    1  C   UNL     1     -41.905 -53.691  13.354  1.00  0.00     0.041 C 
HETATM    2  C   UNL     1     -42.920 -54.172  14.100  1.00  0.00     0.018 C 
HETATM    3  C   UNL     1     -42.728 -55.163  15.220  1.00  0.00     0.069 C 
HETATM    4  N   UNL     1     -44.240 -53.815  13.916  1.00  0.00    -0.349 N 
ATOM      5  HN  UNL     1     -44.972 -54.180  14.525  1.00  0.00     0.167 HD
HETATM    6  C   UNL     1     -44.518 -53.006  12.951  1.00  0.00     0.080 C 
HETATM    7  C   UNL     1     -45.942 -52.623  12.654  1.00  0.00     0.089 C 
HETATM    8  N   UNL     1     -43.574 -52.450  12.141  1.00  0.00    -0.313 N 
HETATM    9  C   UNL     1     -42.246 -52.653  12.349  1.00  0.00     0.255 C 
HETATM   10  O   UNL     1     -41.382 -52.023  11.747  1.00  0.00    -0.268 OA
HETATM   11  H   UNL     1     -43.822 -51.759  11.449  1.00  0.00     0.170 HD
ENDROOT
BRANCH   1  12
HETATM   12  C   UNL     1     -40.468 -54.118  13.383  1.00  0.00     0.149 C 
BRANCH  12  13
HETATM   13  C   UNL     1     -39.666 -53.260  14.343  1.00  0.00     0.222 C 
HETATM   14  N   UNL     1     -39.105 -52.142  13.770  1.00  0.00    -0.360 N 
HETATM   15  H   UNL     1     -39.360 -51.904  12.816  1.00  0.00     0.162 HD
HETATM   16  O   UNL     1     -39.539 -53.553  15.529  1.00  0.00    -0.273 OA
BRANCH  14  17
HETATM   17  C   UNL     1     -38.293 -51.208  14.522  1.00  0.00     0.126 C 
BRANCH  17  18
HETATM   18  C   UNL     1     -37.494 -50.254  13.620  1.00  0.00    -0.005 C 
HETATM   19  C   UNL     1     -37.491 -50.725  12.164  1.00  0.00     0.011 C 
HETATM   20  C   UNL     1     -38.077 -48.841  13.705  1.00  0.00     0.011 C 
ENDBRANCH  17  18
ENDBRANCH  14  17
ENDBRANCH  12  13
ENDBRANCH   1  12
TORSDOF 4
ENDMDL
MODEL 8
REMARK VINA RESULT:      -5.1      6.462      8.778
REMARK  4 active torsions:
REMARK  status: ('A' for Active; 'I' for Inactive)
REMARK    1  A    between atoms: C_2  and  C_4 
REMARK    2  A    between atoms: C_4  and  N_5 
REMARK       I    between atoms: N_5  and  C_6 
REMARK    3  A    between atoms: C_6  and  C_8 
REMARK    4  A    between atoms: C_8  and  C_9 
ROOT
HETATM    1  C   UNL     1     -41.522 -53.651  13.045  1.00  0.00     0.041 C 
HETATM    2  C   UNL     1     -42.756 -54.022  13.441  1.00  0.00     0.018 C 
HETATM    3  C   UNL     1     -44.003 -53.736  12.643  1.00  0.00     0.069 C 
HETATM    4  N   UNL     1     -43.012 -54.695  14.617  1.00  0.00    -0.349 N 
ATOM      5  HN  UNL     1     -43.959 -54.985  14.863  1.00  0.00     0.167 HD
HETATM    6  C   UNL     1     -42.016 -54.948  15.398  1.00  0.00     0.080 C 
HETATM    7  C   UNL     1     -42.229 -55.623  16.724  1.00  0.00     0.089 C 
HETATM    8  N   UNL     1     -40.725 -54.629  15.096  1.00  0.00    -0.313 N 
HETATM    9  C   UNL     1     -40.387 -54.085  13.897  1.00  0.00     0.255 C 
HETATM   10  O   UNL     1     -39.220 -53.958  13.538  1.00  0.00    -0.268 OA
HETATM   11  H   UNL     1     -39.964 -54.915  15.694  1.00  0.00     0.170 HD
ENDROOT
BRANCH   1  12
HETATM   12  C   UNL     1     -41.158 -52.801  11.864  1.00  0.00     0.149 C 
BRANCH  12  13
HETATM   13  C   UNL     1     -40.925 -51.362  12.282  1.00  0.00     0.222 C 
HETATM   14  N   UNL     1     -40.048 -50.673  11.475  1.00  0.00    -0.360 N 
HETATM   15  H   UNL     1     -39.729 -51.113  10.616  1.00  0.00     0.162 HD
HETATM   16  O   UNL     1     -41.481 -50.869  13.259  1.00  0.00    -0.273 OA
BRANCH  14  17
HETATM   17  C   UNL     1     -39.688 -49.293  11.721  1.00  0.00     0.126 C 
BRANCH  17  18
HETATM   18  C   UNL     1     -38.190 -49.112  12.018  1.00  0.00    -0.005 C 
HETATM   19  C   UNL     1     -37.881 -49.326  13.501  1.00  0.00     0.011 C 
HETATM   20  C   UNL     1     -37.368 -50.087  11.172  1.00  0.00     0.011 C 
ENDBRANCH  17  18
ENDBRANCH  14  17
ENDBRANCH  12  13
ENDBRANCH   1  12
TORSDOF 4
ENDMDL
MODEL 9
REMARK VINA RESULT:      -5.0      4.690      7.706
REMARK  4 active torsions:
REMARK  status: ('A' for Active; 'I' for Inactive)
REMARK    1  A    between atoms: C_2  and  C_4 
REMARK    2  A    between atoms: C_4  and  N_5 
REMARK       I    between atoms: N_5  and  C_6 
REMARK    3  A    between atoms: C_6  and  C_8 
REMARK    4  A    between atoms: C_8  and  C_9 
ROOT
HETATM    1  C   UNL     1     -41.206 -49.948  12.584  1.00  0.00     0.041 C 
HETATM    2  C   UNL     1     -42.464 -49.468  12.657  1.00  0.00     0.018 C 
HETATM    3  C   UNL     1     -43.393 -49.751  13.811  1.00  0.00     0.069 C 
HETATM    4  N   UNL     1     -43.037 -48.674  11.686  1.00  0.00    -0.349 N 
ATOM      5  HN  UNL     1     -43.982 -48.306  11.798  1.00  0.00     0.167 HD
HETATM    6  C   UNL     1     -42.341 -48.410  10.633  1.00  0.00     0.080 C 
HETATM    7  C   UNL     1     -42.924 -47.602   9.506  1.00  0.00     0.089 C 
HETATM    8  N   UNL     1     -41.057 -48.832  10.455  1.00  0.00    -0.313 N 
HETATM    9  C   UNL     1     -40.387 -49.505  11.429  1.00  0.00     0.255 C 
HETATM   10  O   UNL     1     -39.184 -49.735  11.360  1.00  0.00    -0.268 OA
HETATM   11  H   UNL     1     -40.517 -48.538   9.656  1.00  0.00     0.170 HD
ENDROOT
BRANCH   1  12
HETATM   12  C   UNL     1     -40.545 -50.924  13.511  1.00  0.00     0.149 C 
BRANCH  12  13
HETATM   13  C   UNL     1     -40.926 -52.349  13.160  1.00  0.00     0.222 C 
HETATM   14  N   UNL     1     -41.765 -52.952  14.069  1.00  0.00    -0.360 N 
HETATM   15  H   UNL     1     -42.162 -52.387  14.814  1.00  0.00     0.162 HD
HETATM   16  O   UNL     1     -40.513 -52.903  12.145  1.00  0.00    -0.273 OA
BRANCH  14  17
HETATM   17  C   UNL     1     -42.228 -54.315  13.914  1.00  0.00     0.126 C 
BRANCH  17  18
HETATM   18  C   UNL     1     -43.761 -54.422  13.870  1.00  0.00    -0.005 C 
HETATM   19  C   UNL     1     -44.405 -53.790  15.106  1.00  0.00     0.011 C 
HETATM   20  C   UNL     1     -44.297 -53.745  12.605  1.00  0.00     0.011 C 
ENDBRANCH  17  18
ENDBRANCH  14  17
ENDBRANCH  12  13
ENDBRANCH   1  12
TORSDOF 4
ENDMDL
