MODEL 1
REMARK VINA RESULT:      -5.3      0.000      0.000
REMARK  7 active torsions:
REMARK  status: ('A' for Active; 'I' for Inactive)
REMARK    1  A    between atoms: C_2  and  C_3 
REMARK    2  A    between atoms: C_2  and  C_6 
REMARK    3  A    between atoms: C_3  and  C_4 
REMARK    4  A    between atoms: C_4  and  O_5 
REMARK    5  A    between atoms: C_6  and  N_7 
REMARK       I    between atoms: N_7  and  C_8 
REMARK    6  A    between atoms: C_8  and  C_10 
REMARK    7  A    between atoms: C_10  and  N_11 
ROOT
HETATM    1  N   UNL     1     -45.484 -53.861  15.264  1.00  0.00    -0.359 N 
HETATM    2  C   UNL     1     -44.893 -54.760  14.391  1.00  0.00     0.237 C 
HETATM    3  O   UNL     1     -45.398 -55.088  13.320  1.00  0.00    -0.272 OA
HETATM    4  H   UNL     1     -45.146 -53.898  16.224  1.00  0.00     0.162 HD
ENDROOT
BRANCH   2   5
HETATM    5  C   UNL     1     -43.545 -55.285  14.823  1.00  0.00     0.251 C 
BRANCH   5   6
HETATM    6  N   UNL     1     -42.475 -54.452  14.306  1.00  0.00    -0.286 N 
HETATM    7  N   UNL     1     -42.731 -53.679  13.226  1.00  0.00    -0.301 N 
HETATM    8  C   UNL     1     -41.562 -53.068  12.984  1.00  0.00     0.045 A 
ATOM      9  HN  UNL     1     -43.608 -53.582  12.715  1.00  0.00     0.187 HD
HETATM   10  C   UNL     1     -41.421 -52.148  11.830  1.00  0.00     0.071 C 
HETATM   11  C   UNL     1     -40.585 -53.418  13.944  1.00  0.00     0.081 A 
HETATM   12 CL   UNL     1     -38.995 -52.829  14.014  1.00  0.00    -0.080 Cl
HETATM   13  C   UNL     1     -41.196 -54.319  14.787  1.00  0.00     0.049 A 
HETATM   14  C   UNL     1     -40.687 -55.041  15.981  1.00  0.00     0.072 C 
ENDBRANCH   5   6
ENDBRANCH   2   5
BRANCH   1  15
HETATM   15  C   UNL     1     -46.828 -53.379  15.011  1.00  0.00     0.127 C 
BRANCH  15  16
HETATM   16  C   UNL     1     -46.907 -51.854  14.841  1.00  0.00     0.001 C 
HETATM   17  C   UNL     1     -46.441 -51.169  16.131  1.00  0.00     0.011 C 
BRANCH  16  18
HETATM   18  C   UNL     1     -46.143 -51.317  13.616  1.00  0.00     0.032 C 
BRANCH  18  19
HETATM   19  C   UNL     1     -46.527 -51.943  12.279  1.00  0.00     0.164 C 
BRANCH  19  20
HETATM   20  O   UNL     1     -45.434 -52.700  11.777  1.00  0.00    -0.401 OA
HETATM   21  H   UNL     1     -45.434 -52.611  10.809  1.00  0.00     0.209 HD
ENDBRANCH  19  20
ENDBRANCH  18  19
ENDBRANCH  16  18
ENDBRANCH  15  16
ENDBRANCH   1  15
TORSDOF 7
ENDMDL
MODEL 2
REMARK VINA RESULT:      -5.1      4.415      5.910
REMARK  7 active torsions:
REMARK  status: ('A' for Active; 'I' for Inactive)
REMARK    1  A    between atoms: C_2  and  C_3 
REMARK    2  A    between atoms: C_2  and  C_6 
REMARK    3  A    between atoms: C_3  and  C_4 
REMARK    4  A    between atoms: C_4  and  O_5 
REMARK    5  A    between atoms: C_6  and  N_7 
REMARK       I    between atoms: N_7  and  C_8 
REMARK    6  A    between atoms: C_8  and  C_10 
REMARK    7  A    between atoms: C_10  and  N_11 
ROOT
HETATM    1  N   UNL     1     -42.461 -48.227  10.269  1.00  0.00    -0.359 N 
HETATM    2  C   UNL     1     -41.986 -49.021  11.301  1.00  0.00     0.237 C 
HETATM    3  O   UNL     1     -42.640 -49.276  12.309  1.00  0.00    -0.272 OA
HETATM    4  H   UNL     1     -41.749 -47.842   9.652  1.00  0.00     0.162 HD
ENDROOT
BRANCH   2   5
HETATM    5  C   UNL     1     -40.609 -49.603  11.083  1.00  0.00     0.251 C 
BRANCH   5   6
HETATM    6  N   UNL     1     -40.385 -50.743  11.952  1.00  0.00    -0.286 N 
HETATM    7  N   UNL     1     -41.047 -51.892  11.685  1.00  0.00    -0.301 N 
HETATM    8  C   UNL     1     -40.655 -52.723  12.661  1.00  0.00     0.045 A 
ATOM      9  HN  UNL     1     -41.694 -52.082  10.920  1.00  0.00     0.187 HD
HETATM   10  C   UNL     1     -41.203 -54.099  12.740  1.00  0.00     0.071 C 
HETATM   11  C   UNL     1     -39.705 -52.113  13.512  1.00  0.00     0.081 A 
HETATM   12 CL   UNL     1     -38.934 -52.841  14.837  1.00  0.00    -0.080 Cl
HETATM   13  C   UNL     1     -39.549 -50.830  13.038  1.00  0.00     0.049 A 
HETATM   14  C   UNL     1     -38.695 -49.710  13.509  1.00  0.00     0.072 C 
ENDBRANCH   5   6
ENDBRANCH   2   5
BRANCH   1  15
HETATM   15  C   UNL     1     -43.720 -47.523  10.414  1.00  0.00     0.127 C 
BRANCH  15  16
HETATM   16  C   UNL     1     -44.278 -46.989   9.086  1.00  0.00     0.001 C 
HETATM   17  C   UNL     1     -43.589 -47.704   7.917  1.00  0.00     0.011 C 
BRANCH  16  18
HETATM   18  C   UNL     1     -45.811 -47.074   8.968  1.00  0.00     0.032 C 
BRANCH  18  19
HETATM   19  C   UNL     1     -46.377 -48.479   8.782  1.00  0.00     0.164 C 
BRANCH  19  20
HETATM   20  O   UNL     1     -46.678 -48.693   7.410  1.00  0.00    -0.401 OA
HETATM   21  H   UNL     1     -46.904 -49.633   7.302  1.00  0.00     0.209 HD
ENDBRANCH  19  20
ENDBRANCH  18  19
ENDBRANCH  16  18
ENDBRANCH  15  16
ENDBRANCH   1  15
TORSDOF 7
ENDMDL
MODEL 3
REMARK VINA RESULT:      -5.1      4.355      6.051
REMARK  7 active torsions:
REMARK  status: ('A' for Active; 'I' for Inactive)
REMARK    1  A    between atoms: C_2  and  C_3 
REMARK    2  A    between atoms: C_2  and  C_6 
REMARK    3  A    between atoms: C_3  and  C_4 
REMARK    4  A    between atoms: C_4  and  O_5 
REMARK    5  A    between atoms: C_6  and  N_7 
REMARK       I    between atoms: N_7  and  C_8 
REMARK    6  A    between atoms: C_8  and  C_10 
REMARK    7  A    between atoms: C_10  and  N_11 
ROOT
HETATM    1  N   UNL     1     -42.326 -48.679  10.702  1.00  0.00    -0.359 N 
HETATM    2  C   UNL     1     -42.300 -49.081  12.028  1.00  0.00     0.237 C 
HETATM    3  O   UNL     1     -42.635 -48.351  12.958  1.00  0.00    -0.272 OA
HETATM    4  H   UNL     1     -41.755 -49.234  10.067  1.00  0.00     0.162 HD
ENDROOT
BRANCH   2   5
HETATM    5  C   UNL     1     -41.875 -50.511  12.259  1.00  0.00     0.251 C 
BRANCH   5   6
HETATM    6  N   UNL     1     -42.999 -51.324  12.685  1.00  0.00    -0.286 N 
HETATM    7  N   UNL     1     -44.210 -50.732  12.800  1.00  0.00    -0.301 N 
HETATM    8  C   UNL     1     -45.010 -51.719  13.229  1.00  0.00     0.045 A 
ATOM      9  HN  UNL     1     -44.457 -49.762  12.606  1.00  0.00     0.187 HD
HETATM   10  C   UNL     1     -46.440 -51.453  13.518  1.00  0.00     0.071 C 
HETATM   11  C   UNL     1     -44.313 -52.945  13.333  1.00  0.00     0.081 A 
HETATM   12 CL   UNL     1     -44.976 -54.436  13.798  1.00  0.00    -0.080 Cl
HETATM   13  C   UNL     1     -43.012 -52.664  12.981  1.00  0.00     0.049 A 
HETATM   14  C   UNL     1     -41.812 -53.536  12.898  1.00  0.00     0.072 C 
ENDBRANCH   5   6
ENDBRANCH   2   5
BRANCH   1  15
HETATM   15  C   UNL     1     -42.608 -47.297  10.366  1.00  0.00     0.127 C 
BRANCH  15  16
HETATM   16  C   UNL     1     -43.770 -47.134   9.375  1.00  0.00     0.001 C 
HETATM   17  C   UNL     1     -43.373 -47.728   8.018  1.00  0.00     0.011 C 
BRANCH  16  18
HETATM   18  C   UNL     1     -45.107 -47.717   9.871  1.00  0.00     0.032 C 
BRANCH  18  19
HETATM   19  C   UNL     1     -46.165 -47.939   8.794  1.00  0.00     0.164 C 
BRANCH  19  20
HETATM   20  O   UNL     1     -46.814 -46.708   8.505  1.00  0.00    -0.401 OA
HETATM   21  H   UNL     1     -46.902 -46.643   7.539  1.00  0.00     0.209 HD
ENDBRANCH  19  20
ENDBRANCH  18  19
ENDBRANCH  16  18
ENDBRANCH  15  16
ENDBRANCH   1  15
TORSDOF 7
ENDMDL
MODEL 4
REMARK VINA RESULT:      -5.1      3.596      6.225
REMARK  7 active torsions:
REMARK  status: ('A' for Active; 'I' for Inactive)
REMARK    1  A    between atoms: C_2  and  C_3 
REMARK    2  A    between atoms: C_2  and  C_6 
REMARK    3  A    between atoms: C_3  and  C_4 
REMARK    4  A    between atoms: C_4  and  O_5 
REMARK    5  A    between atoms: C_6  and  N_7 
REMARK       I    between atoms: N_7  and  C_8 
REMARK    6  A    between atoms: C_8  and  C_10 
REMARK    7  A    between atoms: C_10  and  N_11 
ROOT
HETATM    1  N   UNL     1     -40.572 -50.961  11.390  1.00  0.00    -0.359 N 
HETATM    2  C   UNL     1     -41.504 -51.278  12.364  1.00  0.00     0.237 C 
HETATM    3  O   UNL     1     -42.142 -50.432  12.986  1.00  0.00    -0.272 OA
HETATM    4  H   UNL     1     -39.904 -51.697  11.168  1.00  0.00     0.162 HD
ENDROOT
BRANCH   2   5
HETATM    5  C   UNL     1     -41.727 -52.756  12.584  1.00  0.00     0.251 C 
BRANCH   5   6
HETATM    6  N   UNL     1     -43.119 -53.031  12.886  1.00  0.00    -0.286 N 
HETATM    7  N   UNL     1     -44.069 -52.334  12.220  1.00  0.00    -0.301 N 
HETATM    8  C   UNL     1     -45.221 -52.789  12.733  1.00  0.00     0.045 A 
ATOM      9  HN  UNL     1     -43.939 -51.628  11.496  1.00  0.00     0.187 HD
HETATM   10  C   UNL     1     -46.517 -52.230  12.280  1.00  0.00     0.071 C 
HETATM   11  C   UNL     1     -44.997 -53.810  13.686  1.00  0.00     0.081 A 
HETATM   12 CL   UNL     1     -46.192 -54.670  14.530  1.00  0.00    -0.080 Cl
HETATM   13  C   UNL     1     -43.630 -53.946  13.773  1.00  0.00     0.049 A 
HETATM   14  C   UNL     1     -42.788 -54.849  14.598  1.00  0.00     0.072 C 
ENDBRANCH   5   6
ENDBRANCH   2   5
BRANCH   1  15
HETATM   15  C   UNL     1     -40.191 -49.580  11.171  1.00  0.00     0.127 C 
BRANCH  15  16
HETATM   16  C   UNL     1     -38.810 -49.227  11.746  1.00  0.00     0.001 C 
HETATM   17  C   UNL     1     -38.973 -48.686  13.171  1.00  0.00     0.011 C 
BRANCH  16  18
HETATM   18  C   UNL     1     -37.795 -50.385  11.700  1.00  0.00     0.032 C 
BRANCH  18  19
HETATM   19  C   UNL     1     -37.467 -51.022  13.046  1.00  0.00     0.164 C 
BRANCH  19  20
HETATM   20  O   UNL     1     -38.244 -52.199  13.217  1.00  0.00    -0.401 OA
HETATM   21  H   UNL     1     -38.113 -52.755  12.430  1.00  0.00     0.209 HD
ENDBRANCH  19  20
ENDBRANCH  18  19
ENDBRANCH  16  18
ENDBRANCH  15  16
ENDBRANCH   1  15
TORSDOF 7
ENDMDL
MODEL 5
REMARK VINA RESULT:      -5.0      4.007      5.531
REMARK  7 active torsions:
REMARK  status: ('A' for Active; 'I' for Inactive)
REMARK    1  A    between atoms: C_2  and  C_3 
REMARK    2  A    between atoms: C_2  and  C_6 
REMARK    3  A    between atoms: C_3  and  C_4 
REMARK    4  A    between atoms: C_4  and  O_5 
REMARK    5  A    between atoms: C_6  and  N_7 
REMARK       I    between atoms: N_7  and  C_8 
REMARK    6  A    between atoms: C_8  and  C_10 
REMARK    7  A    between atoms: C_10  and  N_11 
ROOT
HETATM    1  N   UNL     1     -41.112 -49.759  10.744  1.00  0.00    -0.359 N 
HETATM    2  C   UNL     1     -41.157 -50.507  11.909  1.00  0.00     0.237 C 
HETATM    3  O   UNL     1     -41.467 -50.035  13.000  1.00  0.00    -0.272 OA
HETATM    4  H   UNL     1     -40.564 -50.162   9.987  1.00  0.00     0.162 HD
ENDROOT
BRANCH   2   5
HETATM    5  C   UNL     1     -40.844 -51.976  11.742  1.00  0.00     0.251 C 
BRANCH   5   6
HETATM    6  N   UNL     1     -41.801 -52.794  12.461  1.00  0.00    -0.286 N 
HETATM    7  N   UNL     1     -43.109 -52.691  12.131  1.00  0.00    -0.301 N 
HETATM    8  C   UNL     1     -43.722 -53.533  12.975  1.00  0.00     0.045 A 
ATOM      9  HN  UNL     1     -43.531 -52.108  11.408  1.00  0.00     0.187 HD
HETATM   10  C   UNL     1     -45.198 -53.675  12.953  1.00  0.00     0.071 C 
HETATM   11  C   UNL     1     -42.794 -54.206  13.802  1.00  0.00     0.081 A 
HETATM   12 CL   UNL     1     -43.162 -55.381  14.970  1.00  0.00    -0.080 Cl
HETATM   13  C   UNL     1     -41.557 -53.709  13.456  1.00  0.00     0.049 A 
HETATM   14  C   UNL     1     -40.199 -54.021  13.970  1.00  0.00     0.072 C 
ENDBRANCH   5   6
ENDBRANCH   2   5
BRANCH   1  15
HETATM   15  C   UNL     1     -41.282 -48.320  10.797  1.00  0.00     0.127 C 
BRANCH  15  16
HETATM   16  C   UNL     1     -42.744 -47.871  10.645  1.00  0.00     0.001 C 
HETATM   17  C   UNL     1     -43.190 -47.142  11.917  1.00  0.00     0.011 C 
BRANCH  16  18
HETATM   18  C   UNL     1     -43.013 -47.021   9.389  1.00  0.00     0.032 C 
BRANCH  18  19
HETATM   19  C   UNL     1     -43.524 -47.791   8.175  1.00  0.00     0.164 C 
BRANCH  19  20
HETATM   20  O   UNL     1     -42.991 -47.217   6.989  1.00  0.00    -0.401 OA
HETATM   21  H   UNL     1     -42.078 -47.537   6.893  1.00  0.00     0.209 HD
ENDBRANCH  19  20
ENDBRANCH  18  19
ENDBRANCH  16  18
ENDBRANCH  15  16
ENDBRANCH   1  15
TORSDOF 7
ENDMDL
MODEL 6
REMARK VINA RESULT:      -4.9      1.605      2.979
REMARK  7 active torsions:
REMARK  status: ('A' for Active; 'I' for Inactive)
REMARK    1  A    between atoms: C_2  and  C_3 
REMARK    2  A    between atoms: C_2  and  C_6 
REMARK    3  A    between atoms: C_3  and  C_4 
REMARK    4  A    between atoms: C_4  and  O_5 
REMARK    5  A    between atoms: C_6  and  N_7 
REMARK       I    between atoms: N_7  and  C_8 
REMARK    6  A    between atoms: C_8  and  C_10 
REMARK    7  A    between atoms: C_10  and  N_11 
ROOT
HETATM    1  N   UNL     1     -45.499 -51.717  13.541  1.00  0.00    -0.359 N 
HETATM    2  C   UNL     1     -45.260 -52.982  13.030  1.00  0.00     0.237 C 
HETATM    3  O   UNL     1     -46.078 -53.897  13.088  1.00  0.00    -0.272 OA
HETATM    4  H   UNL     1     -44.670 -51.150  13.710  1.00  0.00     0.162 HD
ENDROOT
BRANCH   2   5
HETATM    5  C   UNL     1     -43.927 -53.155  12.341  1.00  0.00     0.251 C 
BRANCH   5   6
HETATM    6  N   UNL     1     -42.940 -53.702  13.252  1.00  0.00    -0.286 N 
HETATM    7  N   UNL     1     -43.372 -54.470  14.279  1.00  0.00    -0.301 N 
HETATM    8  C   UNL     1     -42.248 -54.790  14.937  1.00  0.00     0.045 A 
ATOM      9  HN  UNL     1     -44.329 -54.742  14.502  1.00  0.00     0.187 HD
HETATM   10  C   UNL     1     -42.309 -55.607  16.173  1.00  0.00     0.071 C 
HETATM   11  C   UNL     1     -41.103 -54.267  14.293  1.00  0.00     0.081 A 
HETATM   12 CL   UNL     1     -39.493 -54.483  14.783  1.00  0.00    -0.080 Cl
HETATM   13  C   UNL     1     -41.575 -53.562  13.209  1.00  0.00     0.049 A 
HETATM   14  C   UNL     1     -40.861 -52.792  12.158  1.00  0.00     0.072 C 
ENDBRANCH   5   6
ENDBRANCH   2   5
BRANCH   1  15
HETATM   15  C   UNL     1     -46.694 -51.463  14.322  1.00  0.00     0.127 C 
BRANCH  15  16
HETATM   16  C   UNL     1     -46.411 -51.236  15.815  1.00  0.00     0.001 C 
HETATM   17  C   UNL     1     -47.728 -51.287  16.599  1.00  0.00     0.011 C 
BRANCH  16  18
HETATM   18  C   UNL     1     -45.368 -52.199  16.412  1.00  0.00     0.032 C 
BRANCH  18  19
HETATM   19  C   UNL     1     -45.929 -53.490  17.001  1.00  0.00     0.164 C 
BRANCH  19  20
HETATM   20  O   UNL     1     -45.786 -54.544  16.059  1.00  0.00    -0.401 OA
HETATM   21  H   UNL     1     -46.615 -55.053  16.059  1.00  0.00     0.209 HD
ENDBRANCH  19  20
ENDBRANCH  18  19
ENDBRANCH  16  18
ENDBRANCH  15  16
ENDBRANCH   1  15
TORSDOF 7
ENDMDL
MODEL 7
REMARK VINA RESULT:      -4.8      4.968      6.574
REMARK  7 active torsions:
REMARK  status: ('A' for Active; 'I' for Inactive)
REMARK    1  A    between atoms: C_2  and  C_3 
REMARK    2  A    between atoms: C_2  and  C_6 
REMARK    3  A    between atoms: C_3  and  C_4 
REMARK    4  A    between atoms: C_4  and  O_5 
REMARK    5  A    between atoms: C_6  and  N_7 
REMARK       I    between atoms: N_7  and  C_8 
REMARK    6  A    between atoms: C_8  and  C_10 
REMARK    7  A    between atoms: C_10  and  N_11 
ROOT
HETATM    1  N   UNL     1     -42.110 -48.350   9.832  1.00  0.00    -0.359 N 
HETATM    2  C   UNL     1     -41.800 -48.817  11.099  1.00  0.00     0.237 C 
HETATM    3  O   UNL     1     -42.562 -48.716  12.058  1.00  0.00    -0.272 OA
HETATM    4  H   UNL     1     -41.315 -48.212   9.211  1.00  0.00     0.162 HD
ENDROOT
BRANCH   2   5
HETATM    5  C   UNL     1     -40.466 -49.514  11.219  1.00  0.00     0.251 C 
BRANCH   5   6
HETATM    6  N   UNL     1     -40.601 -50.775  11.923  1.00  0.00    -0.286 N 
HETATM    7  N   UNL     1     -41.778 -51.435  11.835  1.00  0.00    -0.301 N 
HETATM    8  C   UNL     1     -41.597 -52.521  12.599  1.00  0.00     0.045 A 
ATOM      9  HN  UNL     1     -42.611 -51.168  11.310  1.00  0.00     0.187 HD
HETATM   10  C   UNL     1     -42.698 -53.495  12.793  1.00  0.00     0.071 C 
HETATM   11  C   UNL     1     -40.286 -52.571  13.127  1.00  0.00     0.081 A 
HETATM   12 CL   UNL     1     -39.647 -53.802  14.104  1.00  0.00    -0.080 Cl
HETATM   13  C   UNL     1     -39.661 -51.428  12.681  1.00  0.00     0.049 A 
HETATM   14  C   UNL     1     -38.283 -50.919  12.900  1.00  0.00     0.072 C 
ENDBRANCH   5   6
ENDBRANCH   2   5
BRANCH   1  15
HETATM   15  C   UNL     1     -43.311 -47.566   9.619  1.00  0.00     0.127 C 
BRANCH  15  16
HETATM   16  C   UNL     1     -43.044 -46.057   9.511  1.00  0.00     0.001 C 
HETATM   17  C   UNL     1     -44.300 -45.351   8.986  1.00  0.00     0.011 C 
BRANCH  16  18
HETATM   18  C   UNL     1     -42.545 -45.411  10.818  1.00  0.00     0.032 C 
BRANCH  18  19
HETATM   19  C   UNL     1     -41.088 -44.959  10.810  1.00  0.00     0.164 C 
BRANCH  19  20
HETATM   20  O   UNL     1     -40.429 -45.500   9.674  1.00  0.00    -0.401 OA
HETATM   21  H   UNL     1     -40.606 -44.909   8.922  1.00  0.00     0.209 HD
ENDBRANCH  19  20
ENDBRANCH  18  19
ENDBRANCH  16  18
ENDBRANCH  15  16
ENDBRANCH   1  15
TORSDOF 7
ENDMDL
MODEL 8
REMARK VINA RESULT:      -4.8      1.478      2.021
REMARK  7 active torsions:
REMARK  status: ('A' for Active; 'I' for Inactive)
REMARK    1  A    between atoms: C_2  and  C_3 
REMARK    2  A    between atoms: C_2  and  C_6 
REMARK    3  A    between atoms: C_3  and  C_4 
REMARK    4  A    between atoms: C_4  and  O_5 
REMARK    5  A    between atoms: C_6  and  N_7 
REMARK       I    between atoms: N_7  and  C_8 
REMARK    6  A    between atoms: C_8  and  C_10 
REMARK    7  A    between atoms: C_10  and  N_11 
ROOT
HETATM    1  N   UNL     1     -45.702 -53.422  14.309  1.00  0.00    -0.359 N 
HETATM    2  C   UNL     1     -45.387 -53.392  12.960  1.00  0.00     0.237 C 
HETATM    3  O   UNL     1     -46.014 -52.728  12.138  1.00  0.00    -0.272 OA
HETATM    4  H   UNL     1     -45.328 -54.215  14.826  1.00  0.00     0.162 HD
ENDROOT
BRANCH   2   5
HETATM    5  C   UNL     1     -44.175 -54.200  12.564  1.00  0.00     0.251 C 
BRANCH   5   6
HETATM    6  N   UNL     1     -42.955 -53.445  12.778  1.00  0.00    -0.286 N 
HETATM    7  N   UNL     1     -42.684 -52.417  11.941  1.00  0.00    -0.301 N 
HETATM    8  C   UNL     1     -41.504 -51.951  12.375  1.00  0.00     0.045 A 
ATOM      9  HN  UNL     1     -43.245 -52.075  11.162  1.00  0.00     0.187 HD
HETATM   10  C   UNL     1     -40.838 -50.825  11.677  1.00  0.00     0.071 C 
HETATM   11  C   UNL     1     -41.058 -52.654  13.519  1.00  0.00     0.081 A 
HETATM   12 CL   UNL     1     -39.636 -52.344  14.392  1.00  0.00    -0.080 Cl
HETATM   13  C   UNL     1     -42.010 -53.619  13.758  1.00  0.00     0.049 A 
HETATM   14  C   UNL     1     -42.102 -54.662  14.812  1.00  0.00     0.072 C 
ENDBRANCH   5   6
ENDBRANCH   2   5
BRANCH   1  15
HETATM   15  C   UNL     1     -46.909 -52.778  14.788  1.00  0.00     0.127 C 
BRANCH  15  16
HETATM   16  C   UNL     1     -46.648 -51.432  15.483  1.00  0.00     0.001 C 
HETATM   17  C   UNL     1     -47.718 -51.194  16.555  1.00  0.00     0.011 C 
BRANCH  16  18
HETATM   18  C   UNL     1     -45.230 -51.290  16.067  1.00  0.00     0.032 C 
BRANCH  18  19
HETATM   19  C   UNL     1     -44.290 -50.375  15.288  1.00  0.00     0.164 C 
BRANCH  19  20
HETATM   20  O   UNL     1     -44.471 -50.583  13.894  1.00  0.00    -0.401 OA
HETATM   21  H   UNL     1     -45.422 -50.501  13.706  1.00  0.00     0.209 HD
ENDBRANCH  19  20
ENDBRANCH  18  19
ENDBRANCH  16  18
ENDBRANCH  15  16
ENDBRANCH   1  15
TORSDOF 7
ENDMDL
MODEL 9
REMARK VINA RESULT:      -4.8      2.816      3.930
REMARK  7 active torsions:
REMARK  status: ('A' for Active; 'I' for Inactive)
REMARK    1  A    between atoms: C_2  and  C_3 
REMARK    2  A    between atoms: C_2  and  C_6 
REMARK    3  A    between atoms: C_3  and  C_4 
REMARK    4  A    between atoms: C_4  and  O_5 
REMARK    5  A    between atoms: C_6  and  N_7 
REMARK       I    between atoms: N_7  and  C_8 
REMARK    6  A    between atoms: C_8  and  C_10 
REMARK    7  A    between atoms: C_10  and  N_11 
ROOT
HETATM    1  N   UNL     1     -43.999 -52.942  11.995  1.00  0.00    -0.359 N 
HETATM    2  C   UNL     1     -42.851 -52.576  12.680  1.00  0.00     0.237 C 
HETATM    3  O   UNL     1     -42.813 -52.433  13.900  1.00  0.00    -0.272 OA
HETATM    4  H   UNL     1     -43.996 -52.736  10.998  1.00  0.00     0.162 HD
ENDROOT
BRANCH   2   5
HETATM    5  C   UNL     1     -41.618 -52.409  11.825  1.00  0.00     0.251 C 
BRANCH   5   6
HETATM    6  N   UNL     1     -41.061 -51.077  11.974  1.00  0.00    -0.286 N 
HETATM    7  N   UNL     1     -41.635 -50.063  11.287  1.00  0.00    -0.301 N 
HETATM    8  C   UNL     1     -40.890 -48.995  11.608  1.00  0.00     0.045 A 
ATOM      9  HN  UNL     1     -42.445 -50.100  10.670  1.00  0.00     0.187 HD
HETATM   10  C   UNL     1     -41.184 -47.669  11.013  1.00  0.00     0.071 C 
HETATM   11  C   UNL     1     -39.879 -49.329  12.539  1.00  0.00     0.081 A 
HETATM   12 CL   UNL     1     -38.758 -48.256  13.226  1.00  0.00    -0.080 Cl
HETATM   13  C   UNL     1     -40.004 -50.682  12.756  1.00  0.00     0.049 A 
HETATM   14  C   UNL     1     -39.233 -51.608  13.625  1.00  0.00     0.072 C 
ENDBRANCH   5   6
ENDBRANCH   2   5
BRANCH   1  15
HETATM   15  C   UNL     1     -45.267 -53.021  12.692  1.00  0.00     0.127 C 
BRANCH  15  16
HETATM   16  C   UNL     1     -46.041 -51.693  12.705  1.00  0.00     0.001 C 
HETATM   17  C   UNL     1     -47.018 -51.658  11.524  1.00  0.00     0.011 C 
BRANCH  16  18
HETATM   18  C   UNL     1     -46.761 -51.398  14.035  1.00  0.00     0.032 C 
BRANCH  18  19
HETATM   19  C   UNL     1     -45.937 -51.646  15.295  1.00  0.00     0.164 C 
BRANCH  19  20
HETATM   20  O   UNL     1     -44.821 -50.767  15.314  1.00  0.00    -0.401 OA
HETATM   21  H   UNL     1     -44.041 -51.276  15.033  1.00  0.00     0.209 HD
ENDBRANCH  19  20
ENDBRANCH  18  19
ENDBRANCH  16  18
ENDBRANCH  15  16
ENDBRANCH   1  15
TORSDOF 7
ENDMDL
