MODEL 1
REMARK VINA RESULT:      -6.6      0.000      0.000
REMARK  5 active torsions:
REMARK  status: ('A' for Active; 'I' for Inactive)
REMARK    1  A    between atoms: C_2  and  C_4 
REMARK    2  A    between atoms: C_4  and  N_5 
REMARK    3  A    between atoms: C_9  and  C_10 
REMARK    4  A    between atoms: C_10  and  N_11 
REMARK       I    between atoms: N_11  and  C_12 
REMARK       I    between atoms: C_12  and  N_14 
REMARK    5  A    between atoms: N_14  and  C_15 
ROOT
HETATM    1  N   UNL     1     -40.277 -49.920  10.795  1.00  0.00    -0.340 N 
HETATM    2  C   UNL     1     -41.035 -48.779  10.882  1.00  0.00     0.322 C 
HETATM    3  O   UNL     1     -40.928 -48.019  11.835  1.00  0.00    -0.247 OA
HETATM    4  N   UNL     1     -41.868 -48.621   9.809  1.00  0.00    -0.288 N 
HETATM    5  H   UNL     1     -40.450 -50.608  10.076  1.00  0.00     0.164 HD
HETATM    6  H   UNL     1     -42.113 -49.429   9.259  1.00  0.00     0.172 HD
ENDROOT
BRANCH   1   7
HETATM    7  C   UNL     1     -39.358 -50.297  11.856  1.00  0.00     0.158 C 
BRANCH   7   8
HETATM    8  C   UNL     1     -39.910 -51.421  12.735  1.00  0.00     0.167 C 
HETATM    9  O   UNL     1     -38.808 -52.237  13.186  1.00  0.00    -0.381 OA
HETATM   10  C   UNL     1     -39.279 -53.274  14.061  1.00  0.00     0.198 C 
HETATM   11  C   UNL     1     -40.362 -54.143  13.392  1.00  0.00     0.298 C 
HETATM   12  N   UNL     1     -41.498 -53.374  12.836  1.00  0.00     0.093 N 
HETATM   13  C   UNL     1     -40.937 -52.298  11.986  1.00  0.00     0.305 C 
BRANCH  12  14
HETATM   14  C   UNL     1     -42.395 -52.875  13.894  1.00  0.00     0.276 C 
BRANCH  14  15
HETATM   15  C   UNL     1     -43.742 -53.629  13.981  1.00  0.00     0.006 C 
HETATM   16  C   UNL     1     -44.284 -53.972  12.593  1.00  0.00     0.011 C 
HETATM   17  C   UNL     1     -43.593 -54.896  14.824  1.00  0.00     0.011 C 
ENDBRANCH  14  15
ENDBRANCH  12  14
ENDBRANCH   7   8
ENDBRANCH   1   7
BRANCH   4  18
HETATM   18  C   UNL     1     -42.662 -47.519   9.590  1.00  0.00     0.168 A 
HETATM   19  N   UNL     1     -42.586 -46.429  10.322  1.00  0.00    -0.279 N 
HETATM   20  N   UNL     1     -43.484 -45.461   9.907  1.00  0.00    -0.303 N 
ATOM     21  HN  UNL     1     -41.941 -46.312  11.104  1.00  0.00     0.189 HD
HETATM   22  C   UNL     1     -44.226 -45.888   8.908  1.00  0.00     0.160 A 
ATOM     23  HN  UNL     1     -43.560 -44.533  10.324  1.00  0.00     0.186 HD
HETATM   24  S   UNL     1     -43.900 -47.491   8.414  1.00  0.00    -0.046 SA
ENDBRANCH   4  18
TORSDOF 5
ENDMDL
MODEL 2
REMARK VINA RESULT:      -6.5      2.247      2.884
REMARK  5 active torsions:
REMARK  status: ('A' for Active; 'I' for Inactive)
REMARK    1  A    between atoms: C_2  and  C_4 
REMARK    2  A    between atoms: C_4  and  N_5 
REMARK    3  A    between atoms: C_9  and  C_10 
REMARK    4  A    between atoms: C_10  and  N_11 
REMARK       I    between atoms: N_11  and  C_12 
REMARK       I    between atoms: C_12  and  N_14 
REMARK    5  A    between atoms: N_14  and  C_15 
ROOT
HETATM    1  N   UNL     1     -41.163 -51.474  11.395  1.00  0.00    -0.340 N 
HETATM    2  C   UNL     1     -41.035 -50.132  11.658  1.00  0.00     0.322 C 
HETATM    3  O   UNL     1     -40.548 -49.737  12.707  1.00  0.00    -0.247 OA
HETATM    4  N   UNL     1     -41.495 -49.353  10.632  1.00  0.00    -0.288 N 
HETATM    5  H   UNL     1     -41.674 -51.801  10.588  1.00  0.00     0.164 HD
HETATM    6  H   UNL     1     -42.150 -49.746   9.976  1.00  0.00     0.172 HD
ENDROOT
BRANCH   1   7
HETATM    7  C   UNL     1     -40.774 -52.474  12.375  1.00  0.00     0.158 C 
BRANCH   7   8
HETATM    8  C   UNL     1     -41.939 -52.891  13.276  1.00  0.00     0.167 C 
HETATM    9  O   UNL     1     -41.705 -54.239  13.737  1.00  0.00    -0.381 OA
HETATM   10  C   UNL     1     -42.750 -54.650  14.632  1.00  0.00     0.198 C 
HETATM   11  C   UNL     1     -44.143 -54.530  13.984  1.00  0.00     0.298 C 
HETATM   12  N   UNL     1     -44.436 -53.192  13.419  1.00  0.00     0.093 N 
HETATM   13  C   UNL     1     -43.298 -52.816  12.548  1.00  0.00     0.305 C 
BRANCH  12  14
HETATM   14  C   UNL     1     -44.718 -52.201  14.474  1.00  0.00     0.276 C 
BRANCH  14  15
HETATM   15  C   UNL     1     -46.004 -51.378  14.231  1.00  0.00     0.006 C 
HETATM   16  C   UNL     1     -46.584 -51.639  12.840  1.00  0.00     0.011 C 
HETATM   17  C   UNL     1     -47.045 -51.681  15.309  1.00  0.00     0.011 C 
ENDBRANCH  14  15
ENDBRANCH  12  14
ENDBRANCH   7   8
ENDBRANCH   1   7
BRANCH   4  18
HETATM   18  C   UNL     1     -41.395 -47.981  10.586  1.00  0.00     0.168 A 
HETATM   19  N   UNL     1     -40.243 -47.349  10.630  1.00  0.00    -0.279 N 
HETATM   20  N   UNL     1     -40.402 -45.974  10.568  1.00  0.00    -0.303 N 
ATOM     21  HN  UNL     1     -39.339 -47.815  10.702  1.00  0.00     0.189 HD
HETATM   22  C   UNL     1     -41.673 -45.638  10.526  1.00  0.00     0.160 A 
ATOM     23  HN  UNL     1     -39.630 -45.308  10.556  1.00  0.00     0.186 HD
HETATM   24  S   UNL     1     -42.760 -46.955  10.575  1.00  0.00    -0.046 SA
ENDBRANCH   4  18
TORSDOF 5
ENDMDL
MODEL 3
REMARK VINA RESULT:      -5.6      1.620      1.906
REMARK  5 active torsions:
REMARK  status: ('A' for Active; 'I' for Inactive)
REMARK    1  A    between atoms: C_2  and  C_4 
REMARK    2  A    between atoms: C_4  and  N_5 
REMARK    3  A    between atoms: C_9  and  C_10 
REMARK    4  A    between atoms: C_10  and  N_11 
REMARK       I    between atoms: N_11  and  C_12 
REMARK       I    between atoms: C_12  and  N_14 
REMARK    5  A    between atoms: N_14  and  C_15 
ROOT
HETATM    1  N   UNL     1     -39.802 -50.797  11.732  1.00  0.00    -0.340 N 
HETATM    2  C   UNL     1     -40.614 -49.692  11.800  1.00  0.00     0.322 C 
HETATM    3  O   UNL     1     -40.924 -49.200  12.876  1.00  0.00    -0.247 OA
HETATM    4  N   UNL     1     -40.992 -49.244  10.564  1.00  0.00    -0.288 N 
HETATM    5  H   UNL     1     -39.645 -51.277  10.857  1.00  0.00     0.164 HD
HETATM    6  H   UNL     1     -40.957 -49.880   9.784  1.00  0.00     0.172 HD
ENDROOT
BRANCH   1   7
HETATM    7  C   UNL     1     -39.324 -51.456  12.936  1.00  0.00     0.158 C 
BRANCH   7   8
HETATM    8  C   UNL     1     -40.429 -52.235  13.653  1.00  0.00     0.167 C 
HETATM    9  O   UNL     1     -39.881 -52.808  14.859  1.00  0.00    -0.381 OA
HETATM   10  C   UNL     1     -40.903 -53.503  15.592  1.00  0.00     0.198 C 
HETATM   11  C   UNL     1     -41.588 -54.586  14.736  1.00  0.00     0.298 C 
HETATM   12  N   UNL     1     -42.117 -54.094  13.444  1.00  0.00     0.093 N 
HETATM   13  C   UNL     1     -41.027 -53.350  12.769  1.00  0.00     0.305 C 
BRANCH  12  14
HETATM   14  C   UNL     1     -43.346 -53.298  13.620  1.00  0.00     0.276 C 
BRANCH  14  15
HETATM   15  C   UNL     1     -44.584 -53.893  12.911  1.00  0.00     0.006 C 
HETATM   16  C   UNL     1     -45.234 -54.996  13.748  1.00  0.00     0.011 C 
HETATM   17  C   UNL     1     -45.599 -52.794  12.594  1.00  0.00     0.011 C 
ENDBRANCH  14  15
ENDBRANCH  12  14
ENDBRANCH   7   8
ENDBRANCH   1   7
BRANCH   4  18
HETATM   18  C   UNL     1     -41.719 -48.099  10.335  1.00  0.00     0.168 A 
HETATM   19  N   UNL     1     -42.893 -48.108   9.743  1.00  0.00    -0.279 N 
HETATM   20  N   UNL     1     -43.427 -46.835   9.628  1.00  0.00    -0.303 N 
ATOM     21  HN  UNL     1     -43.357 -48.953   9.407  1.00  0.00     0.189 HD
HETATM   22  C   UNL     1     -42.604 -45.924  10.101  1.00  0.00     0.160 A 
ATOM     23  HN  UNL     1     -44.343 -46.631   9.228  1.00  0.00     0.186 HD
HETATM   24  S   UNL     1     -41.128 -46.540  10.700  1.00  0.00    -0.046 SA
ENDBRANCH   4  18
TORSDOF 5
ENDMDL
MODEL 4
REMARK VINA RESULT:      -5.6      3.861      5.755
REMARK  5 active torsions:
REMARK  status: ('A' for Active; 'I' for Inactive)
REMARK    1  A    between atoms: C_2  and  C_4 
REMARK    2  A    between atoms: C_4  and  N_5 
REMARK    3  A    between atoms: C_9  and  C_10 
REMARK    4  A    between atoms: C_10  and  N_11 
REMARK       I    between atoms: N_11  and  C_12 
REMARK       I    between atoms: C_12  and  N_14 
REMARK    5  A    between atoms: N_14  and  C_15 
ROOT
HETATM    1  N   UNL     1     -41.882 -53.103  13.972  1.00  0.00    -0.340 N 
HETATM    2  C   UNL     1     -41.102 -52.624  12.948  1.00  0.00     0.322 C 
HETATM    3  O   UNL     1     -41.301 -52.961  11.790  1.00  0.00    -0.247 OA
HETATM    4  N   UNL     1     -40.137 -51.760  13.387  1.00  0.00    -0.288 N 
HETATM    5  H   UNL     1     -41.644 -52.925  14.937  1.00  0.00     0.164 HD
HETATM    6  H   UNL     1     -39.853 -51.795  14.353  1.00  0.00     0.172 HD
ENDROOT
BRANCH   1   7
HETATM    7  C   UNL     1     -42.938 -54.070  13.725  1.00  0.00     0.158 C 
BRANCH   7   8
HETATM    8  C   UNL     1     -44.323 -53.422  13.677  1.00  0.00     0.167 C 
HETATM    9  O   UNL     1     -44.723 -53.289  12.297  1.00  0.00    -0.381 OA
HETATM   10  C   UNL     1     -46.044 -52.733  12.209  1.00  0.00     0.198 C 
HETATM   11  C   UNL     1     -46.149 -51.380  12.940  1.00  0.00     0.298 C 
HETATM   12  N   UNL     1     -45.689 -51.413  14.347  1.00  0.00     0.093 N 
HETATM   13  C   UNL     1     -44.346 -52.039  14.364  1.00  0.00     0.305 C 
BRANCH  12  14
HETATM   14  C   UNL     1     -46.660 -52.089  15.227  1.00  0.00     0.276 C 
BRANCH  14  15
HETATM   15  C   UNL     1     -46.698 -51.525  16.666  1.00  0.00     0.006 C 
HETATM   16  C   UNL     1     -48.106 -51.070  17.053  1.00  0.00     0.011 C 
HETATM   17  C   UNL     1     -46.181 -52.564  17.662  1.00  0.00     0.011 C 
ENDBRANCH  14  15
ENDBRANCH  12  14
ENDBRANCH   7   8
ENDBRANCH   1   7
BRANCH   4  18
HETATM   18  C   UNL     1     -39.285 -51.056  12.567  1.00  0.00     0.168 A 
HETATM   19  N   UNL     1     -39.664 -50.547  11.415  1.00  0.00    -0.279 N 
HETATM   20  N   UNL     1     -38.631 -49.884  10.775  1.00  0.00    -0.303 N 
ATOM     21  HN  UNL     1     -40.608 -50.630  11.038  1.00  0.00     0.189 HD
HETATM   22  C   UNL     1     -37.509 -49.967  11.458  1.00  0.00     0.160 A 
ATOM     23  HN  UNL     1     -38.727 -49.393   9.886  1.00  0.00     0.186 HD
HETATM   24  S   UNL     1     -37.623 -50.863  12.908  1.00  0.00    -0.046 SA
ENDBRANCH   4  18
TORSDOF 5
ENDMDL
MODEL 5
REMARK VINA RESULT:      -5.5      3.747      6.304
REMARK  5 active torsions:
REMARK  status: ('A' for Active; 'I' for Inactive)
REMARK    1  A    between atoms: C_2  and  C_4 
REMARK    2  A    between atoms: C_4  and  N_5 
REMARK    3  A    between atoms: C_9  and  C_10 
REMARK    4  A    between atoms: C_10  and  N_11 
REMARK       I    between atoms: N_11  and  C_12 
REMARK       I    between atoms: C_12  and  N_14 
REMARK    5  A    between atoms: N_14  and  C_15 
ROOT
HETATM    1  N   UNL     1     -41.042 -51.202  11.353  1.00  0.00    -0.340 N 
HETATM    2  C   UNL     1     -42.182 -51.412  12.089  1.00  0.00     0.322 C 
HETATM    3  O   UNL     1     -42.706 -50.503  12.717  1.00  0.00    -0.247 OA
HETATM    4  N   UNL     1     -42.624 -52.704  12.012  1.00  0.00    -0.288 N 
HETATM    5  H   UNL     1     -40.541 -51.973  10.935  1.00  0.00     0.164 HD
HETATM    6  H   UNL     1     -41.973 -53.427  11.748  1.00  0.00     0.172 HD
ENDROOT
BRANCH   1   7
HETATM    7  C   UNL     1     -40.385 -49.906  11.336  1.00  0.00     0.158 C 
BRANCH   7   8
HETATM    8  C   UNL     1     -39.156 -49.863  12.246  1.00  0.00     0.167 C 
HETATM    9  O   UNL     1     -38.512 -51.154  12.212  1.00  0.00    -0.381 OA
HETATM   10  C   UNL     1     -37.320 -51.140  13.013  1.00  0.00     0.198 C 
HETATM   11  C   UNL     1     -37.608 -50.712  14.465  1.00  0.00     0.298 C 
HETATM   12  N   UNL     1     -38.334 -49.428  14.587  1.00  0.00     0.093 N 
HETATM   13  C   UNL     1     -39.519 -49.498  13.702  1.00  0.00     0.305 C 
BRANCH  12  14
HETATM   14  C   UNL     1     -37.460 -48.274  14.304  1.00  0.00     0.276 C 
BRANCH  14  15
HETATM   15  C   UNL     1     -37.078 -47.454  15.558  1.00  0.00     0.006 C 
HETATM   16  C   UNL     1     -38.280 -47.248  16.482  1.00  0.00     0.011 C 
HETATM   17  C   UNL     1     -35.934 -48.132  16.313  1.00  0.00     0.011 C 
ENDBRANCH  14  15
ENDBRANCH  12  14
ENDBRANCH   7   8
ENDBRANCH   1   7
BRANCH   4  18
HETATM   18  C   UNL     1     -43.794 -53.166  12.567  1.00  0.00     0.168 A 
HETATM   19  N   UNL     1     -44.974 -52.682  12.246  1.00  0.00    -0.279 N 
HETATM   20  N   UNL     1     -45.999 -53.308  12.936  1.00  0.00    -0.303 N 
ATOM     21  HN  UNL     1     -45.118 -51.933  11.568  1.00  0.00     0.189 HD
HETATM   22  C   UNL     1     -45.533 -54.204  13.780  1.00  0.00     0.160 A 
ATOM     23  HN  UNL     1     -46.989 -53.100  12.807  1.00  0.00     0.186 HD
HETATM   24  S   UNL     1     -43.831 -54.340  13.807  1.00  0.00    -0.046 SA
ENDBRANCH   4  18
TORSDOF 5
ENDMDL
MODEL 6
REMARK VINA RESULT:      -5.5      3.174      6.568
REMARK  5 active torsions:
REMARK  status: ('A' for Active; 'I' for Inactive)
REMARK    1  A    between atoms: C_2  and  C_4 
REMARK    2  A    between atoms: C_4  and  N_5 
REMARK    3  A    between atoms: C_9  and  C_10 
REMARK    4  A    between atoms: C_10  and  N_11 
REMARK       I    between atoms: N_11  and  C_12 
REMARK       I    between atoms: C_12  and  N_14 
REMARK    5  A    between atoms: N_14  and  C_15 
ROOT
HETATM    1  N   UNL     1     -42.268 -52.259  11.803  1.00  0.00    -0.340 N 
HETATM    2  C   UNL     1     -43.099 -52.773  12.768  1.00  0.00     0.322 C 
HETATM    3  O   UNL     1     -42.649 -53.319  13.765  1.00  0.00    -0.247 OA
HETATM    4  N   UNL     1     -44.422 -52.586  12.473  1.00  0.00    -0.288 N 
HETATM    5  H   UNL     1     -42.635 -51.919  10.925  1.00  0.00     0.164 HD
HETATM    6  H   UNL     1     -44.690 -52.425  11.515  1.00  0.00     0.172 HD
ENDROOT
BRANCH   1   7
HETATM    7  C   UNL     1     -40.825 -52.392  11.903  1.00  0.00     0.158 C 
BRANCH   7   8
HETATM    8  C   UNL     1     -40.109 -51.040  11.848  1.00  0.00     0.167 C 
HETATM    9  O   UNL     1     -38.749 -51.220  12.296  1.00  0.00    -0.381 OA
HETATM   10  C   UNL     1     -38.025 -49.983  12.207  1.00  0.00     0.198 C 
HETATM   11  C   UNL     1     -38.715 -48.855  12.998  1.00  0.00     0.298 C 
HETATM   12  N   UNL     1     -40.139 -48.652  12.648  1.00  0.00     0.093 N 
HETATM   13  C   UNL     1     -40.809 -49.971  12.715  1.00  0.00     0.305 C 
BRANCH  12  14
HETATM   14  C   UNL     1     -40.295 -47.983  11.344  1.00  0.00     0.276 C 
BRANCH  14  15
HETATM   15  C   UNL     1     -40.888 -46.558  11.437  1.00  0.00     0.006 C 
HETATM   16  C   UNL     1     -41.191 -46.169  12.884  1.00  0.00     0.011 C 
HETATM   17  C   UNL     1     -39.941 -45.542  10.797  1.00  0.00     0.011 C 
ENDBRANCH  14  15
ENDBRANCH  12  14
ENDBRANCH   7   8
ENDBRANCH   1   7
BRANCH   4  18
HETATM   18  C   UNL     1     -45.463 -52.910  13.310  1.00  0.00     0.168 A 
HETATM   19  N   UNL     1     -45.835 -54.151  13.537  1.00  0.00    -0.279 N 
HETATM   20  N   UNL     1     -46.904 -54.222  14.414  1.00  0.00    -0.303 N 
ATOM     21  HN  UNL     1     -45.389 -54.966  13.116  1.00  0.00     0.189 HD
HETATM   22  C   UNL     1     -47.315 -53.024  14.770  1.00  0.00     0.160 A 
ATOM     23  HN  UNL     1     -47.320 -55.093  14.743  1.00  0.00     0.186 HD
HETATM   24  S   UNL     1     -46.450 -51.734  14.059  1.00  0.00    -0.046 SA
ENDBRANCH   4  18
TORSDOF 5
ENDMDL
MODEL 7
REMARK VINA RESULT:      -5.5      2.169      3.257
REMARK  5 active torsions:
REMARK  status: ('A' for Active; 'I' for Inactive)
REMARK    1  A    between atoms: C_2  and  C_4 
REMARK    2  A    between atoms: C_4  and  N_5 
REMARK    3  A    between atoms: C_9  and  C_10 
REMARK    4  A    between atoms: C_10  and  N_11 
REMARK       I    between atoms: N_11  and  C_12 
REMARK       I    between atoms: C_12  and  N_14 
REMARK    5  A    between atoms: N_14  and  C_15 
ROOT
HETATM    1  N   UNL     1     -41.159 -51.617  11.419  1.00  0.00    -0.340 N 
HETATM    2  C   UNL     1     -40.991 -50.287  11.716  1.00  0.00     0.322 C 
HETATM    3  O   UNL     1     -40.503 -49.932  12.779  1.00  0.00    -0.247 OA
HETATM    4  N   UNL     1     -41.415 -49.468  10.705  1.00  0.00    -0.288 N 
HETATM    5  H   UNL     1     -41.671 -51.908  10.599  1.00  0.00     0.164 HD
HETATM    6  H   UNL     1     -42.075 -49.825  10.033  1.00  0.00     0.172 HD
ENDROOT
BRANCH   1   7
HETATM    7  C   UNL     1     -40.813 -52.652  12.379  1.00  0.00     0.158 C 
BRANCH   7   8
HETATM    8  C   UNL     1     -42.047 -53.286  13.023  1.00  0.00     0.167 C 
HETATM    9  O   UNL     1     -43.195 -53.006  12.195  1.00  0.00    -0.381 OA
HETATM   10  C   UNL     1     -44.369 -53.632  12.736  1.00  0.00     0.198 C 
HETATM   11  C   UNL     1     -44.629 -53.202  14.193  1.00  0.00     0.298 C 
HETATM   12  N   UNL     1     -43.473 -53.390  15.098  1.00  0.00     0.093 N 
HETATM   13  C   UNL     1     -42.295 -52.763  14.455  1.00  0.00     0.305 C 
BRANCH  12  14
HETATM   14  C   UNL     1     -43.266 -54.810  15.437  1.00  0.00     0.276 C 
BRANCH  14  15
HETATM   15  C   UNL     1     -42.206 -55.043  16.538  1.00  0.00     0.006 C 
HETATM   16  C   UNL     1     -42.639 -54.436  17.873  1.00  0.00     0.011 C 
HETATM   17  C   UNL     1     -41.920 -56.537  16.698  1.00  0.00     0.011 C 
ENDBRANCH  14  15
ENDBRANCH  12  14
ENDBRANCH   7   8
ENDBRANCH   1   7
BRANCH   4  18
HETATM   18  C   UNL     1     -41.271 -48.100  10.693  1.00  0.00     0.168 A 
HETATM   19  N   UNL     1     -40.135 -47.501  10.974  1.00  0.00    -0.279 N 
HETATM   20  N   UNL     1     -40.240 -46.122  10.894  1.00  0.00    -0.303 N 
ATOM     21  HN  UNL     1     -39.276 -47.993  11.222  1.00  0.00     0.189 HD
HETATM   22  C   UNL     1     -41.468 -45.750  10.601  1.00  0.00     0.160 A 
ATOM     23  HN  UNL     1     -39.464 -45.478  11.044  1.00  0.00     0.186 HD
HETATM   24  S   UNL     1     -42.577 -47.035  10.417  1.00  0.00    -0.046 SA
ENDBRANCH   4  18
TORSDOF 5
ENDMDL
MODEL 8
REMARK VINA RESULT:      -5.5      3.554      7.320
REMARK  5 active torsions:
REMARK  status: ('A' for Active; 'I' for Inactive)
REMARK    1  A    between atoms: C_2  and  C_4 
REMARK    2  A    between atoms: C_4  and  N_5 
REMARK    3  A    between atoms: C_9  and  C_10 
REMARK    4  A    between atoms: C_10  and  N_11 
REMARK       I    between atoms: N_11  and  C_12 
REMARK       I    between atoms: C_12  and  N_14 
REMARK    5  A    between atoms: N_14  and  C_15 
ROOT
HETATM    1  N   UNL     1     -41.172 -48.852  10.422  1.00  0.00    -0.340 N 
HETATM    2  C   UNL     1     -41.414 -49.857  11.325  1.00  0.00     0.322 C 
HETATM    3  O   UNL     1     -42.385 -49.821  12.067  1.00  0.00    -0.247 OA
HETATM    4  N   UNL     1     -40.473 -50.848  11.269  1.00  0.00    -0.288 N 
HETATM    5  H   UNL     1     -40.310 -48.819   9.897  1.00  0.00     0.164 HD
HETATM    6  H   UNL     1     -39.570 -50.642  10.874  1.00  0.00     0.172 HD
ENDROOT
BRANCH   1   7
HETATM    7  C   UNL     1     -42.030 -47.681  10.349  1.00  0.00     0.158 C 
BRANCH   7   8
HETATM    8  C   UNL     1     -41.476 -46.501  11.151  1.00  0.00     0.167 C 
HETATM    9  O   UNL     1     -41.533 -45.317  10.327  1.00  0.00    -0.381 OA
HETATM   10  C   UNL     1     -41.072 -44.173  11.063  1.00  0.00     0.198 C 
HETATM   11  C   UNL     1     -39.651 -44.382  11.619  1.00  0.00     0.298 C 
HETATM   12  N   UNL     1     -39.487 -45.617  12.419  1.00  0.00     0.093 N 
HETATM   13  C   UNL     1     -40.024 -46.742  11.620  1.00  0.00     0.305 C 
BRANCH  12  14
HETATM   14  C   UNL     1     -40.109 -45.496  13.750  1.00  0.00     0.276 C 
BRANCH  14  15
HETATM   15  C   UNL     1     -39.495 -46.432  14.817  1.00  0.00     0.006 C 
HETATM   16  C   UNL     1     -38.052 -46.805  14.472  1.00  0.00     0.011 C 
HETATM   17  C   UNL     1     -39.564 -45.785  16.200  1.00  0.00     0.011 C 
ENDBRANCH  14  15
ENDBRANCH  12  14
ENDBRANCH   7   8
ENDBRANCH   1   7
BRANCH   4  18
HETATM   18  C   UNL     1     -40.526 -52.019  11.990  1.00  0.00     0.168 A 
HETATM   19  N   UNL     1     -40.941 -53.155  11.473  1.00  0.00    -0.279 N 
HETATM   20  N   UNL     1     -40.902 -54.190  12.393  1.00  0.00    -0.303 N 
ATOM     21  HN  UNL     1     -41.255 -53.262  10.508  1.00  0.00     0.189 HD
HETATM   22  C   UNL     1     -40.500 -53.769  13.573  1.00  0.00     0.160 A 
ATOM     23  HN  UNL     1     -41.152 -55.155  12.181  1.00  0.00     0.186 HD
HETATM   24  S   UNL     1     -40.160 -52.097  13.656  1.00  0.00    -0.046 SA
ENDBRANCH   4  18
TORSDOF 5
ENDMDL
MODEL 9
REMARK VINA RESULT:      -5.4      2.347      2.715
REMARK  5 active torsions:
REMARK  status: ('A' for Active; 'I' for Inactive)
REMARK    1  A    between atoms: C_2  and  C_4 
REMARK    2  A    between atoms: C_4  and  N_5 
REMARK    3  A    between atoms: C_9  and  C_10 
REMARK    4  A    between atoms: C_10  and  N_11 
REMARK       I    between atoms: N_11  and  C_12 
REMARK       I    between atoms: C_12  and  N_14 
REMARK    5  A    between atoms: N_14  and  C_15 
ROOT
HETATM    1  N   UNL     1     -41.957 -50.718  11.888  1.00  0.00    -0.340 N 
HETATM    2  C   UNL     1     -41.201 -49.633  11.520  1.00  0.00     0.322 C 
HETATM    3  O   UNL     1     -40.107 -49.773  10.993  1.00  0.00    -0.247 OA
HETATM    4  N   UNL     1     -41.819 -48.445  11.802  1.00  0.00    -0.288 N 
HETATM    5  H   UNL     1     -42.800 -50.606  12.432  1.00  0.00     0.164 HD
HETATM    6  H   UNL     1     -42.541 -48.426  12.504  1.00  0.00     0.172 HD
ENDROOT
BRANCH   1   7
HETATM    7  C   UNL     1     -41.462 -52.074  11.715  1.00  0.00     0.158 C 
BRANCH   7   8
HETATM    8  C   UNL     1     -40.830 -52.631  12.992  1.00  0.00     0.167 C 
HETATM    9  O   UNL     1     -39.440 -52.242  13.026  1.00  0.00    -0.381 OA
HETATM   10  C   UNL     1     -38.821 -52.700  14.238  1.00  0.00     0.198 C 
HETATM   11  C   UNL     1     -38.965 -54.224  14.416  1.00  0.00     0.298 C 
HETATM   12  N   UNL     1     -40.357 -54.718  14.323  1.00  0.00     0.093 N 
HETATM   13  C   UNL     1     -40.943 -54.169  13.078  1.00  0.00     0.305 C 
BRANCH  12  14
HETATM   14  C   UNL     1     -41.138 -54.391  15.530  1.00  0.00     0.276 C 
BRANCH  14  15
HETATM   15  C   UNL     1     -42.379 -55.290  15.735  1.00  0.00     0.006 C 
HETATM   16  C   UNL     1     -42.144 -56.331  16.831  1.00  0.00     0.011 C 
HETATM   17  C   UNL     1     -43.608 -54.440  16.061  1.00  0.00     0.011 C 
ENDBRANCH  14  15
ENDBRANCH  12  14
ENDBRANCH   7   8
ENDBRANCH   1   7
BRANCH   4  18
HETATM   18  C   UNL     1     -41.334 -47.207  11.449  1.00  0.00     0.168 A 
HETATM   19  N   UNL     1     -40.990 -46.902  10.217  1.00  0.00    -0.279 N 
HETATM   20  N   UNL     1     -40.533 -45.599  10.112  1.00  0.00    -0.303 N 
ATOM     21  HN  UNL     1     -41.051 -47.550   9.431  1.00  0.00     0.189 HD
HETATM   22  C   UNL     1     -40.514 -45.000  11.284  1.00  0.00     0.160 A 
ATOM     23  HN  UNL     1     -40.249 -45.160   9.237  1.00  0.00     0.186 HD
HETATM   24  S   UNL     1     -41.030 -45.973  12.589  1.00  0.00    -0.046 SA
ENDBRANCH   4  18
TORSDOF 5
ENDMDL
