MODEL 1
REMARK VINA RESULT:      -5.6      0.000      0.000
REMARK  6 active torsions:
REMARK  status: ('A' for Active; 'I' for Inactive)
REMARK    1  A    between atoms: C_2  and  C_3 
REMARK    2  A    between atoms: C_2  and  N_15 
REMARK       I    between atoms: C_3  and  N_5 
REMARK    3  A    between atoms: N_5  and  C_6 
REMARK    4  A    between atoms: C_6  and  C_7 
REMARK    5  A    between atoms: C_7  and  C_8 
REMARK    6  A    between atoms: C_8  and  N_9 
ROOT
HETATM    1  C   UNL     1     -41.452 -49.391  11.386  1.00  0.00     0.242 C 
HETATM    2  O   UNL     1     -40.337 -49.548  10.889  1.00  0.00    -0.271 OA
HETATM    3  N   UNL     1     -42.179 -50.443  11.897  1.00  0.00    -0.359 N 
HETATM    4  H   UNL     1     -43.142 -50.264  12.175  1.00  0.00     0.162 HD
ENDROOT
BRANCH   3   5
HETATM    5  C   UNL     1     -41.638 -51.776  12.122  1.00  0.00     0.124 C 
BRANCH   5   6
HETATM    6  C   UNL     1     -42.788 -52.708  12.493  1.00  0.00     0.050 C 
BRANCH   6   7
HETATM    7  C   UNL     1     -43.952 -52.028  13.222  1.00  0.00     0.274 C 
BRANCH   7   8
HETATM    8  N   UNL     1     -45.257 -52.600  12.839  1.00  0.00     0.092 N 
HETATM    9  C   UNL     1     -46.363 -51.633  13.032  1.00  0.00     0.298 C 
HETATM   10  C   UNL     1     -46.783 -51.454  14.504  1.00  0.00     0.198 C 
HETATM   11  O   UNL     1     -47.183 -52.713  15.071  1.00  0.00    -0.388 OA
HETATM   12  C   UNL     1     -46.116 -53.664  14.984  1.00  0.00     0.198 C 
HETATM   13  C   UNL     1     -45.627 -53.853  13.538  1.00  0.00     0.298 C 
ENDBRANCH   7   8
ENDBRANCH   6   7
ENDBRANCH   5   6
ENDBRANCH   3   5
BRANCH   1  14
HETATM   14  C   UNL     1     -42.155 -48.028  11.412  1.00  0.00     0.195 C 
HETATM   15  C   UNL     1     -42.921 -47.819  12.720  1.00  0.00     0.044 C 
BRANCH  14  16
HETATM   16  N   UNL     1     -43.015 -47.837  10.244  1.00  0.00    -0.290 N 
HETATM   17  C   UNL     1     -44.317 -47.423  10.205  1.00  0.00     0.112 A 
HETATM   18  C   UNL     1     -44.660 -47.345   8.877  1.00  0.00     0.037 A 
HETATM   19  C   UNL     1     -43.514 -47.775   8.186  1.00  0.00     0.108 A 
HETATM   20  N   UNL     1     -42.522 -48.117   9.013  1.00  0.00    -0.309 N 
ATOM     21  HN  UNL     1     -41.607 -48.499   8.773  1.00  0.00     0.186 HD
ENDBRANCH  14  16
ENDBRANCH   1  14
TORSDOF 6
ENDMDL
MODEL 2
REMARK VINA RESULT:      -5.5      1.599      1.915
REMARK  6 active torsions:
REMARK  status: ('A' for Active; 'I' for Inactive)
REMARK    1  A    between atoms: C_2  and  C_3 
REMARK    2  A    between atoms: C_2  and  N_15 
REMARK       I    between atoms: C_3  and  N_5 
REMARK    3  A    between atoms: N_5  and  C_6 
REMARK    4  A    between atoms: C_6  and  C_7 
REMARK    5  A    between atoms: C_7  and  C_8 
REMARK    6  A    between atoms: C_8  and  N_9 
ROOT
HETATM    1  C   UNL     1     -41.773 -49.041  12.023  1.00  0.00     0.242 C 
HETATM    2  O   UNL     1     -41.557 -48.547  13.129  1.00  0.00    -0.271 OA
HETATM    3  N   UNL     1     -42.244 -50.327  11.877  1.00  0.00    -0.359 N 
HETATM    4  H   UNL     1     -42.279 -50.716  10.936  1.00  0.00     0.162 HD
ENDROOT
BRANCH   3   5
HETATM    5  C   UNL     1     -42.752 -51.140  12.972  1.00  0.00     0.124 C 
BRANCH   5   6
HETATM    6  C   UNL     1     -42.814 -52.593  12.510  1.00  0.00     0.050 C 
BRANCH   6   7
HETATM    7  C   UNL     1     -44.188 -53.254  12.665  1.00  0.00     0.274 C 
BRANCH   7   8
HETATM    8  N   UNL     1     -44.111 -54.527  13.408  1.00  0.00     0.092 N 
HETATM    9  C   UNL     1     -45.455 -55.082  13.694  1.00  0.00     0.298 C 
HETATM   10  C   UNL     1     -46.193 -54.365  14.841  1.00  0.00     0.198 C 
HETATM   11  O   UNL     1     -45.417 -54.419  16.051  1.00  0.00    -0.388 OA
HETATM   12  C   UNL     1     -44.133 -53.817  15.850  1.00  0.00     0.198 C 
HETATM   13  C   UNL     1     -43.365 -54.468  14.687  1.00  0.00     0.298 C 
ENDBRANCH   7   8
ENDBRANCH   6   7
ENDBRANCH   5   6
ENDBRANCH   3   5
BRANCH   1  14
HETATM   14  C   UNL     1     -41.469 -48.298  10.716  1.00  0.00     0.195 C 
HETATM   15  C   UNL     1     -40.578 -47.078  10.961  1.00  0.00     0.044 C 
BRANCH  14  16
HETATM   16  N   UNL     1     -42.691 -47.940   9.997  1.00  0.00    -0.290 N 
HETATM   17  C   UNL     1     -43.861 -47.445  10.501  1.00  0.00     0.112 A 
HETATM   18  C   UNL     1     -44.682 -47.216   9.423  1.00  0.00     0.037 A 
HETATM   19  C   UNL     1     -43.939 -47.645   8.311  1.00  0.00     0.108 A 
HETATM   20  N   UNL     1     -42.742 -48.127   8.655  1.00  0.00    -0.309 N 
ATOM     21  HN  UNL     1     -42.032 -48.538   8.050  1.00  0.00     0.186 HD
ENDBRANCH  14  16
ENDBRANCH   1  14
TORSDOF 6
ENDMDL
MODEL 3
REMARK VINA RESULT:      -5.3      1.811      2.384
REMARK  6 active torsions:
REMARK  status: ('A' for Active; 'I' for Inactive)
REMARK    1  A    between atoms: C_2  and  C_3 
REMARK    2  A    between atoms: C_2  and  N_15 
REMARK       I    between atoms: C_3  and  N_5 
REMARK    3  A    between atoms: N_5  and  C_6 
REMARK    4  A    between atoms: C_6  and  C_7 
REMARK    5  A    between atoms: C_7  and  C_8 
REMARK    6  A    between atoms: C_8  and  N_9 
ROOT
HETATM    1  C   UNL     1     -40.465 -50.718  12.091  1.00  0.00     0.242 C 
HETATM    2  O   UNL     1     -40.030 -50.821  13.237  1.00  0.00    -0.271 OA
HETATM    3  N   UNL     1     -41.131 -51.749  11.466  1.00  0.00    -0.359 N 
HETATM    4  H   UNL     1     -41.350 -51.641  10.477  1.00  0.00     0.162 HD
ENDROOT
BRANCH   3   5
HETATM    5  C   UNL     1     -41.593 -52.952  12.143  1.00  0.00     0.124 C 
BRANCH   5   6
HETATM    6  C   UNL     1     -43.070 -52.779  12.484  1.00  0.00     0.050 C 
BRANCH   6   7
HETATM    7  C   UNL     1     -43.391 -52.840  13.981  1.00  0.00     0.274 C 
BRANCH   7   8
HETATM    8  N   UNL     1     -43.603 -54.224  14.448  1.00  0.00     0.092 N 
HETATM    9  C   UNL     1     -44.860 -54.800  13.917  1.00  0.00     0.298 C 
HETATM   10  C   UNL     1     -46.128 -54.283  14.623  1.00  0.00     0.198 C 
HETATM   11  O   UNL     1     -46.068 -54.558  16.033  1.00  0.00    -0.388 OA
HETATM   12  C   UNL     1     -44.909 -53.950  16.613  1.00  0.00     0.198 C 
HETATM   13  C   UNL     1     -43.612 -54.399  15.919  1.00  0.00     0.298 C 
ENDBRANCH   7   8
ENDBRANCH   6   7
ENDBRANCH   5   6
ENDBRANCH   3   5
BRANCH   1  14
HETATM   14  C   UNL     1     -40.242 -49.463  11.238  1.00  0.00     0.195 C 
HETATM   15  C   UNL     1     -39.201 -48.535  11.868  1.00  0.00     0.044 C 
BRANCH  14  16
HETATM   16  N   UNL     1     -41.496 -48.762  10.962  1.00  0.00    -0.290 N 
HETATM   17  C   UNL     1     -42.515 -48.470  11.826  1.00  0.00     0.112 A 
HETATM   18  C   UNL     1     -43.439 -47.751  11.106  1.00  0.00     0.037 A 
HETATM   19  C   UNL     1     -42.915 -47.698   9.804  1.00  0.00     0.108 A 
HETATM   20  N   UNL     1     -41.752 -48.347   9.697  1.00  0.00    -0.309 N 
ATOM     21  HN  UNL     1     -41.189 -48.495   8.861  1.00  0.00     0.186 HD
ENDBRANCH  14  16
ENDBRANCH   1  14
TORSDOF 6
ENDMDL
MODEL 4
REMARK VINA RESULT:      -5.1      4.467      6.453
REMARK  6 active torsions:
REMARK  status: ('A' for Active; 'I' for Inactive)
REMARK    1  A    between atoms: C_2  and  C_3 
REMARK    2  A    between atoms: C_2  and  N_15 
REMARK       I    between atoms: C_3  and  N_5 
REMARK    3  A    between atoms: N_5  and  C_6 
REMARK    4  A    between atoms: C_6  and  C_7 
REMARK    5  A    between atoms: C_7  and  C_8 
REMARK    6  A    between atoms: C_8  and  N_9 
ROOT
HETATM    1  C   UNL     1     -42.931 -47.778  10.174  1.00  0.00     0.242 C 
HETATM    2  O   UNL     1     -43.479 -47.891  11.270  1.00  0.00    -0.271 OA
HETATM    3  N   UNL     1     -41.633 -48.185   9.959  1.00  0.00    -0.359 N 
HETATM    4  H   UNL     1     -41.201 -47.946   9.068  1.00  0.00     0.162 HD
ENDROOT
BRANCH   3   5
HETATM    5  C   UNL     1     -40.863 -48.987  10.899  1.00  0.00     0.124 C 
BRANCH   5   6
HETATM    6  C   UNL     1     -40.109 -48.047  11.834  1.00  0.00     0.050 C 
BRANCH   6   7
HETATM    7  C   UNL     1     -39.930 -46.622  11.299  1.00  0.00     0.274 C 
BRANCH   7   8
HETATM    8  N   UNL     1     -39.868 -45.624  12.384  1.00  0.00     0.092 N 
HETATM    9  C   UNL     1     -41.133 -45.562  13.152  1.00  0.00     0.298 C 
HETATM   10  C   UNL     1     -42.267 -44.814  12.422  1.00  0.00     0.198 C 
HETATM   11  O   UNL     1     -41.864 -43.470  12.108  1.00  0.00    -0.388 OA
HETATM   12  C   UNL     1     -40.686 -43.477  11.294  1.00  0.00     0.198 C 
HETATM   13  C   UNL     1     -39.530 -44.247  11.957  1.00  0.00     0.298 C 
ENDBRANCH   7   8
ENDBRANCH   6   7
ENDBRANCH   5   6
ENDBRANCH   3   5
BRANCH   1  14
HETATM   14  C   UNL     1     -43.619 -47.110   8.976  1.00  0.00     0.195 C 
HETATM   15  C   UNL     1     -43.639 -45.586   9.121  1.00  0.00     0.044 C 
BRANCH  14  16
HETATM   16  N   UNL     1     -44.959 -47.649   8.748  1.00  0.00    -0.290 N 
HETATM   17  C   UNL     1     -46.111 -47.387   9.437  1.00  0.00     0.112 A 
HETATM   18  C   UNL     1     -47.110 -48.088   8.805  1.00  0.00     0.037 A 
HETATM   19  C   UNL     1     -46.459 -48.782   7.771  1.00  0.00     0.108 A 
HETATM   20  N   UNL     1     -45.143 -48.554   7.755  1.00  0.00    -0.309 N 
ATOM     21  HN  UNL     1     -44.441 -48.964   7.140  1.00  0.00     0.186 HD
ENDBRANCH  14  16
ENDBRANCH   1  14
TORSDOF 6
ENDMDL
MODEL 5
REMARK VINA RESULT:      -5.1      3.139      4.375
REMARK  6 active torsions:
REMARK  status: ('A' for Active; 'I' for Inactive)
REMARK    1  A    between atoms: C_2  and  C_3 
REMARK    2  A    between atoms: C_2  and  N_15 
REMARK       I    between atoms: C_3  and  N_5 
REMARK    3  A    between atoms: N_5  and  C_6 
REMARK    4  A    between atoms: C_6  and  C_7 
REMARK    5  A    between atoms: C_7  and  C_8 
REMARK    6  A    between atoms: C_8  and  N_9 
ROOT
HETATM    1  C   UNL     1     -42.542 -52.691  12.542  1.00  0.00     0.242 C 
HETATM    2  O   UNL     1     -43.028 -51.589  12.795  1.00  0.00    -0.271 OA
HETATM    3  N   UNL     1     -43.297 -53.843  12.554  1.00  0.00    -0.359 N 
HETATM    4  H   UNL     1     -42.808 -54.732  12.463  1.00  0.00     0.162 HD
ENDROOT
BRANCH   3   5
HETATM    5  C   UNL     1     -44.751 -53.865  12.627  1.00  0.00     0.124 C 
BRANCH   5   6
HETATM    6  C   UNL     1     -45.162 -54.666  13.858  1.00  0.00     0.050 C 
BRANCH   6   7
HETATM    7  C   UNL     1     -45.982 -53.880  14.887  1.00  0.00     0.274 C 
BRANCH   7   8
HETATM    8  N   UNL     1     -45.674 -52.437  14.857  1.00  0.00     0.092 N 
HETATM    9  C   UNL     1     -44.741 -52.048  15.940  1.00  0.00     0.298 C 
HETATM   10  C   UNL     1     -45.403 -51.959  17.329  1.00  0.00     0.198 C 
HETATM   11  O   UNL     1     -46.489 -51.016  17.310  1.00  0.00    -0.388 OA
HETATM   12  C   UNL     1     -47.464 -51.395  16.333  1.00  0.00     0.198 C 
HETATM   13  C   UNL     1     -46.850 -51.539  14.930  1.00  0.00     0.298 C 
ENDBRANCH   7   8
ENDBRANCH   6   7
ENDBRANCH   5   6
ENDBRANCH   3   5
BRANCH   1  14
HETATM   14  C   UNL     1     -41.046 -52.886  12.265  1.00  0.00     0.195 C 
HETATM   15  C   UNL     1     -40.406 -53.827  13.287  1.00  0.00     0.044 C 
BRANCH  14  16
HETATM   16  N   UNL     1     -40.337 -51.609  12.186  1.00  0.00    -0.290 N 
HETATM   17  C   UNL     1     -39.368 -51.121  13.018  1.00  0.00     0.112 A 
HETATM   18  C   UNL     1     -38.977 -49.913  12.491  1.00  0.00     0.037 A 
HETATM   19  C   UNL     1     -39.796 -49.733  11.365  1.00  0.00     0.108 A 
HETATM   20  N   UNL     1     -40.656 -50.740  11.195  1.00  0.00    -0.309 N 
ATOM     21  HN  UNL     1     -41.383 -50.834  10.486  1.00  0.00     0.186 HD
ENDBRANCH  14  16
ENDBRANCH   1  14
TORSDOF 6
ENDMDL
MODEL 6
REMARK VINA RESULT:      -5.0      2.503      3.132
REMARK  6 active torsions:
REMARK  status: ('A' for Active; 'I' for Inactive)
REMARK    1  A    between atoms: C_2  and  C_3 
REMARK    2  A    between atoms: C_2  and  N_15 
REMARK       I    between atoms: C_3  and  N_5 
REMARK    3  A    between atoms: N_5  and  C_6 
REMARK    4  A    between atoms: C_6  and  C_7 
REMARK    5  A    between atoms: C_7  and  C_8 
REMARK    6  A    between atoms: C_8  and  N_9 
ROOT
HETATM    1  C   UNL     1     -41.943 -48.230  11.802  1.00  0.00     0.242 C 
HETATM    2  O   UNL     1     -41.049 -48.036  12.625  1.00  0.00    -0.271 OA
HETATM    3  N   UNL     1     -42.514 -49.471  11.622  1.00  0.00    -0.359 N 
HETATM    4  H   UNL     1     -43.155 -49.589  10.839  1.00  0.00     0.162 HD
ENDROOT
BRANCH   3   5
HETATM    5  C   UNL     1     -42.307 -50.602  12.514  1.00  0.00     0.124 C 
BRANCH   5   6
HETATM    6  C   UNL     1     -43.506 -50.705  13.452  1.00  0.00     0.050 C 
BRANCH   6   7
HETATM    7  C   UNL     1     -43.568 -52.000  14.269  1.00  0.00     0.274 C 
BRANCH   7   8
HETATM    8  N   UNL     1     -43.196 -53.181  13.467  1.00  0.00     0.092 N 
HETATM    9  C   UNL     1     -44.384 -53.871  12.913  1.00  0.00     0.298 C 
HETATM   10  C   UNL     1     -45.151 -54.717  13.948  1.00  0.00     0.198 C 
HETATM   11  O   UNL     1     -44.287 -55.708  14.530  1.00  0.00    -0.388 OA
HETATM   12  C   UNL     1     -43.159 -55.084  15.154  1.00  0.00     0.198 C 
HETATM   13  C   UNL     1     -42.376 -54.192  14.175  1.00  0.00     0.298 C 
ENDBRANCH   7   8
ENDBRANCH   6   7
ENDBRANCH   5   6
ENDBRANCH   3   5
BRANCH   1  14
HETATM   14  C   UNL     1     -42.445 -47.129  10.860  1.00  0.00     0.195 C 
HETATM   15  C   UNL     1     -42.807 -47.692   9.484  1.00  0.00     0.044 C 
BRANCH  14  16
HETATM   16  N   UNL     1     -41.493 -46.023  10.759  1.00  0.00    -0.290 N 
HETATM   17  C   UNL     1     -41.683 -44.707  11.075  1.00  0.00     0.112 A 
HETATM   18  C   UNL     1     -40.478 -44.079  10.864  1.00  0.00     0.037 A 
HETATM   19  C   UNL     1     -39.631 -45.089  10.377  1.00  0.00     0.108 A 
HETATM   20  N   UNL     1     -40.252 -46.266  10.270  1.00  0.00    -0.309 N 
ATOM     21  HN  UNL     1     -39.881 -47.143   9.906  1.00  0.00     0.186 HD
ENDBRANCH  14  16
ENDBRANCH   1  14
TORSDOF 6
ENDMDL
MODEL 7
REMARK VINA RESULT:      -5.0      2.158      5.974
REMARK  6 active torsions:
REMARK  status: ('A' for Active; 'I' for Inactive)
REMARK    1  A    between atoms: C_2  and  C_3 
REMARK    2  A    between atoms: C_2  and  N_15 
REMARK       I    between atoms: C_3  and  N_5 
REMARK    3  A    between atoms: N_5  and  C_6 
REMARK    4  A    between atoms: C_6  and  C_7 
REMARK    5  A    between atoms: C_7  and  C_8 
REMARK    6  A    between atoms: C_8  and  N_9 
ROOT
HETATM    1  C   UNL     1     -41.988 -51.034  12.345  1.00  0.00     0.242 C 
HETATM    2  O   UNL     1     -41.192 -51.624  11.616  1.00  0.00    -0.271 OA
HETATM    3  N   UNL     1     -42.236 -49.685  12.217  1.00  0.00    -0.359 N 
HETATM    4  H   UNL     1     -42.807 -49.237  12.932  1.00  0.00     0.162 HD
ENDROOT
BRANCH   3   5
HETATM    5  C   UNL     1     -41.787 -48.875  11.094  1.00  0.00     0.124 C 
BRANCH   5   6
HETATM    6  C   UNL     1     -42.579 -47.572  11.089  1.00  0.00     0.050 C 
BRANCH   6   7
HETATM    7  C   UNL     1     -44.061 -47.727  10.731  1.00  0.00     0.274 C 
BRANCH   7   8
HETATM    8  N   UNL     1     -44.449 -46.879   9.587  1.00  0.00     0.092 N 
HETATM    9  C   UNL     1     -45.824 -47.174   9.120  1.00  0.00     0.298 C 
HETATM   10  C   UNL     1     -45.934 -48.472   8.296  1.00  0.00     0.198 C 
HETATM   11  O   UNL     1     -45.071 -48.416   7.148  1.00  0.00    -0.388 OA
HETATM   12  C   UNL     1     -43.712 -48.214   7.551  1.00  0.00     0.198 C 
HETATM   13  C   UNL     1     -43.548 -46.950   8.414  1.00  0.00     0.298 C 
ENDBRANCH   7   8
ENDBRANCH   6   7
ENDBRANCH   5   6
ENDBRANCH   3   5
BRANCH   1  14
HETATM   14  C   UNL     1     -42.716 -51.731  13.501  1.00  0.00     0.195 C 
HETATM   15  C   UNL     1     -42.110 -53.105  13.796  1.00  0.00     0.044 C 
BRANCH  14  16
HETATM   16  N   UNL     1     -44.157 -51.814  13.267  1.00  0.00    -0.290 N 
HETATM   17  C   UNL     1     -45.165 -51.173  13.932  1.00  0.00     0.112 A 
HETATM   18  C   UNL     1     -46.334 -51.530  13.303  1.00  0.00     0.037 A 
HETATM   19  C   UNL     1     -45.937 -52.427  12.296  1.00  0.00     0.108 A 
HETATM   20  N   UNL     1     -44.619 -52.638  12.294  1.00  0.00    -0.309 N 
ATOM     21  HN  UNL     1     -44.084 -53.271  11.700  1.00  0.00     0.186 HD
ENDBRANCH  14  16
ENDBRANCH   1  14
TORSDOF 6
ENDMDL
MODEL 8
REMARK VINA RESULT:      -5.0      2.736      3.406
REMARK  6 active torsions:
REMARK  status: ('A' for Active; 'I' for Inactive)
REMARK    1  A    between atoms: C_2  and  C_3 
REMARK    2  A    between atoms: C_2  and  N_15 
REMARK       I    between atoms: C_3  and  N_5 
REMARK    3  A    between atoms: N_5  and  C_6 
REMARK    4  A    between atoms: C_6  and  C_7 
REMARK    5  A    between atoms: C_7  and  C_8 
REMARK    6  A    between atoms: C_8  and  N_9 
ROOT
HETATM    1  C   UNL     1     -40.388 -50.069  11.731  1.00  0.00     0.242 C 
HETATM    2  O   UNL     1     -41.567 -49.717  11.741  1.00  0.00    -0.271 OA
HETATM    3  N   UNL     1     -40.014 -51.380  11.925  1.00  0.00    -0.359 N 
HETATM    4  H   UNL     1     -39.021 -51.580  12.031  1.00  0.00     0.162 HD
ENDROOT
BRANCH   3   5
HETATM    5  C   UNL     1     -40.942 -52.502  11.924  1.00  0.00     0.124 C 
BRANCH   5   6
HETATM    6  C   UNL     1     -41.024 -53.064  13.340  1.00  0.00     0.050 C 
BRANCH   6   7
HETATM    7  C   UNL     1     -42.161 -54.067  13.563  1.00  0.00     0.274 C 
BRANCH   7   8
HETATM    8  N   UNL     1     -43.258 -53.493  14.367  1.00  0.00     0.092 N 
HETATM    9  C   UNL     1     -44.230 -54.526  14.793  1.00  0.00     0.298 C 
HETATM   10  C   UNL     1     -45.184 -54.983  13.672  1.00  0.00     0.198 C 
HETATM   11  O   UNL     1     -45.918 -53.864  13.148  1.00  0.00    -0.388 OA
HETATM   12  C   UNL     1     -45.022 -52.868  12.644  1.00  0.00     0.198 C 
HETATM   13  C   UNL     1     -44.016 -52.402  13.712  1.00  0.00     0.298 C 
ENDBRANCH   7   8
ENDBRANCH   6   7
ENDBRANCH   5   6
ENDBRANCH   3   5
BRANCH   1  14
HETATM   14  C   UNL     1     -39.234 -49.070  11.575  1.00  0.00     0.195 C 
HETATM   15  C   UNL     1     -38.107 -49.358  12.569  1.00  0.00     0.044 C 
BRANCH  14  16
HETATM   16  N   UNL     1     -39.696 -47.685  11.667  1.00  0.00    -0.290 N 
HETATM   17  C   UNL     1     -39.613 -46.829  12.730  1.00  0.00     0.112 A 
HETATM   18  C   UNL     1     -40.131 -45.630  12.303  1.00  0.00     0.037 A 
HETATM   19  C   UNL     1     -40.545 -45.869  10.982  1.00  0.00     0.108 A 
HETATM   20  N   UNL     1     -40.322 -47.130  10.600  1.00  0.00    -0.309 N 
ATOM     21  HN  UNL     1     -40.565 -47.571   9.714  1.00  0.00     0.186 HD
ENDBRANCH  14  16
ENDBRANCH   1  14
TORSDOF 6
ENDMDL
MODEL 9
REMARK VINA RESULT:      -4.9      3.315      7.203
REMARK  6 active torsions:
REMARK  status: ('A' for Active; 'I' for Inactive)
REMARK    1  A    between atoms: C_2  and  C_3 
REMARK    2  A    between atoms: C_2  and  N_15 
REMARK       I    between atoms: C_3  and  N_5 
REMARK    3  A    between atoms: N_5  and  C_6 
REMARK    4  A    between atoms: C_6  and  C_7 
REMARK    5  A    between atoms: C_7  and  C_8 
REMARK    6  A    between atoms: C_8  and  N_9 
ROOT
HETATM    1  C   UNL     1     -41.960 -50.412  12.302  1.00  0.00     0.242 C 
HETATM    2  O   UNL     1     -42.565 -50.576  13.361  1.00  0.00    -0.271 OA
HETATM    3  N   UNL     1     -42.269 -49.388  11.434  1.00  0.00    -0.359 N 
HETATM    4  H   UNL     1     -41.817 -49.387  10.521  1.00  0.00     0.162 HD
ENDROOT
BRANCH   3   5
HETATM    5  C   UNL     1     -43.150 -48.277  11.764  1.00  0.00     0.124 C 
BRANCH   5   6
HETATM    6  C   UNL     1     -43.475 -47.520  10.480  1.00  0.00     0.050 C 
BRANCH   6   7
HETATM    7  C   UNL     1     -42.683 -46.222  10.286  1.00  0.00     0.274 C 
BRANCH   7   8
HETATM    8  N   UNL     1     -41.713 -45.995  11.375  1.00  0.00     0.092 N 
HETATM    9  C   UNL     1     -41.947 -44.704  12.064  1.00  0.00     0.298 C 
HETATM   10  C   UNL     1     -41.460 -43.478  11.267  1.00  0.00     0.198 C 
HETATM   11  O   UNL     1     -40.055 -43.588  10.982  1.00  0.00    -0.388 OA
HETATM   12  C   UNL     1     -39.786 -44.783  10.241  1.00  0.00     0.198 C 
HETATM   13  C   UNL     1     -40.289 -46.041  10.972  1.00  0.00     0.298 C 
ENDBRANCH   7   8
ENDBRANCH   6   7
ENDBRANCH   5   6
ENDBRANCH   3   5
BRANCH   1  14
HETATM   14  C   UNL     1     -40.863 -51.373  11.824  1.00  0.00     0.195 C 
HETATM   15  C   UNL     1     -41.023 -52.760  12.450  1.00  0.00     0.044 C 
BRANCH  14  16
HETATM   16  N   UNL     1     -39.525 -50.827  12.051  1.00  0.00    -0.290 N 
HETATM   17  C   UNL     1     -38.776 -50.858  13.195  1.00  0.00     0.112 A 
HETATM   18  C   UNL     1     -37.574 -50.268  12.887  1.00  0.00     0.037 A 
HETATM   19  C   UNL     1     -37.705 -49.868  11.547  1.00  0.00     0.108 A 
HETATM   20  N   UNL     1     -38.905 -50.167  11.042  1.00  0.00    -0.309 N 
ATOM     21  HN  UNL     1     -39.270 -49.950  10.115  1.00  0.00     0.186 HD
ENDBRANCH  14  16
ENDBRANCH   1  14
TORSDOF 6
ENDMDL
