MODEL 1
REMARK VINA RESULT:      -6.7      0.000      0.000
REMARK  4 active torsions:
REMARK  status: ('A' for Active; 'I' for Inactive)
REMARK    1  A    between atoms: C_8  and  N_9 
REMARK       I    between atoms: N_9  and  C_10 
REMARK       I    between atoms: C_10  and  N_12 
REMARK    2  A    between atoms: N_12  and  C_13 
REMARK    3  A    between atoms: C_13  and  C_14 
REMARK    4  A    between atoms: C_14  and  N_15 
ROOT
HETATM    1  N   UNL     1     -41.017 -48.281  10.580  1.00  0.00    -0.294 N 
HETATM    2  C   UNL     1     -40.587 -49.420  11.180  1.00  0.00     0.321 C 
HETATM    3  O   UNL     1     -39.413 -49.487  11.545  1.00  0.00    -0.247 OA
HETATM    4  N   UNL     1     -41.461 -50.457  11.313  1.00  0.00    -0.341 N 
HETATM    5  H   UNL     1     -40.293 -47.588  10.499  1.00  0.00     0.172 HD
HETATM    6  H   UNL     1     -42.438 -50.217  11.175  1.00  0.00     0.164 HD
ENDROOT
BRANCH   1   7
HETATM    7  C   UNL     1     -42.277 -47.998  10.033  1.00  0.00     0.114 A 
HETATM    8  C   UNL     1     -43.318 -47.565  10.865  1.00  0.00    -0.018 A 
HETATM    9  C   UNL     1     -43.188 -47.379  12.351  1.00  0.00     0.052 C 
HETATM   10  C   UNL     1     -44.536 -47.235  10.256  1.00  0.00     0.012 A 
HETATM   11  C   UNL     1     -44.695 -47.364   8.885  1.00  0.00     0.018 A 
HETATM   12  C   UNL     1     -43.624 -47.826   8.150  1.00  0.00     0.089 A 
HETATM   13  N   UNL     1     -42.434 -48.147   8.693  1.00  0.00    -0.352 N 
ATOM     14  HN  UNL     1     -41.670 -48.492   8.112  1.00  0.00     0.166 HD
ENDBRANCH   1   7
BRANCH   4  15
HETATM   15  C   UNL     1     -41.052 -51.676  11.967  1.00  0.00     0.144 C 
BRANCH  15  16
HETATM   16  C   UNL     1     -41.292 -51.758  13.484  1.00  0.00     0.145 C 
BRANCH  16  17
HETATM   17  N   UNL     1     -42.663 -52.227  13.761  1.00  0.00    -0.351 N 
HETATM   18  C   UNL     1     -43.635 -51.256  14.259  1.00  0.00     0.126 C 
HETATM   19  C   UNL     1     -44.620 -50.797  13.194  1.00  0.00     0.020 C 
HETATM   20  C   UNL     1     -45.837 -51.707  13.064  1.00  0.00     0.002 C 
HETATM   21  C   UNL     1     -45.572 -53.198  13.267  1.00  0.00     0.009 C 
HETATM   22  C   UNL     1     -44.299 -53.698  12.609  1.00  0.00     0.103 C 
HETATM   23  C   UNL     1     -43.000 -53.516  13.383  1.00  0.00     0.219 C 
HETATM   24  O   UNL     1     -42.205 -54.452  13.480  1.00  0.00    -0.273 OA
ENDBRANCH  16  17
ENDBRANCH  15  16
ENDBRANCH   4  15
TORSDOF 4
ENDMDL
MODEL 2
REMARK VINA RESULT:      -6.7      1.223      1.812
REMARK  4 active torsions:
REMARK  status: ('A' for Active; 'I' for Inactive)
REMARK    1  A    between atoms: C_8  and  N_9 
REMARK       I    between atoms: N_9  and  C_10 
REMARK       I    between atoms: C_10  and  N_12 
REMARK    2  A    between atoms: N_12  and  C_13 
REMARK    3  A    between atoms: C_13  and  C_14 
REMARK    4  A    between atoms: C_14  and  N_15 
ROOT
HETATM    1  N   UNL     1     -40.977 -48.304  10.639  1.00  0.00    -0.294 N 
HETATM    2  C   UNL     1     -40.623 -49.476  11.226  1.00  0.00     0.321 C 
HETATM    3  O   UNL     1     -39.463 -49.614  11.614  1.00  0.00    -0.247 OA
HETATM    4  N   UNL     1     -41.555 -50.466  11.321  1.00  0.00    -0.341 N 
HETATM    5  H   UNL     1     -40.215 -47.651  10.587  1.00  0.00     0.172 HD
HETATM    6  H   UNL     1     -42.515 -50.170  11.167  1.00  0.00     0.164 HD
ENDROOT
BRANCH   1   7
HETATM    7  C   UNL     1     -42.207 -47.943  10.072  1.00  0.00     0.114 A 
HETATM    8  C   UNL     1     -43.185 -47.322  10.860  1.00  0.00    -0.018 A 
HETATM    9  C   UNL     1     -43.016 -47.008  12.320  1.00  0.00     0.052 C 
HETATM   10  C   UNL     1     -44.370 -46.925  10.227  1.00  0.00     0.012 A 
HETATM   11  C   UNL     1     -44.560 -47.169   8.875  1.00  0.00     0.018 A 
HETATM   12  C   UNL     1     -43.555 -47.811   8.185  1.00  0.00     0.089 A 
HETATM   13  N   UNL     1     -42.398 -48.203   8.753  1.00  0.00    -0.352 N 
ATOM     14  HN  UNL     1     -41.683 -48.683   8.206  1.00  0.00     0.166 HD
ENDBRANCH   1   7
BRANCH   4  15
HETATM   15  C   UNL     1     -41.228 -51.716  11.960  1.00  0.00     0.144 C 
BRANCH  15  16
HETATM   16  C   UNL     1     -41.916 -52.004  13.306  1.00  0.00     0.145 C 
BRANCH  16  17
HETATM   17  N   UNL     1     -43.347 -52.292  13.097  1.00  0.00    -0.351 N 
HETATM   18  C   UNL     1     -43.728 -53.654  12.730  1.00  0.00     0.126 C 
HETATM   19  C   UNL     1     -44.326 -54.440  13.888  1.00  0.00     0.020 C 
HETATM   20  C   UNL     1     -45.829 -54.234  14.046  1.00  0.00     0.002 C 
HETATM   21  C   UNL     1     -46.340 -52.828  13.731  1.00  0.00     0.009 C 
HETATM   22  C   UNL     1     -45.460 -51.713  14.266  1.00  0.00     0.103 C 
HETATM   23  C   UNL     1     -44.264 -51.305  13.416  1.00  0.00     0.219 C 
HETATM   24  O   UNL     1     -44.037 -50.112  13.205  1.00  0.00    -0.273 OA
ENDBRANCH  16  17
ENDBRANCH  15  16
ENDBRANCH   4  15
TORSDOF 4
ENDMDL
MODEL 3
REMARK VINA RESULT:      -6.4      1.921      3.257
REMARK  4 active torsions:
REMARK  status: ('A' for Active; 'I' for Inactive)
REMARK    1  A    between atoms: C_8  and  N_9 
REMARK       I    between atoms: N_9  and  C_10 
REMARK       I    between atoms: C_10  and  N_12 
REMARK    2  A    between atoms: N_12  and  C_13 
REMARK    3  A    between atoms: C_13  and  C_14 
REMARK    4  A    between atoms: C_14  and  N_15 
ROOT
HETATM    1  N   UNL     1     -40.453 -51.061  11.310  1.00  0.00    -0.294 N 
HETATM    2  C   UNL     1     -40.876 -51.997  12.197  1.00  0.00     0.321 C 
HETATM    3  O   UNL     1     -40.592 -53.177  11.990  1.00  0.00    -0.247 OA
HETATM    4  N   UNL     1     -41.636 -51.597  13.255  1.00  0.00    -0.341 N 
HETATM    5  H   UNL     1     -39.929 -51.457  10.549  1.00  0.00     0.172 HD
HETATM    6  H   UNL     1     -41.626 -50.598  13.439  1.00  0.00     0.164 HD
ENDROOT
BRANCH   1   7
HETATM    7  C   UNL     1     -40.702 -49.681  11.304  1.00  0.00     0.114 A 
HETATM    8  C   UNL     1     -39.700 -48.788  11.706  1.00  0.00    -0.018 A 
HETATM    9  C   UNL     1     -38.332 -49.208  12.166  1.00  0.00     0.052 C 
HETATM   10  C   UNL     1     -39.982 -47.418  11.619  1.00  0.00     0.012 A 
HETATM   11  C   UNL     1     -41.222 -46.983  11.173  1.00  0.00     0.018 A 
HETATM   12  C   UNL     1     -42.156 -47.935  10.827  1.00  0.00     0.089 A 
HETATM   13  N   UNL     1     -41.924 -49.260  10.889  1.00  0.00    -0.352 N 
ATOM     14  HN  UNL     1     -42.648 -49.931  10.629  1.00  0.00     0.166 HD
ENDBRANCH   1   7
BRANCH   4  15
HETATM   15  C   UNL     1     -42.085 -52.556  14.235  1.00  0.00     0.144 C 
BRANCH  15  16
HETATM   16  C   UNL     1     -43.129 -53.583  13.767  1.00  0.00     0.145 C 
BRANCH  16  17
HETATM   17  N   UNL     1     -44.475 -53.188  14.221  1.00  0.00    -0.351 N 
HETATM   18  C   UNL     1     -44.722 -53.118  15.660  1.00  0.00     0.126 C 
HETATM   19  C   UNL     1     -44.748 -51.693  16.193  1.00  0.00     0.020 C 
HETATM   20  C   UNL     1     -46.119 -51.033  16.089  1.00  0.00     0.002 C 
HETATM   21  C   UNL     1     -46.937 -51.401  14.851  1.00  0.00     0.009 C 
HETATM   22  C   UNL     1     -46.130 -51.456  13.567  1.00  0.00     0.103 C 
HETATM   23  C   UNL     1     -45.382 -52.749  13.271  1.00  0.00     0.219 C 
HETATM   24  O   UNL     1     -45.446 -53.255  12.150  1.00  0.00    -0.273 OA
ENDBRANCH  16  17
ENDBRANCH  15  16
ENDBRANCH   4  15
TORSDOF 4
ENDMDL
MODEL 4
REMARK VINA RESULT:      -6.1      1.664      2.301
REMARK  4 active torsions:
REMARK  status: ('A' for Active; 'I' for Inactive)
REMARK    1  A    between atoms: C_8  and  N_9 
REMARK       I    between atoms: N_9  and  C_10 
REMARK       I    between atoms: C_10  and  N_12 
REMARK    2  A    between atoms: N_12  and  C_13 
REMARK    3  A    between atoms: C_13  and  C_14 
REMARK    4  A    between atoms: C_14  and  N_15 
ROOT
HETATM    1  N   UNL     1     -40.834 -48.020  10.640  1.00  0.00    -0.294 N 
HETATM    2  C   UNL     1     -40.711 -49.183  11.331  1.00  0.00     0.321 C 
HETATM    3  O   UNL     1     -39.598 -49.507  11.745  1.00  0.00    -0.247 OA
HETATM    4  N   UNL     1     -41.816 -49.963  11.498  1.00  0.00    -0.341 N 
HETATM    5  H   UNL     1     -39.960 -47.533  10.542  1.00  0.00     0.172 HD
HETATM    6  H   UNL     1     -42.701 -49.502  11.306  1.00  0.00     0.164 HD
ENDROOT
BRANCH   1   7
HETATM    7  C   UNL     1     -41.973 -47.480  10.027  1.00  0.00     0.114 A 
HETATM    8  C   UNL     1     -42.473 -46.241  10.449  1.00  0.00    -0.018 A 
HETATM    9  C   UNL     1     -41.866 -45.419  11.551  1.00  0.00     0.052 C 
HETATM   10  C   UNL     1     -43.575 -45.719   9.759  1.00  0.00     0.012 A 
HETATM   11  C   UNL     1     -44.152 -46.429   8.716  1.00  0.00     0.018 A 
HETATM   12  C   UNL     1     -43.610 -47.654   8.389  1.00  0.00     0.089 A 
HETATM   13  N   UNL     1     -42.548 -48.189   9.022  1.00  0.00    -0.352 N 
ATOM     14  HN  UNL     1     -42.184 -49.103   8.752  1.00  0.00     0.166 HD
ENDBRANCH   1   7
BRANCH   4  15
HETATM   15  C   UNL     1     -41.735 -51.192  12.247  1.00  0.00     0.144 C 
BRANCH  15  16
HETATM   16  C   UNL     1     -43.066 -51.804  12.716  1.00  0.00     0.145 C 
BRANCH  16  17
HETATM   17  N   UNL     1     -42.837 -53.138  13.301  1.00  0.00    -0.351 N 
HETATM   18  C   UNL     1     -41.574 -53.376  13.998  1.00  0.00     0.126 C 
HETATM   19  C   UNL     1     -41.718 -53.366  15.513  1.00  0.00     0.020 C 
HETATM   20  C   UNL     1     -42.108 -54.722  16.092  1.00  0.00     0.002 C 
HETATM   21  C   UNL     1     -43.065 -55.554  15.240  1.00  0.00     0.009 C 
HETATM   22  C   UNL     1     -44.192 -54.754  14.611  1.00  0.00     0.103 C 
HETATM   23  C   UNL     1     -43.889 -54.039  13.302  1.00  0.00     0.219 C 
HETATM   24  O   UNL     1     -44.677 -54.120  12.359  1.00  0.00    -0.273 OA
ENDBRANCH  16  17
ENDBRANCH  15  16
ENDBRANCH   4  15
TORSDOF 4
ENDMDL
MODEL 5
REMARK VINA RESULT:      -6.0      3.565      6.236
REMARK  4 active torsions:
REMARK  status: ('A' for Active; 'I' for Inactive)
REMARK    1  A    between atoms: C_8  and  N_9 
REMARK       I    between atoms: N_9  and  C_10 
REMARK       I    between atoms: C_10  and  N_12 
REMARK    2  A    between atoms: N_12  and  C_13 
REMARK    3  A    between atoms: C_13  and  C_14 
REMARK    4  A    between atoms: C_14  and  N_15 
ROOT
HETATM    1  N   UNL     1     -44.815 -54.696  14.802  1.00  0.00    -0.294 N 
HETATM    2  C   UNL     1     -43.478 -54.917  14.882  1.00  0.00     0.321 C 
HETATM    3  O   UNL     1     -43.082 -55.937  15.445  1.00  0.00    -0.247 OA
HETATM    4  N   UNL     1     -42.630 -53.979  14.374  1.00  0.00    -0.341 N 
HETATM    5  H   UNL     1     -45.355 -55.427  15.232  1.00  0.00     0.172 HD
HETATM    6  H   UNL     1     -43.062 -53.299  13.755  1.00  0.00     0.164 HD
ENDROOT
BRANCH   1   7
HETATM    7  C   UNL     1     -45.492 -53.591  14.268  1.00  0.00     0.114 A 
HETATM    8  C   UNL     1     -45.980 -52.592  15.120  1.00  0.00    -0.018 A 
HETATM    9  C   UNL     1     -45.837 -52.616  16.616  1.00  0.00     0.052 C 
HETATM   10  C   UNL     1     -46.592 -51.479  14.527  1.00  0.00     0.012 A 
HETATM   11  C   UNL     1     -46.722 -51.399  13.149  1.00  0.00     0.018 A 
HETATM   12  C   UNL     1     -46.237 -52.443  12.391  1.00  0.00     0.089 A 
HETATM   13  N   UNL     1     -45.637 -53.528  12.919  1.00  0.00    -0.352 N 
ATOM     14  HN  UNL     1     -45.299 -54.282  12.321  1.00  0.00     0.166 HD
ENDBRANCH   1   7
BRANCH   4  15
HETATM   15  C   UNL     1     -41.204 -54.186  14.415  1.00  0.00     0.144 C 
BRANCH  15  16
HETATM   16  C   UNL     1     -40.400 -53.696  13.199  1.00  0.00     0.145 C 
BRANCH  16  17
HETATM   17  N   UNL     1     -40.214 -52.235  13.264  1.00  0.00    -0.351 N 
HETATM   18  C   UNL     1     -39.103 -51.718  14.060  1.00  0.00     0.126 C 
HETATM   19  C   UNL     1     -37.926 -51.255  13.213  1.00  0.00     0.020 C 
HETATM   20  C   UNL     1     -38.052 -49.809  12.743  1.00  0.00     0.002 C 
HETATM   21  C   UNL     1     -39.467 -49.345  12.403  1.00  0.00     0.009 C 
HETATM   22  C   UNL     1     -40.287 -50.365  11.632  1.00  0.00     0.103 C 
HETATM   23  C   UNL     1     -40.996 -51.440  12.443  1.00  0.00     0.219 C 
HETATM   24  O   UNL     1     -42.177 -51.707  12.212  1.00  0.00    -0.273 OA
ENDBRANCH  16  17
ENDBRANCH  15  16
ENDBRANCH   4  15
TORSDOF 4
ENDMDL
MODEL 6
REMARK VINA RESULT:      -5.9      2.710      5.634
REMARK  4 active torsions:
REMARK  status: ('A' for Active; 'I' for Inactive)
REMARK    1  A    between atoms: C_8  and  N_9 
REMARK       I    between atoms: N_9  and  C_10 
REMARK       I    between atoms: C_10  and  N_12 
REMARK    2  A    between atoms: N_12  and  C_13 
REMARK    3  A    between atoms: C_13  and  C_14 
REMARK    4  A    between atoms: C_14  and  N_15 
ROOT
HETATM    1  N   UNL     1     -42.576 -52.876  12.850  1.00  0.00    -0.294 N 
HETATM    2  C   UNL     1     -41.562 -52.200  12.249  1.00  0.00     0.321 C 
HETATM    3  O   UNL     1     -40.456 -52.736  12.181  1.00  0.00    -0.247 OA
HETATM    4  N   UNL     1     -41.802 -50.941  11.788  1.00  0.00    -0.341 N 
HETATM    5  H   UNL     1     -42.293 -53.780  13.185  1.00  0.00     0.172 HD
HETATM    6  H   UNL     1     -42.783 -50.691  11.706  1.00  0.00     0.164 HD
ENDROOT
BRANCH   1   7
HETATM    7  C   UNL     1     -43.889 -52.452  13.096  1.00  0.00     0.114 A 
HETATM    8  C   UNL     1     -44.196 -51.786  14.290  1.00  0.00    -0.018 A 
HETATM    9  C   UNL     1     -43.195 -51.485  15.369  1.00  0.00     0.052 C 
HETATM   10  C   UNL     1     -45.510 -51.328  14.455  1.00  0.00     0.012 A 
HETATM   11  C   UNL     1     -46.463 -51.557  13.473  1.00  0.00     0.018 A 
HETATM   12  C   UNL     1     -46.077 -52.247  12.344  1.00  0.00     0.089 A 
HETATM   13  N   UNL     1     -44.823 -52.698  12.142  1.00  0.00    -0.352 N 
ATOM     14  HN  UNL     1     -44.582 -53.211  11.294  1.00  0.00     0.166 HD
ENDBRANCH   1   7
BRANCH   4  15
HETATM   15  C   UNL     1     -40.761 -50.198  11.121  1.00  0.00     0.144 C 
BRANCH  15  16
HETATM   16  C   UNL     1     -40.356 -48.857  11.755  1.00  0.00     0.145 C 
BRANCH  16  17
HETATM   17  N   UNL     1     -39.299 -49.066  12.762  1.00  0.00    -0.351 N 
HETATM   18  C   UNL     1     -39.623 -48.803  14.163  1.00  0.00     0.126 C 
HETATM   19  C   UNL     1     -39.850 -50.073  14.971  1.00  0.00     0.020 C 
HETATM   20  C   UNL     1     -38.565 -50.661  15.546  1.00  0.00     0.002 C 
HETATM   21  C   UNL     1     -37.325 -50.528  14.663  1.00  0.00     0.009 C 
HETATM   22  C   UNL     1     -37.578 -50.803  13.191  1.00  0.00     0.103 C 
HETATM   23  C   UNL     1     -38.113 -49.651  12.352  1.00  0.00     0.219 C 
HETATM   24  O   UNL     1     -37.609 -49.400  11.256  1.00  0.00    -0.273 OA
ENDBRANCH  16  17
ENDBRANCH  15  16
ENDBRANCH   4  15
TORSDOF 4
ENDMDL
MODEL 7
REMARK VINA RESULT:      -5.7      2.432      3.248
REMARK  4 active torsions:
REMARK  status: ('A' for Active; 'I' for Inactive)
REMARK    1  A    between atoms: C_8  and  N_9 
REMARK       I    between atoms: N_9  and  C_10 
REMARK       I    between atoms: C_10  and  N_12 
REMARK    2  A    between atoms: N_12  and  C_13 
REMARK    3  A    between atoms: C_13  and  C_14 
REMARK    4  A    between atoms: C_14  and  N_15 
ROOT
HETATM    1  N   UNL     1     -39.301 -49.386  11.906  1.00  0.00    -0.294 N 
HETATM    2  C   UNL     1     -39.928 -50.478  12.414  1.00  0.00     0.321 C 
HETATM    3  O   UNL     1     -39.380 -51.575  12.307  1.00  0.00    -0.247 OA
HETATM    4  N   UNL     1     -41.158 -50.319  12.980  1.00  0.00    -0.341 N 
HETATM    5  H   UNL     1     -38.417 -49.609  11.482  1.00  0.00     0.172 HD
HETATM    6  H   UNL     1     -41.409 -49.360  13.201  1.00  0.00     0.164 HD
ENDROOT
BRANCH   1   7
HETATM    7  C   UNL     1     -39.751 -48.059  11.856  1.00  0.00     0.114 A 
HETATM    8  C   UNL     1     -39.436 -47.175  12.896  1.00  0.00    -0.018 A 
HETATM    9  C   UNL     1     -38.632 -47.552  14.109  1.00  0.00     0.052 C 
HETATM   10  C   UNL     1     -39.857 -45.845  12.763  1.00  0.00     0.012 A 
HETATM   11  C   UNL     1     -40.578 -45.443  11.649  1.00  0.00     0.018 A 
HETATM   12  C   UNL     1     -40.866 -46.390  10.689  1.00  0.00     0.089 A 
HETATM   13  N   UNL     1     -40.475 -47.676  10.774  1.00  0.00    -0.352 N 
ATOM     14  HN  UNL     1     -40.717 -48.346  10.043  1.00  0.00     0.166 HD
ENDBRANCH   1   7
BRANCH   4  15
HETATM   15  C   UNL     1     -41.847 -51.448  13.553  1.00  0.00     0.144 C 
BRANCH  15  16
HETATM   16  C   UNL     1     -43.068 -51.976  12.781  1.00  0.00     0.145 C 
BRANCH  16  17
HETATM   17  N   UNL     1     -44.196 -52.205  13.703  1.00  0.00    -0.351 N 
HETATM   18  C   UNL     1     -43.955 -52.053  15.136  1.00  0.00     0.126 C 
HETATM   19  C   UNL     1     -44.505 -50.750  15.698  1.00  0.00     0.020 C 
HETATM   20  C   UNL     1     -45.968 -50.843  16.118  1.00  0.00     0.002 C 
HETATM   21  C   UNL     1     -46.852 -51.730  15.242  1.00  0.00     0.009 C 
HETATM   22  C   UNL     1     -46.599 -51.581  13.752  1.00  0.00     0.103 C 
HETATM   23  C   UNL     1     -45.456 -52.393  13.159  1.00  0.00     0.219 C 
HETATM   24  O   UNL     1     -45.626 -53.025  12.115  1.00  0.00    -0.273 OA
ENDBRANCH  16  17
ENDBRANCH  15  16
ENDBRANCH   4  15
TORSDOF 4
ENDMDL
MODEL 8
REMARK VINA RESULT:      -5.6      2.433      6.496
REMARK  4 active torsions:
REMARK  status: ('A' for Active; 'I' for Inactive)
REMARK    1  A    between atoms: C_8  and  N_9 
REMARK       I    between atoms: N_9  and  C_10 
REMARK       I    between atoms: C_10  and  N_12 
REMARK    2  A    between atoms: N_12  and  C_13 
REMARK    3  A    between atoms: C_13  and  C_14 
REMARK    4  A    between atoms: C_14  and  N_15 
ROOT
HETATM    1  N   UNL     1     -42.053 -52.123  11.794  1.00  0.00    -0.294 N 
HETATM    2  C   UNL     1     -41.597 -50.890  12.135  1.00  0.00     0.321 C 
HETATM    3  O   UNL     1     -40.718 -50.375  11.445  1.00  0.00    -0.247 OA
HETATM    4  N   UNL     1     -42.100 -50.295  13.253  1.00  0.00    -0.341 N 
HETATM    5  H   UNL     1     -41.599 -52.491  10.976  1.00  0.00     0.172 HD
HETATM    6  H   UNL     1     -42.956 -50.709  13.613  1.00  0.00     0.164 HD
ENDROOT
BRANCH   1   7
HETATM    7  C   UNL     1     -42.995 -52.924  12.454  1.00  0.00     0.114 A 
HETATM    8  C   UNL     1     -42.566 -53.897  13.367  1.00  0.00    -0.018 A 
HETATM    9  C   UNL     1     -41.126 -54.164  13.700  1.00  0.00     0.052 C 
HETATM   10  C   UNL     1     -43.553 -54.626  14.045  1.00  0.00     0.012 A 
HETATM   11  C   UNL     1     -44.897 -54.395  13.791  1.00  0.00     0.018 A 
HETATM   12  C   UNL     1     -45.224 -53.437  12.856  1.00  0.00     0.089 A 
HETATM   13  N   UNL     1     -44.308 -52.710  12.186  1.00  0.00    -0.352 N 
ATOM     14  HN  UNL     1     -44.595 -52.016  11.495  1.00  0.00     0.166 HD
ENDBRANCH   1   7
BRANCH   4  15
HETATM   15  C   UNL     1     -41.662 -48.976  13.637  1.00  0.00     0.144 C 
BRANCH  15  16
HETATM   16  C   UNL     1     -42.706 -47.849  13.550  1.00  0.00     0.145 C 
BRANCH  16  17
HETATM   17  N   UNL     1     -42.234 -46.784  12.645  1.00  0.00    -0.351 N 
HETATM   18  C   UNL     1     -41.790 -45.525  13.240  1.00  0.00     0.126 C 
HETATM   19  C   UNL     1     -40.275 -45.381  13.270  1.00  0.00     0.020 C 
HETATM   20  C   UNL     1     -39.698 -44.793  11.986  1.00  0.00     0.002 C 
HETATM   21  C   UNL     1     -40.400 -45.210  10.694  1.00  0.00     0.009 C 
HETATM   22  C   UNL     1     -40.777 -46.680  10.638  1.00  0.00     0.103 C 
HETATM   23  C   UNL     1     -42.085 -47.087  11.302  1.00  0.00     0.219 C 
HETATM   24  O   UNL     1     -42.873 -47.826  10.710  1.00  0.00    -0.273 OA
ENDBRANCH  16  17
ENDBRANCH  15  16
ENDBRANCH   4  15
TORSDOF 4
ENDMDL
MODEL 9
REMARK VINA RESULT:      -5.6      2.672      6.562
REMARK  4 active torsions:
REMARK  status: ('A' for Active; 'I' for Inactive)
REMARK    1  A    between atoms: C_8  and  N_9 
REMARK       I    between atoms: N_9  and  C_10 
REMARK       I    between atoms: C_10  and  N_12 
REMARK    2  A    between atoms: N_12  and  C_13 
REMARK    3  A    between atoms: C_13  and  C_14 
REMARK    4  A    between atoms: C_14  and  N_15 
ROOT
HETATM    1  N   UNL     1     -40.891 -51.725  11.648  1.00  0.00    -0.294 N 
HETATM    2  C   UNL     1     -41.068 -50.409  11.365  1.00  0.00     0.321 C 
HETATM    3  O   UNL     1     -40.136 -49.784  10.859  1.00  0.00    -0.247 OA
HETATM    4  N   UNL     1     -42.254 -49.824  11.695  1.00  0.00    -0.341 N 
HETATM    5  H   UNL     1     -39.975 -52.055  11.398  1.00  0.00     0.172 HD
HETATM    6  H   UNL     1     -43.009 -50.471  11.905  1.00  0.00     0.164 HD
ENDROOT
BRANCH   1   7
HETATM    7  C   UNL     1     -41.776 -52.616  12.272  1.00  0.00     0.114 A 
HETATM    8  C   UNL     1     -41.349 -53.369  13.372  1.00  0.00    -0.018 A 
HETATM    9  C   UNL     1     -39.965 -53.301  13.954  1.00  0.00     0.052 C 
HETATM   10  C   UNL     1     -42.294 -54.195  13.996  1.00  0.00     0.012 A 
HETATM   11  C   UNL     1     -43.591 -54.270  13.512  1.00  0.00     0.018 A 
HETATM   12  C   UNL     1     -43.914 -53.513  12.406  1.00  0.00     0.089 A 
HETATM   13  N   UNL     1     -43.039 -52.702  11.780  1.00  0.00    -0.352 N 
ATOM     14  HN  UNL     1     -43.318 -52.165  10.959  1.00  0.00     0.166 HD
ENDBRANCH   1   7
BRANCH   4  15
HETATM   15  C   UNL     1     -42.492 -48.435  11.390  1.00  0.00     0.144 C 
BRANCH  15  16
HETATM   16  C   UNL     1     -42.423 -47.448  12.568  1.00  0.00     0.145 C 
BRANCH  16  17
HETATM   17  N   UNL     1     -41.039 -46.978  12.761  1.00  0.00    -0.351 N 
HETATM   18  C   UNL     1     -40.417 -46.210  11.683  1.00  0.00     0.126 C 
HETATM   19  C   UNL     1     -40.358 -44.717  11.972  1.00  0.00     0.020 C 
HETATM   20  C   UNL     1     -39.121 -44.304  12.763  1.00  0.00     0.002 C 
HETATM   21  C   UNL     1     -38.644 -45.304  13.815  1.00  0.00     0.009 C 
HETATM   22  C   UNL     1     -39.763 -45.940  14.620  1.00  0.00     0.103 C 
HETATM   23  C   UNL     1     -40.460 -47.147  14.007  1.00  0.00     0.219 C 
HETATM   24  O   UNL     1     -40.664 -48.152  14.689  1.00  0.00    -0.273 OA
ENDBRANCH  16  17
ENDBRANCH  15  16
ENDBRANCH   4  15
TORSDOF 4
ENDMDL
