MODEL 1
REMARK VINA RESULT:      -6.1      0.000      0.000
REMARK  5 active torsions:
REMARK  status: ('A' for Active; 'I' for Inactive)
REMARK    1  A    between atoms: C_2  and  C_5 
REMARK    2  A    between atoms: N_9  and  C_10 
REMARK    3  A    between atoms: C_10  and  C_11 
REMARK       I    between atoms: C_11  and  N_13 
REMARK    4  A    between atoms: N_13  and  C_14 
REMARK    5  A    between atoms: N_17  and  C_19 
ROOT
HETATM    1  C   UNL     1     -42.377 -52.013  12.488  1.00  0.00     0.234 C 
ENDROOT
BRANCH   1   2
HETATM    2  N   UNL     1     -43.157 -51.998  13.719  1.00  0.00    -0.315 N 
HETATM    3  C   UNL     1     -42.519 -51.833  14.933  1.00  0.00     0.095 C 
HETATM    4  C   UNL     1     -43.225 -51.720  16.062  1.00  0.00     0.018 C 
HETATM    5  C   UNL     1     -44.663 -51.684  16.004  1.00  0.00     0.023 C 
HETATM    6  C   UNL     1     -45.322 -51.893  14.844  1.00  0.00     0.115 C 
HETATM    7  C   UNL     1     -44.538 -52.181  13.618  1.00  0.00     0.263 C 
HETATM    8  O   UNL     1     -45.070 -52.543  12.570  1.00  0.00    -0.267 OA
BRANCH   6   9
HETATM    9  C   UNL     1     -46.794 -51.768  14.711  1.00  0.00     0.422 C 
HETATM   10  F   UNL     1     -47.441 -51.169  15.740  1.00  0.00    -0.166 F 
HETATM   11  F   UNL     1     -47.366 -52.997  14.577  1.00  0.00    -0.166 F 
HETATM   12  F   UNL     1     -47.131 -51.077  13.588  1.00  0.00    -0.166 F 
ENDBRANCH   6   9
ENDBRANCH   1   2
BRANCH   1  13
HETATM   13  C   UNL     1     -41.663 -50.691  12.251  1.00  0.00     0.236 C 
HETATM   14  O   UNL     1     -40.435 -50.617  12.198  1.00  0.00    -0.272 OA
HETATM   15  N   UNL     1     -42.500 -49.610  12.083  1.00  0.00    -0.353 N 
HETATM   16  H   UNL     1     -43.476 -49.803  11.847  1.00  0.00     0.163 HD
BRANCH  15  17
HETATM   17  C   UNL     1     -41.953 -48.292  11.855  1.00  0.00     0.114 C 
HETATM   18  C   UNL     1     -42.809 -47.154  12.391  1.00  0.00     0.057 C 
HETATM   19  C   UNL     1     -42.525 -45.983  11.449  1.00  0.00     0.275 C 
HETATM   20  N   UNL     1     -41.569 -46.446  10.425  1.00  0.00     0.095 N 
HETATM   21  C   UNL     1     -41.773 -47.910  10.385  1.00  0.00     0.298 C 
BRANCH  20  22
HETATM   22  C   UNL     1     -40.161 -46.116  10.750  1.00  0.00     0.223 A 
HETATM   23  C   UNL     1     -39.813 -44.865  11.505  1.00  0.00     0.038 A 
HETATM   24  C   UNL     1     -39.531 -44.950  10.035  1.00  0.00     0.038 A 
ENDBRANCH  20  22
ENDBRANCH  15  17
ENDBRANCH   1  13
TORSDOF 5
ENDMDL
MODEL 2
REMARK VINA RESULT:      -6.1      1.867      2.135
REMARK  5 active torsions:
REMARK  status: ('A' for Active; 'I' for Inactive)
REMARK    1  A    between atoms: C_2  and  C_5 
REMARK    2  A    between atoms: N_9  and  C_10 
REMARK    3  A    between atoms: C_10  and  C_11 
REMARK       I    between atoms: C_11  and  N_13 
REMARK    4  A    between atoms: N_13  and  C_14 
REMARK    5  A    between atoms: N_17  and  C_19 
ROOT
HETATM    1  C   UNL     1     -41.547 -53.096  11.977  1.00  0.00     0.234 C 
ENDROOT
BRANCH   1   2
HETATM    2  N   UNL     1     -42.130 -53.699  13.169  1.00  0.00    -0.315 N 
HETATM    3  C   UNL     1     -41.329 -53.977  14.259  1.00  0.00     0.095 C 
HETATM    4  C   UNL     1     -41.862 -54.439  15.394  1.00  0.00     0.018 C 
HETATM    5  C   UNL     1     -43.292 -54.567  15.511  1.00  0.00     0.023 C 
HETATM    6  C   UNL     1     -44.102 -54.354  14.452  1.00  0.00     0.115 C 
HETATM    7  C   UNL     1     -43.494 -53.998  13.146  1.00  0.00     0.263 C 
HETATM    8  O   UNL     1     -44.152 -53.954  12.108  1.00  0.00    -0.267 OA
BRANCH   6   9
HETATM    9  C   UNL     1     -45.582 -54.376  14.544  1.00  0.00     0.422 C 
HETATM   10  F   UNL     1     -46.232 -53.307  14.023  1.00  0.00    -0.166 F 
HETATM   11  F   UNL     1     -45.978 -54.454  15.845  1.00  0.00    -0.166 F 
HETATM   12  F   UNL     1     -46.099 -55.477  13.932  1.00  0.00    -0.166 F 
ENDBRANCH   6   9
ENDBRANCH   1   2
BRANCH   1  13
HETATM   13  C   UNL     1     -41.128 -51.654  12.216  1.00  0.00     0.236 C 
HETATM   14  O   UNL     1     -40.053 -51.368  12.743  1.00  0.00    -0.272 OA
HETATM   15  N   UNL     1     -42.035 -50.714  11.777  1.00  0.00    -0.353 N 
HETATM   16  H   UNL     1     -42.739 -51.019  11.101  1.00  0.00     0.163 HD
BRANCH  15  17
HETATM   17  C   UNL     1     -41.765 -49.304  11.947  1.00  0.00     0.114 C 
HETATM   18  C   UNL     1     -42.810 -48.557  12.762  1.00  0.00     0.057 C 
HETATM   19  C   UNL     1     -42.792 -47.135  12.197  1.00  0.00     0.275 C 
HETATM   20  N   UNL     1     -41.797 -47.091  11.109  1.00  0.00     0.095 N 
HETATM   21  C   UNL     1     -41.711 -48.494  10.650  1.00  0.00     0.298 C 
BRANCH  20  22
HETATM   22  C   UNL     1     -40.472 -46.595  11.550  1.00  0.00     0.223 A 
HETATM   23  C   UNL     1     -40.329 -45.259  12.221  1.00  0.00     0.038 A 
HETATM   24  C   UNL     1     -39.873 -45.433  10.803  1.00  0.00     0.038 A 
ENDBRANCH  20  22
ENDBRANCH  15  17
ENDBRANCH   1  13
TORSDOF 5
ENDMDL
MODEL 3
REMARK VINA RESULT:      -6.0      3.420      4.222
REMARK  5 active torsions:
REMARK  status: ('A' for Active; 'I' for Inactive)
REMARK    1  A    between atoms: C_2  and  C_5 
REMARK    2  A    between atoms: N_9  and  C_10 
REMARK    3  A    between atoms: C_10  and  C_11 
REMARK       I    between atoms: C_11  and  N_13 
REMARK    4  A    between atoms: N_13  and  C_14 
REMARK    5  A    between atoms: N_17  and  C_19 
ROOT
HETATM    1  C   UNL     1     -43.686 -54.315  14.299  1.00  0.00     0.234 C 
ENDROOT
BRANCH   1   2
HETATM    2  N   UNL     1     -44.702 -53.273  14.212  1.00  0.00    -0.315 N 
HETATM    3  C   UNL     1     -45.246 -52.946  12.985  1.00  0.00     0.095 C 
HETATM    4  C   UNL     1     -46.245 -52.064  12.898  1.00  0.00     0.018 C 
HETATM    5  C   UNL     1     -46.818 -51.513  14.099  1.00  0.00     0.023 C 
HETATM    6  C   UNL     1     -46.281 -51.769  15.311  1.00  0.00     0.115 C 
HETATM    7  C   UNL     1     -45.069 -52.621  15.391  1.00  0.00     0.263 C 
HETATM    8  O   UNL     1     -44.433 -52.758  16.435  1.00  0.00    -0.267 OA
BRANCH   6   9
HETATM    9  C   UNL     1     -46.889 -51.309  16.583  1.00  0.00     0.422 C 
HETATM   10  F   UNL     1     -47.042 -52.246  17.550  1.00  0.00    -0.166 F 
HETATM   11  F   UNL     1     -48.133 -50.799  16.359  1.00  0.00    -0.166 F 
HETATM   12  F   UNL     1     -46.168 -50.296  17.137  1.00  0.00    -0.166 F 
ENDBRANCH   6   9
ENDBRANCH   1   2
BRANCH   1  13
HETATM   13  C   UNL     1     -42.338 -53.840  13.778  1.00  0.00     0.236 C 
HETATM   14  O   UNL     1     -41.733 -54.447  12.895  1.00  0.00    -0.272 OA
HETATM   15  N   UNL     1     -41.876 -52.678  14.359  1.00  0.00    -0.353 N 
HETATM   16  H   UNL     1     -42.558 -52.095  14.850  1.00  0.00     0.163 HD
BRANCH  15  17
HETATM   17  C   UNL     1     -40.605 -52.119  13.961  1.00  0.00     0.114 C 
HETATM   18  C   UNL     1     -39.548 -52.116  15.055  1.00  0.00     0.057 C 
HETATM   19  C   UNL     1     -38.677 -50.897  14.745  1.00  0.00     0.275 C 
HETATM   20  N   UNL     1     -39.228 -50.240  13.544  1.00  0.00     0.095 N 
HETATM   21  C   UNL     1     -40.649 -50.650  13.535  1.00  0.00     0.298 C 
BRANCH  20  22
HETATM   22  C   UNL     1     -38.550 -50.650  12.292  1.00  0.00     0.223 A 
HETATM   23  C   UNL     1     -37.069 -50.897  12.257  1.00  0.00     0.038 A 
HETATM   24  C   UNL     1     -37.632 -49.655  11.632  1.00  0.00     0.038 A 
ENDBRANCH  20  22
ENDBRANCH  15  17
ENDBRANCH   1  13
TORSDOF 5
ENDMDL
MODEL 4
REMARK VINA RESULT:      -5.8      3.632      7.348
REMARK  5 active torsions:
REMARK  status: ('A' for Active; 'I' for Inactive)
REMARK    1  A    between atoms: C_2  and  C_5 
REMARK    2  A    between atoms: N_9  and  C_10 
REMARK    3  A    between atoms: C_10  and  C_11 
REMARK       I    between atoms: C_11  and  N_13 
REMARK    4  A    between atoms: N_13  and  C_14 
REMARK    5  A    between atoms: N_17  and  C_19 
ROOT
HETATM    1  C   UNL     1     -39.755 -47.900  11.573  1.00  0.00     0.234 C 
ENDROOT
BRANCH   1   2
HETATM    2  N   UNL     1     -40.746 -46.840  11.431  1.00  0.00    -0.315 N 
HETATM    3  C   UNL     1     -40.601 -45.665  12.143  1.00  0.00     0.095 C 
HETATM    4  C   UNL     1     -41.444 -44.647  11.953  1.00  0.00     0.018 C 
HETATM    5  C   UNL     1     -42.461 -44.742  10.938  1.00  0.00     0.023 C 
HETATM    6  C   UNL     1     -42.667 -45.890  10.259  1.00  0.00     0.115 C 
HETATM    7  C   UNL     1     -41.833 -47.073  10.586  1.00  0.00     0.263 C 
HETATM    8  O   UNL     1     -42.074 -48.190  10.130  1.00  0.00    -0.267 OA
BRANCH   6   9
HETATM    9  C   UNL     1     -43.631 -46.011   9.138  1.00  0.00     0.422 C 
HETATM   10  F   UNL     1     -43.112 -46.348   7.933  1.00  0.00    -0.166 F 
HETATM   11  F   UNL     1     -44.286 -44.832   8.944  1.00  0.00    -0.166 F 
HETATM   12  F   UNL     1     -44.596 -46.930   9.414  1.00  0.00    -0.166 F 
ENDBRANCH   6   9
ENDBRANCH   1   2
BRANCH   1  13
HETATM   13  C   UNL     1     -40.217 -48.985  12.534  1.00  0.00     0.236 C 
HETATM   14  O   UNL     1     -40.399 -48.759  13.730  1.00  0.00    -0.272 OA
HETATM   15  N   UNL     1     -40.429 -50.215  11.949  1.00  0.00    -0.353 N 
HETATM   16  H   UNL     1     -40.542 -50.240  10.933  1.00  0.00     0.163 HD
BRANCH  15  17
HETATM   17  C   UNL     1     -40.864 -51.337  12.749  1.00  0.00     0.114 C 
HETATM   18  C   UNL     1     -39.733 -52.168  13.335  1.00  0.00     0.057 C 
HETATM   19  C   UNL     1     -40.304 -53.584  13.429  1.00  0.00     0.275 C 
HETATM   20  N   UNL     1     -41.683 -53.552  12.907  1.00  0.00     0.095 N 
HETATM   21  C   UNL     1     -41.693 -52.383  12.000  1.00  0.00     0.298 C 
BRANCH  20  22
HETATM   22  C   UNL     1     -42.707 -53.407  13.969  1.00  0.00     0.223 A 
HETATM   23  C   UNL     1     -42.828 -54.419  15.072  1.00  0.00     0.038 A 
HETATM   24  C   UNL     1     -43.853 -54.383  13.978  1.00  0.00     0.038 A 
ENDBRANCH  20  22
ENDBRANCH  15  17
ENDBRANCH   1  13
TORSDOF 5
ENDMDL
MODEL 5
REMARK VINA RESULT:      -5.8      6.108     10.669
REMARK  5 active torsions:
REMARK  status: ('A' for Active; 'I' for Inactive)
REMARK    1  A    between atoms: C_2  and  C_5 
REMARK    2  A    between atoms: N_9  and  C_10 
REMARK    3  A    between atoms: C_10  and  C_11 
REMARK       I    between atoms: C_11  and  N_13 
REMARK    4  A    between atoms: N_13  and  C_14 
REMARK    5  A    between atoms: N_17  and  C_19 
ROOT
HETATM    1  C   UNL     1     -45.972 -52.271  17.981  1.00  0.00     0.234 C 
ENDROOT
BRANCH   1   2
HETATM    2  N   UNL     1     -46.145 -52.414  16.541  1.00  0.00    -0.315 N 
HETATM    3  C   UNL     1     -46.683 -51.373  15.808  1.00  0.00     0.095 C 
HETATM    4  C   UNL     1     -46.758 -51.448  14.476  1.00  0.00     0.018 C 
HETATM    5  C   UNL     1     -46.198 -52.584  13.792  1.00  0.00     0.023 C 
HETATM    6  C   UNL     1     -45.711 -53.642  14.475  1.00  0.00     0.115 C 
HETATM    7  C   UNL     1     -45.776 -53.628  15.957  1.00  0.00     0.263 C 
HETATM    8  O   UNL     1     -45.508 -54.619  16.635  1.00  0.00    -0.267 OA
BRANCH   6   9
HETATM    9  C   UNL     1     -45.035 -54.790  13.823  1.00  0.00     0.422 C 
HETATM   10  F   UNL     1     -43.911 -55.246  14.426  1.00  0.00    -0.166 F 
HETATM   11  F   UNL     1     -44.671 -54.468  12.550  1.00  0.00    -0.166 F 
HETATM   12  F   UNL     1     -45.873 -55.857  13.710  1.00  0.00    -0.166 F 
ENDBRANCH   6   9
ENDBRANCH   1   2
BRANCH   1  13
HETATM   13  C   UNL     1     -47.098 -52.936  18.758  1.00  0.00     0.236 C 
HETATM   14  O   UNL     1     -48.218 -52.432  18.838  1.00  0.00    -0.272 OA
HETATM   15  N   UNL     1     -46.762 -54.142  19.334  1.00  0.00    -0.353 N 
HETATM   16  H   UNL     1     -45.931 -54.618  18.977  1.00  0.00     0.163 HD
BRANCH  15  17
HETATM   17  C   UNL     1     -47.737 -54.879  20.105  1.00  0.00     0.114 C 
HETATM   18  C   UNL     1     -47.533 -54.806  21.611  1.00  0.00     0.057 C 
HETATM   19  C   UNL     1     -48.073 -56.138  22.136  1.00  0.00     0.275 C 
HETATM   20  N   UNL     1     -48.543 -56.925  20.981  1.00  0.00     0.095 N 
HETATM   21  C   UNL     1     -47.765 -56.386  19.844  1.00  0.00     0.298 C 
BRANCH  20  22
HETATM   22  C   UNL     1     -49.999 -56.791  20.736  1.00  0.00     0.223 A 
HETATM   23  C   UNL     1     -51.001 -57.404  21.671  1.00  0.00     0.038 A 
HETATM   24  C   UNL     1     -50.759 -58.024  20.328  1.00  0.00     0.038 A 
ENDBRANCH  20  22
ENDBRANCH  15  17
ENDBRANCH   1  13
TORSDOF 5
ENDMDL
MODEL 6
REMARK VINA RESULT:      -5.7      3.023      3.620
REMARK  5 active torsions:
REMARK  status: ('A' for Active; 'I' for Inactive)
REMARK    1  A    between atoms: C_2  and  C_5 
REMARK    2  A    between atoms: N_9  and  C_10 
REMARK    3  A    between atoms: C_10  and  C_11 
REMARK       I    between atoms: C_11  and  N_13 
REMARK    4  A    between atoms: N_13  and  C_14 
REMARK    5  A    between atoms: N_17  and  C_19 
ROOT
HETATM    1  C   UNL     1     -41.498 -54.131  13.353  1.00  0.00     0.234 C 
ENDROOT
BRANCH   1   2
HETATM    2  N   UNL     1     -42.909 -54.122  13.718  1.00  0.00    -0.315 N 
HETATM    3  C   UNL     1     -43.348 -54.893  14.777  1.00  0.00     0.095 C 
HETATM    4  C   UNL     1     -44.617 -54.823  15.187  1.00  0.00     0.018 C 
HETATM    5  C   UNL     1     -45.514 -53.877  14.577  1.00  0.00     0.023 C 
HETATM    6  C   UNL     1     -45.137 -53.144  13.507  1.00  0.00     0.115 C 
HETATM    7  C   UNL     1     -43.776 -53.341  12.951  1.00  0.00     0.263 C 
HETATM    8  O   UNL     1     -43.424 -52.836  11.886  1.00  0.00    -0.267 OA
BRANCH   6   9
HETATM    9  C   UNL     1     -45.985 -52.088  12.905  1.00  0.00     0.422 C 
HETATM   10  F   UNL     1     -46.472 -52.341  11.666  1.00  0.00    -0.166 F 
HETATM   11  F   UNL     1     -45.290 -50.920  12.800  1.00  0.00    -0.166 F 
HETATM   12  F   UNL     1     -47.060 -51.810  13.692  1.00  0.00    -0.166 F 
ENDBRANCH   6   9
ENDBRANCH   1   2
BRANCH   1  13
HETATM   13  C   UNL     1     -40.800 -52.839  13.748  1.00  0.00     0.236 C 
HETATM   14  O   UNL     1     -40.561 -52.563  14.924  1.00  0.00    -0.272 OA
HETATM   15  N   UNL     1     -40.446 -52.031  12.689  1.00  0.00    -0.353 N 
HETATM   16  H   UNL     1     -40.411 -52.460  11.762  1.00  0.00     0.163 HD
BRANCH  15  17
HETATM   17  C   UNL     1     -39.781 -50.770  12.924  1.00  0.00     0.114 C 
HETATM   18  C   UNL     1     -39.846 -49.797  11.756  1.00  0.00     0.057 C 
HETATM   19  C   UNL     1     -38.557 -48.980  11.865  1.00  0.00     0.275 C 
HETATM   20  N   UNL     1     -37.799 -49.481  13.027  1.00  0.00     0.095 N 
HETATM   21  C   UNL     1     -38.278 -50.870  13.193  1.00  0.00     0.298 C 
BRANCH  20  22
HETATM   22  C   UNL     1     -38.031 -48.690  14.259  1.00  0.00     0.223 A 
HETATM   23  C   UNL     1     -38.236 -47.204  14.199  1.00  0.00     0.038 A 
HETATM   24  C   UNL     1     -36.940 -47.758  14.711  1.00  0.00     0.038 A 
ENDBRANCH  20  22
ENDBRANCH  15  17
ENDBRANCH   1  13
TORSDOF 5
ENDMDL
MODEL 7
REMARK VINA RESULT:      -5.7      3.385      4.141
REMARK  5 active torsions:
REMARK  status: ('A' for Active; 'I' for Inactive)
REMARK    1  A    between atoms: C_2  and  C_5 
REMARK    2  A    between atoms: N_9  and  C_10 
REMARK    3  A    between atoms: C_10  and  C_11 
REMARK       I    between atoms: C_11  and  N_13 
REMARK    4  A    between atoms: N_13  and  C_14 
REMARK    5  A    between atoms: N_17  and  C_19 
ROOT
HETATM    1  C   UNL     1     -42.814 -54.994  14.841  1.00  0.00     0.234 C 
ENDROOT
BRANCH   1   2
HETATM    2  N   UNL     1     -43.921 -54.132  15.234  1.00  0.00    -0.315 N 
HETATM    3  C   UNL     1     -44.150 -53.877  16.573  1.00  0.00     0.095 C 
HETATM    4  C   UNL     1     -45.098 -53.014  16.948  1.00  0.00     0.018 C 
HETATM    5  C   UNL     1     -45.830 -52.278  15.949  1.00  0.00     0.023 C 
HETATM    6  C   UNL     1     -45.670 -52.537  14.634  1.00  0.00     0.115 C 
HETATM    7  C   UNL     1     -44.734 -53.612  14.224  1.00  0.00     0.263 C 
HETATM    8  O   UNL     1     -44.663 -54.013  13.064  1.00  0.00    -0.267 OA
BRANCH   6   9
HETATM    9  C   UNL     1     -46.323 -51.743  13.565  1.00  0.00     0.422 C 
HETATM   10  F   UNL     1     -46.916 -52.447  12.570  1.00  0.00    -0.166 F 
HETATM   11  F   UNL     1     -45.417 -50.929  12.954  1.00  0.00    -0.166 F 
HETATM   12  F   UNL     1     -47.278 -50.918  14.075  1.00  0.00    -0.166 F 
ENDBRANCH   6   9
ENDBRANCH   1   2
BRANCH   1  13
HETATM   13  C   UNL     1     -41.730 -54.226  14.100  1.00  0.00     0.236 C 
HETATM   14  O   UNL     1     -41.414 -54.503  12.943  1.00  0.00    -0.272 OA
HETATM   15  N   UNL     1     -41.161 -53.199  14.822  1.00  0.00    -0.353 N 
HETATM   16  H   UNL     1     -41.675 -52.856  15.636  1.00  0.00     0.163 HD
BRANCH  15  17
HETATM   17  C   UNL     1     -40.114 -52.391  14.239  1.00  0.00     0.114 C 
HETATM   18  C   UNL     1     -38.922 -52.152  15.153  1.00  0.00     0.057 C 
HETATM   19  C   UNL     1     -38.385 -50.782  14.734  1.00  0.00     0.275 C 
HETATM   20  N   UNL     1     -39.244 -50.271  13.648  1.00  0.00     0.095 N 
HETATM   21  C   UNL     1     -40.531 -50.970  13.854  1.00  0.00     0.298 C 
BRANCH  20  22
HETATM   22  C   UNL     1     -38.701 -50.548  12.297  1.00  0.00     0.223 A 
HETATM   23  C   UNL     1     -37.235 -50.793  12.086  1.00  0.00     0.038 A 
HETATM   24  C   UNL     1     -37.842 -49.491  11.655  1.00  0.00     0.038 A 
ENDBRANCH  20  22
ENDBRANCH  15  17
ENDBRANCH   1  13
TORSDOF 5
ENDMDL
MODEL 8
REMARK VINA RESULT:      -5.5      3.969      7.565
REMARK  5 active torsions:
REMARK  status: ('A' for Active; 'I' for Inactive)
REMARK    1  A    between atoms: C_2  and  C_5 
REMARK    2  A    between atoms: N_9  and  C_10 
REMARK    3  A    between atoms: C_10  and  C_11 
REMARK       I    between atoms: C_11  and  N_13 
REMARK    4  A    between atoms: N_13  and  C_14 
REMARK    5  A    between atoms: N_17  and  C_19 
ROOT
HETATM    1  C   UNL     1     -40.341 -50.107  11.333  1.00  0.00     0.234 C 
ENDROOT
BRANCH   1   2
HETATM    2  N   UNL     1     -40.124 -48.811  11.964  1.00  0.00    -0.315 N 
HETATM    3  C   UNL     1     -39.459 -48.741  13.173  1.00  0.00     0.095 C 
HETATM    4  C   UNL     1     -39.165 -47.557  13.719  1.00  0.00     0.018 C 
HETATM    5  C   UNL     1     -39.467 -46.346  13.002  1.00  0.00     0.023 C 
HETATM    6  C   UNL     1     -40.160 -46.372  11.843  1.00  0.00     0.115 C 
HETATM    7  C   UNL     1     -40.628 -47.679  11.320  1.00  0.00     0.263 C 
HETATM    8  O   UNL     1     -41.402 -47.765  10.368  1.00  0.00    -0.267 OA
BRANCH   6   9
HETATM    9  C   UNL     1     -40.410 -45.166  11.017  1.00  0.00     0.422 C 
HETATM   10  F   UNL     1     -41.705 -44.896  10.724  1.00  0.00    -0.166 F 
HETATM   11  F   UNL     1     -39.771 -45.269   9.818  1.00  0.00    -0.166 F 
HETATM   12  F   UNL     1     -39.908 -44.049  11.611  1.00  0.00    -0.166 F 
ENDBRANCH   6   9
ENDBRANCH   1   2
BRANCH   1  13
HETATM   13  C   UNL     1     -41.120 -51.055  12.232  1.00  0.00     0.236 C 
HETATM   14  O   UNL     1     -40.556 -51.892  12.936  1.00  0.00    -0.272 OA
HETATM   15  N   UNL     1     -42.487 -50.878  12.204  1.00  0.00    -0.353 N 
HETATM   16  H   UNL     1     -42.839 -49.992  11.836  1.00  0.00     0.163 HD
BRANCH  15  17
HETATM   17  C   UNL     1     -43.347 -51.716  13.007  1.00  0.00     0.114 C 
HETATM   18  C   UNL     1     -43.731 -53.034  12.352  1.00  0.00     0.057 C 
HETATM   19  C   UNL     1     -45.117 -53.354  12.916  1.00  0.00     0.275 C 
HETATM   20  N   UNL     1     -45.499 -52.260  13.830  1.00  0.00     0.095 N 
HETATM   21  C   UNL     1     -44.707 -51.106  13.352  1.00  0.00     0.298 C 
BRANCH  20  22
HETATM   22  C   UNL     1     -45.199 -52.556  15.251  1.00  0.00     0.223 A 
HETATM   23  C   UNL     1     -45.635 -53.847  15.882  1.00  0.00     0.038 A 
HETATM   24  C   UNL     1     -46.349 -52.573  16.222  1.00  0.00     0.038 A 
ENDBRANCH  20  22
ENDBRANCH  15  17
ENDBRANCH   1  13
TORSDOF 5
ENDMDL
MODEL 9
REMARK VINA RESULT:      -5.5      3.380      3.834
REMARK  5 active torsions:
REMARK  status: ('A' for Active; 'I' for Inactive)
REMARK    1  A    between atoms: C_2  and  C_5 
REMARK    2  A    between atoms: N_9  and  C_10 
REMARK    3  A    between atoms: C_10  and  C_11 
REMARK       I    between atoms: C_11  and  N_13 
REMARK    4  A    between atoms: N_13  and  C_14 
REMARK    5  A    between atoms: N_17  and  C_19 
ROOT
HETATM    1  C   UNL     1     -40.976 -52.843  12.259  1.00  0.00     0.234 C 
ENDROOT
BRANCH   1   2
HETATM    2  N   UNL     1     -41.881 -53.482  13.206  1.00  0.00    -0.315 N 
HETATM    3  C   UNL     1     -43.226 -53.585  12.906  1.00  0.00     0.095 C 
HETATM    4  C   UNL     1     -44.053 -54.252  13.714  1.00  0.00     0.018 C 
HETATM    5  C   UNL     1     -43.527 -54.942  14.863  1.00  0.00     0.023 C 
HETATM    6  C   UNL     1     -42.229 -54.823  15.217  1.00  0.00     0.115 C 
HETATM    7  C   UNL     1     -41.345 -53.948  14.408  1.00  0.00     0.263 C 
HETATM    8  O   UNL     1     -40.203 -53.661  14.764  1.00  0.00    -0.267 OA
BRANCH   6   9
HETATM    9  C   UNL     1     -41.616 -55.588  16.329  1.00  0.00     0.422 C 
HETATM   10  F   UNL     1     -41.378 -54.901  17.473  1.00  0.00    -0.166 F 
HETATM   11  F   UNL     1     -40.413 -56.102  15.948  1.00  0.00    -0.166 F 
HETATM   12  F   UNL     1     -42.383 -56.658  16.675  1.00  0.00    -0.166 F 
ENDBRANCH   6   9
ENDBRANCH   1   2
BRANCH   1  13
HETATM   13  C   UNL     1     -40.908 -51.337  12.465  1.00  0.00     0.236 C 
HETATM   14  O   UNL     1     -40.165 -50.829  13.304  1.00  0.00    -0.272 OA
HETATM   15  N   UNL     1     -41.723 -50.608  11.626  1.00  0.00    -0.353 N 
HETATM   16  H   UNL     1     -42.068 -51.073  10.784  1.00  0.00     0.163 HD
BRANCH  15  17
HETATM   17  C   UNL     1     -41.761 -49.166  11.719  1.00  0.00     0.114 C 
HETATM   18  C   UNL     1     -43.074 -48.603  12.240  1.00  0.00     0.057 C 
HETATM   19  C   UNL     1     -43.202 -47.236  11.565  1.00  0.00     0.275 C 
HETATM   20  N   UNL     1     -42.025 -47.048  10.695  1.00  0.00     0.095 N 
HETATM   21  C   UNL     1     -41.585 -48.427  10.390  1.00  0.00     0.298 C 
BRANCH  20  22
HETATM   22  C   UNL     1     -40.938 -46.276  11.342  1.00  0.00     0.223 A 
HETATM   23  C   UNL     1     -41.224 -44.987  12.058  1.00  0.00     0.038 A 
HETATM   24  C   UNL     1     -40.545 -44.963  10.722  1.00  0.00     0.038 A 
ENDBRANCH  20  22
ENDBRANCH  15  17
ENDBRANCH   1  13
TORSDOF 5
ENDMDL
