MODEL 1
REMARK VINA RESULT:      -6.3      0.000      0.000
REMARK  4 active torsions:
REMARK  status: ('A' for Active; 'I' for Inactive)
REMARK    1  A    between atoms: C_2  and  C_3 
REMARK    2  A    between atoms: C_2  and  N_13 
REMARK    3  A    between atoms: C_3  and  C_4 
REMARK       I    between atoms: N_13  and  C_14 
REMARK       I    between atoms: C_14  and  N_16 
REMARK    4  A    between atoms: N_16  and  C_17 
ROOT
HETATM    1  C   UNL     1     -39.954 -49.530  11.918  1.00  0.00     0.032 C 
HETATM    2  C   UNL     1     -41.397 -49.042  11.742  1.00  0.00     0.086 C 
ENDROOT
BRANCH   2   3
HETATM    3  C   UNL     1     -41.577 -48.300  10.392  1.00  0.00     0.067 C 
BRANCH   3   4
HETATM    4  C   UNL     1     -42.134 -46.903  10.489  1.00  0.00    -0.009 A 
HETATM    5  C   UNL     1     -43.324 -46.394   9.888  1.00  0.00     0.030 A 
HETATM    6  C   UNL     1     -44.321 -47.085   9.033  1.00  0.00     0.070 C 
HETATM    7  N   UNL     1     -43.495 -45.093  10.155  1.00  0.00    -0.303 N 
HETATM    8  N   UNL     1     -42.412 -44.747  10.860  1.00  0.00    -0.300 N 
ATOM      9  HN  UNL     1     -44.276 -44.498   9.882  1.00  0.00     0.186 HD
HETATM   10  C   UNL     1     -42.232 -43.360  11.219  1.00  0.00     0.177 C 
HETATM   11  C   UNL     1     -41.564 -45.797  11.108  1.00  0.00     0.032 A 
HETATM   12  C   UNL     1     -40.290 -45.662  11.860  1.00  0.00     0.070 C 
ENDBRANCH   3   4
ENDBRANCH   2   3
BRANCH   2  13
HETATM   13  N   UNL     1     -42.300 -50.206  11.873  1.00  0.00    -0.339 N 
HETATM   14  C   UNL     1     -43.165 -50.325  12.934  1.00  0.00     0.316 C 
HETATM   15  O   UNL     1     -43.334 -49.468  13.788  1.00  0.00    -0.247 OA
HETATM   16  N   UNL     1     -43.795 -51.551  12.941  1.00  0.00    -0.338 N 
HETATM   17  H   UNL     1     -43.897 -52.000  12.041  1.00  0.00     0.164 HD
HETATM   18  H   UNL     1     -41.893 -51.097  11.622  1.00  0.00     0.164 HD
BRANCH  16  19
HETATM   19  C   UNL     1     -44.741 -51.902  13.987  1.00  0.00     0.089 C 
HETATM   20  C   UNL     1     -44.803 -53.408  14.266  1.00  0.00     0.026 C 
HETATM   21  C   UNL     1     -46.248 -53.712  14.664  1.00  0.00     0.002 C 
HETATM   22  C   UNL     1     -46.955 -52.363  14.742  1.00  0.00     0.006 C 
HETATM   23  C   UNL     1     -46.201 -51.472  13.749  1.00  0.00     0.004 C 
HETATM   24  C   UNL     1     -46.724 -51.680  12.327  1.00  0.00     0.012 C 
ENDBRANCH  16  19
ENDBRANCH   2  13
TORSDOF 4
ENDMDL
MODEL 2
REMARK VINA RESULT:      -5.9      2.843      4.966
REMARK  4 active torsions:
REMARK  status: ('A' for Active; 'I' for Inactive)
REMARK    1  A    between atoms: C_2  and  C_3 
REMARK    2  A    between atoms: C_2  and  N_13 
REMARK    3  A    between atoms: C_3  and  C_4 
REMARK       I    between atoms: N_13  and  C_14 
REMARK       I    between atoms: C_14  and  N_16 
REMARK    4  A    between atoms: N_16  and  C_17 
ROOT
HETATM    1  C   UNL     1     -41.831 -48.170  10.191  1.00  0.00     0.032 C 
HETATM    2  C   UNL     1     -41.133 -49.116  11.176  1.00  0.00     0.086 C 
ENDROOT
BRANCH   2   3
HETATM    3  C   UNL     1     -40.203 -48.335  12.141  1.00  0.00     0.067 C 
BRANCH   3   4
HETATM    4  C   UNL     1     -39.275 -49.180  12.974  1.00  0.00    -0.009 A 
HETATM    5  C   UNL     1     -38.084 -49.843  12.555  1.00  0.00     0.030 A 
HETATM    6  C   UNL     1     -37.442 -49.875  11.217  1.00  0.00     0.070 C 
HETATM    7  N   UNL     1     -37.527 -50.538  13.554  1.00  0.00    -0.303 N 
HETATM    8  N   UNL     1     -38.367 -50.383  14.584  1.00  0.00    -0.300 N 
ATOM      9  HN  UNL     1     -36.656 -51.068  13.536  1.00  0.00     0.186 HD
HETATM   10  C   UNL     1     -38.107 -51.107  15.806  1.00  0.00     0.177 C 
HETATM   11  C   UNL     1     -39.429 -49.562  14.302  1.00  0.00     0.032 A 
HETATM   12  C   UNL     1     -40.503 -49.245  15.279  1.00  0.00     0.070 C 
ENDBRANCH   3   4
ENDBRANCH   2   3
BRANCH   2  13
HETATM   13  N   UNL     1     -42.171 -49.889  11.893  1.00  0.00    -0.339 N 
HETATM   14  C   UNL     1     -42.013 -51.229  12.155  1.00  0.00     0.316 C 
HETATM   15  O   UNL     1     -40.998 -51.865  11.915  1.00  0.00    -0.247 OA
HETATM   16  N   UNL     1     -43.158 -51.780  12.688  1.00  0.00    -0.338 N 
HETATM   17  H   UNL     1     -43.760 -51.145  13.195  1.00  0.00     0.164 HD
HETATM   18  H   UNL     1     -43.125 -49.669  11.637  1.00  0.00     0.164 HD
BRANCH  16  19
HETATM   19  C   UNL     1     -43.223 -53.193  13.025  1.00  0.00     0.089 C 
HETATM   20  C   UNL     1     -44.622 -53.794  12.844  1.00  0.00     0.026 C 
HETATM   21  C   UNL     1     -44.770 -54.868  13.922  1.00  0.00     0.002 C 
HETATM   22  C   UNL     1     -43.413 -54.961  14.612  1.00  0.00     0.006 C 
HETATM   23  C   UNL     1     -42.803 -53.564  14.460  1.00  0.00     0.004 C 
HETATM   24  C   UNL     1     -43.311 -52.628  15.557  1.00  0.00     0.012 C 
ENDBRANCH  16  19
ENDBRANCH   2  13
TORSDOF 4
ENDMDL
MODEL 3
REMARK VINA RESULT:      -5.9      2.530      7.632
REMARK  4 active torsions:
REMARK  status: ('A' for Active; 'I' for Inactive)
REMARK    1  A    between atoms: C_2  and  C_3 
REMARK    2  A    between atoms: C_2  and  N_13 
REMARK    3  A    between atoms: C_3  and  C_4 
REMARK       I    between atoms: N_13  and  C_14 
REMARK       I    between atoms: C_14  and  N_16 
REMARK    4  A    between atoms: N_16  and  C_17 
ROOT
HETATM    1  C   UNL     1     -40.075 -51.688  13.926  1.00  0.00     0.032 C 
HETATM    2  C   UNL     1     -40.473 -52.166  12.524  1.00  0.00     0.086 C 
ENDROOT
BRANCH   2   3
HETATM    3  C   UNL     1     -41.013 -53.619  12.559  1.00  0.00     0.067 C 
BRANCH   3   4
HETATM    4  C   UNL     1     -42.067 -53.896  13.600  1.00  0.00    -0.009 A 
HETATM    5  C   UNL     1     -41.886 -54.456  14.900  1.00  0.00     0.030 A 
HETATM    6  C   UNL     1     -40.639 -54.903  15.570  1.00  0.00     0.070 C 
HETATM    7  N   UNL     1     -43.051 -54.595  15.544  1.00  0.00    -0.303 N 
HETATM    8  N   UNL     1     -43.975 -54.193  14.665  1.00  0.00    -0.300 N 
ATOM      9  HN  UNL     1     -43.200 -54.932  16.495  1.00  0.00     0.186 HD
HETATM   10  C   UNL     1     -45.369 -54.321  15.018  1.00  0.00     0.177 C 
HETATM   11  C   UNL     1     -43.443 -53.744  13.483  1.00  0.00     0.032 A 
HETATM   12  C   UNL     1     -44.267 -53.257  12.346  1.00  0.00     0.070 C 
ENDBRANCH   3   4
ENDBRANCH   2   3
BRANCH   2  13
HETATM   13  N   UNL     1     -41.458 -51.210  11.971  1.00  0.00    -0.339 N 
HETATM   14  C   UNL     1     -41.061 -50.022  11.404  1.00  0.00     0.316 C 
HETATM   15  O   UNL     1     -39.898 -49.696  11.224  1.00  0.00    -0.247 OA
HETATM   16  N   UNL     1     -42.140 -49.221  11.098  1.00  0.00    -0.338 N 
HETATM   17  H   UNL     1     -43.010 -49.702  10.915  1.00  0.00     0.164 HD
HETATM   18  H   UNL     1     -42.304 -51.100  12.513  1.00  0.00     0.164 HD
BRANCH  16  19
HETATM   19  C   UNL     1     -41.953 -47.906  10.506  1.00  0.00     0.089 C 
HETATM   20  C   UNL     1     -41.771 -46.796  11.547  1.00  0.00     0.026 C 
HETATM   21  C   UNL     1     -42.401 -45.538  10.947  1.00  0.00     0.002 C 
HETATM   22  C   UNL     1     -42.808 -45.909   9.525  1.00  0.00     0.006 C 
HETATM   23  C   UNL     1     -43.082 -47.416   9.580  1.00  0.00     0.004 C 
HETATM   24  C   UNL     1     -44.503 -47.691  10.073  1.00  0.00     0.012 C 
ENDBRANCH  16  19
ENDBRANCH   2  13
TORSDOF 4
ENDMDL
MODEL 4
REMARK VINA RESULT:      -5.7      1.450      1.856
REMARK  4 active torsions:
REMARK  status: ('A' for Active; 'I' for Inactive)
REMARK    1  A    between atoms: C_2  and  C_3 
REMARK    2  A    between atoms: C_2  and  N_13 
REMARK    3  A    between atoms: C_3  and  C_4 
REMARK       I    between atoms: N_13  and  C_14 
REMARK       I    between atoms: C_14  and  N_16 
REMARK    4  A    between atoms: N_16  and  C_17 
ROOT
HETATM    1  C   UNL     1     -40.068 -49.106  11.510  1.00  0.00     0.032 C 
HETATM    2  C   UNL     1     -41.433 -48.598  11.989  1.00  0.00     0.086 C 
ENDROOT
BRANCH   2   3
HETATM    3  C   UNL     1     -41.880 -47.349  11.185  1.00  0.00     0.067 C 
BRANCH   3   4
HETATM    4  C   UNL     1     -41.589 -46.021  11.834  1.00  0.00    -0.009 A 
HETATM    5  C   UNL     1     -42.219 -45.451  12.981  1.00  0.00     0.030 A 
HETATM    6  C   UNL     1     -43.301 -46.001  13.834  1.00  0.00     0.070 C 
HETATM    7  N   UNL     1     -41.733 -44.235  13.258  1.00  0.00    -0.303 N 
HETATM    8  N   UNL     1     -40.853 -43.991  12.281  1.00  0.00    -0.300 N 
ATOM      9  HN  UNL     1     -41.979 -43.629  14.040  1.00  0.00     0.186 HD
HETATM   10  C   UNL     1     -40.219 -42.694  12.226  1.00  0.00     0.177 C 
HETATM   11  C   UNL     1     -40.709 -45.035  11.403  1.00  0.00     0.032 A 
HETATM   12  C   UNL     1     -39.799 -45.000  10.228  1.00  0.00     0.070 C 
ENDBRANCH   3   4
ENDBRANCH   2   3
BRANCH   2  13
HETATM   13  N   UNL     1     -42.403 -49.711  11.892  1.00  0.00    -0.339 N 
HETATM   14  C   UNL     1     -43.158 -50.100  12.973  1.00  0.00     0.316 C 
HETATM   15  O   UNL     1     -43.169 -49.524  14.050  1.00  0.00    -0.247 OA
HETATM   16  N   UNL     1     -43.875 -51.247  12.706  1.00  0.00    -0.338 N 
HETATM   17  H   UNL     1     -44.105 -51.407  11.735  1.00  0.00     0.164 HD
HETATM   18  H   UNL     1     -42.094 -50.505  11.348  1.00  0.00     0.164 HD
BRANCH  16  19
HETATM   19  C   UNL     1     -44.729 -51.848  13.717  1.00  0.00     0.089 C 
HETATM   20  C   UNL     1     -44.577 -53.372  13.806  1.00  0.00     0.026 C 
HETATM   21  C   UNL     1     -45.953 -53.918  14.188  1.00  0.00     0.002 C 
HETATM   22  C   UNL     1     -46.832 -52.699  14.445  1.00  0.00     0.006 C 
HETATM   23  C   UNL     1     -46.240 -51.599  13.559  1.00  0.00     0.004 C 
HETATM   24  C   UNL     1     -46.778 -51.703  12.131  1.00  0.00     0.012 C 
ENDBRANCH  16  19
ENDBRANCH   2  13
TORSDOF 4
ENDMDL
MODEL 5
REMARK VINA RESULT:      -5.7      3.815      7.808
REMARK  4 active torsions:
REMARK  status: ('A' for Active; 'I' for Inactive)
REMARK    1  A    between atoms: C_2  and  C_3 
REMARK    2  A    between atoms: C_2  and  N_13 
REMARK    3  A    between atoms: C_3  and  C_4 
REMARK       I    between atoms: N_13  and  C_14 
REMARK       I    between atoms: C_14  and  N_16 
REMARK    4  A    between atoms: N_16  and  C_17 
ROOT
HETATM    1  C   UNL     1     -47.074 -51.551  11.720  1.00  0.00     0.032 C 
HETATM    2  C   UNL     1     -46.172 -51.830  12.928  1.00  0.00     0.086 C 
ENDROOT
BRANCH   2   3
HETATM    3  C   UNL     1     -46.659 -53.073  13.717  1.00  0.00     0.067 C 
BRANCH   3   4
HETATM    4  C   UNL     1     -46.058 -53.249  15.088  1.00  0.00    -0.009 A 
HETATM    5  C   UNL     1     -46.432 -52.591  16.297  1.00  0.00     0.030 A 
HETATM    6  C   UNL     1     -47.497 -51.584  16.534  1.00  0.00     0.070 C 
HETATM    7  N   UNL     1     -45.657 -52.963  17.322  1.00  0.00    -0.303 N 
HETATM    8  N   UNL     1     -44.759 -53.795  16.783  1.00  0.00    -0.300 N 
ATOM      9  HN  UNL     1     -45.733 -52.676  18.298  1.00  0.00     0.186 HD
HETATM   10  C   UNL     1     -43.693 -54.300  17.617  1.00  0.00     0.177 C 
HETATM   11  C   UNL     1     -44.959 -54.020  15.445  1.00  0.00     0.032 A 
HETATM   12  C   UNL     1     -44.087 -54.898  14.622  1.00  0.00     0.070 C 
ENDBRANCH   3   4
ENDBRANCH   2   3
BRANCH   2  13
HETATM   13  N   UNL     1     -44.781 -51.977  12.444  1.00  0.00    -0.339 N 
HETATM   14  C   UNL     1     -43.728 -51.387  13.103  1.00  0.00     0.316 C 
HETATM   15  O   UNL     1     -43.825 -50.787  14.162  1.00  0.00    -0.247 OA
HETATM   16  N   UNL     1     -42.550 -51.520  12.399  1.00  0.00    -0.338 N 
HETATM   17  H   UNL     1     -42.490 -52.322  11.787  1.00  0.00     0.164 HD
HETATM   18  H   UNL     1     -44.667 -51.930  11.441  1.00  0.00     0.164 HD
BRANCH  16  19
HETATM   19  C   UNL     1     -41.309 -50.953  12.901  1.00  0.00     0.089 C 
HETATM   20  C   UNL     1     -40.364 -50.488  11.787  1.00  0.00     0.026 C 
HETATM   21  C   UNL     1     -38.944 -50.720  12.305  1.00  0.00     0.002 C 
HETATM   22  C   UNL     1     -39.094 -51.182  13.751  1.00  0.00     0.006 C 
HETATM   23  C   UNL     1     -40.461 -51.875  13.797  1.00  0.00     0.004 C 
HETATM   24  C   UNL     1     -40.350 -53.326  13.330  1.00  0.00     0.012 C 
ENDBRANCH  16  19
ENDBRANCH   2  13
TORSDOF 4
ENDMDL
MODEL 6
REMARK VINA RESULT:      -5.7      2.481      7.601
REMARK  4 active torsions:
REMARK  status: ('A' for Active; 'I' for Inactive)
REMARK    1  A    between atoms: C_2  and  C_3 
REMARK    2  A    between atoms: C_2  and  N_13 
REMARK    3  A    between atoms: C_3  and  C_4 
REMARK       I    between atoms: N_13  and  C_14 
REMARK       I    between atoms: C_14  and  N_16 
REMARK    4  A    between atoms: N_16  and  C_17 
ROOT
HETATM    1  C   UNL     1     -45.958 -51.917  14.344  1.00  0.00     0.032 C 
HETATM    2  C   UNL     1     -44.478 -51.944  13.945  1.00  0.00     0.086 C 
ENDROOT
BRANCH   2   3
HETATM    3  C   UNL     1     -44.040 -53.368  13.513  1.00  0.00     0.067 C 
BRANCH   3   4
HETATM    4  C   UNL     1     -42.680 -53.802  13.995  1.00  0.00    -0.009 A 
HETATM    5  C   UNL     1     -42.354 -54.453  15.222  1.00  0.00     0.030 A 
HETATM    6  C   UNL     1     -43.244 -54.880  16.329  1.00  0.00     0.070 C 
HETATM    7  N   UNL     1     -41.036 -54.659  15.337  1.00  0.00    -0.303 N 
HETATM    8  N   UNL     1     -40.509 -54.100  14.242  1.00  0.00    -0.300 N 
ATOM      9  HN  UNL     1     -40.543 -55.135  16.092  1.00  0.00     0.186 HD
HETATM   10  C   UNL     1     -39.071 -54.054  14.111  1.00  0.00     0.177 C 
HETATM   11  C   UNL     1     -41.449 -53.583  13.387  1.00  0.00     0.032 A 
HETATM   12  C   UNL     1     -41.110 -52.901  12.111  1.00  0.00     0.070 C 
ENDBRANCH   3   4
ENDBRANCH   2   3
BRANCH   2  13
HETATM   13  N   UNL     1     -44.267 -50.940  12.879  1.00  0.00    -0.339 N 
HETATM   14  C   UNL     1     -43.248 -50.020  12.953  1.00  0.00     0.316 C 
HETATM   15  O   UNL     1     -42.393 -50.005  13.827  1.00  0.00    -0.247 OA
HETATM   16  N   UNL     1     -43.329 -49.088  11.941  1.00  0.00    -0.338 N 
HETATM   17  H   UNL     1     -43.787 -49.395  11.095  1.00  0.00     0.164 HD
HETATM   18  H   UNL     1     -45.110 -50.532  12.498  1.00  0.00     0.164 HD
BRANCH  16  19
HETATM   19  C   UNL     1     -42.362 -48.008  11.837  1.00  0.00     0.089 C 
HETATM   20  C   UNL     1     -42.861 -46.690  12.442  1.00  0.00     0.026 C 
HETATM   21  C   UNL     1     -42.246 -45.572  11.600  1.00  0.00     0.002 C 
HETATM   22  C   UNL     1     -41.300 -46.256  10.619  1.00  0.00     0.006 C 
HETATM   23  C   UNL     1     -41.898 -47.652  10.412  1.00  0.00     0.004 C 
HETATM   24  C   UNL     1     -42.998 -47.621   9.351  1.00  0.00     0.012 C 
ENDBRANCH  16  19
ENDBRANCH   2  13
TORSDOF 4
ENDMDL
MODEL 7
REMARK VINA RESULT:      -5.6      2.589      7.406
REMARK  4 active torsions:
REMARK  status: ('A' for Active; 'I' for Inactive)
REMARK    1  A    between atoms: C_2  and  C_3 
REMARK    2  A    between atoms: C_2  and  N_13 
REMARK    3  A    between atoms: C_3  and  C_4 
REMARK       I    between atoms: N_13  and  C_14 
REMARK       I    between atoms: C_14  and  N_16 
REMARK    4  A    between atoms: N_16  and  C_17 
ROOT
HETATM    1  C   UNL     1     -37.640 -50.321  12.188  1.00  0.00     0.032 C 
HETATM    2  C   UNL     1     -39.129 -50.488  11.858  1.00  0.00     0.086 C 
ENDROOT
BRANCH   2   3
HETATM    3  C   UNL     1     -39.952 -50.810  13.132  1.00  0.00     0.067 C 
BRANCH   3   4
HETATM    4  C   UNL     1     -41.341 -51.343  12.890  1.00  0.00    -0.009 A 
HETATM    5  C   UNL     1     -42.560 -50.605  12.819  1.00  0.00     0.030 A 
HETATM    6  C   UNL     1     -42.788 -49.145  12.952  1.00  0.00     0.070 C 
HETATM    7  N   UNL     1     -43.613 -51.408  12.628  1.00  0.00    -0.303 N 
HETATM    8  N   UNL     1     -43.102 -52.644  12.636  1.00  0.00    -0.300 N 
ATOM      9  HN  UNL     1     -44.588 -51.138  12.503  1.00  0.00     0.186 HD
HETATM   10  C   UNL     1     -44.006 -53.768  12.559  1.00  0.00     0.177 C 
HETATM   11  C   UNL     1     -41.738 -52.670  12.773  1.00  0.00     0.032 A 
HETATM   12  C   UNL     1     -40.941 -53.924  12.821  1.00  0.00     0.070 C 
ENDBRANCH   3   4
ENDBRANCH   2   3
BRANCH   2  13
HETATM   13  N   UNL     1     -39.595 -49.259  11.179  1.00  0.00    -0.339 N 
HETATM   14  C   UNL     1     -39.708 -48.067  11.854  1.00  0.00     0.316 C 
HETATM   15  O   UNL     1     -39.357 -47.893  13.011  1.00  0.00    -0.247 OA
HETATM   16  N   UNL     1     -40.304 -47.098  11.077  1.00  0.00    -0.338 N 
HETATM   17  H   UNL     1     -40.192 -47.203  10.078  1.00  0.00     0.164 HD
HETATM   18  H   UNL     1     -40.354 -49.390  10.524  1.00  0.00     0.164 HD
BRANCH  16  19
HETATM   19  C   UNL     1     -40.541 -45.761  11.597  1.00  0.00     0.089 C 
HETATM   20  C   UNL     1     -41.950 -45.237  11.293  1.00  0.00     0.026 C 
HETATM   21  C   UNL     1     -41.813 -43.725  11.106  1.00  0.00     0.002 C 
HETATM   22  C   UNL     1     -40.363 -43.390  11.440  1.00  0.00     0.006 C 
HETATM   23  C   UNL     1     -39.582 -44.663  11.101  1.00  0.00     0.004 C 
HETATM   24  C   UNL     1     -39.242 -44.711   9.611  1.00  0.00     0.012 C 
ENDBRANCH  16  19
ENDBRANCH   2  13
TORSDOF 4
ENDMDL
MODEL 8
REMARK VINA RESULT:      -5.5      2.225      3.060
REMARK  4 active torsions:
REMARK  status: ('A' for Active; 'I' for Inactive)
REMARK    1  A    between atoms: C_2  and  C_3 
REMARK    2  A    between atoms: C_2  and  N_13 
REMARK    3  A    between atoms: C_3  and  C_4 
REMARK       I    between atoms: N_13  and  C_14 
REMARK       I    between atoms: C_14  and  N_16 
REMARK    4  A    between atoms: N_16  and  C_17 
ROOT
HETATM    1  C   UNL     1     -42.509 -47.567   9.788  1.00  0.00     0.032 C 
HETATM    2  C   UNL     1     -41.536 -48.387  10.645  1.00  0.00     0.086 C 
ENDROOT
BRANCH   2   3
HETATM    3  C   UNL     1     -40.613 -47.464  11.482  1.00  0.00     0.067 C 
BRANCH   3   4
HETATM    4  C   UNL     1     -41.029 -46.017  11.549  1.00  0.00    -0.009 A 
HETATM    5  C   UNL     1     -40.457 -44.911  10.853  1.00  0.00     0.030 A 
HETATM    6  C   UNL     1     -39.329 -44.883   9.889  1.00  0.00     0.070 C 
HETATM    7  N   UNL     1     -41.055 -43.759  11.180  1.00  0.00    -0.303 N 
HETATM    8  N   UNL     1     -41.953 -44.096  12.112  1.00  0.00    -0.300 N 
ATOM      9  HN  UNL     1     -40.868 -42.830  10.803  1.00  0.00     0.186 HD
HETATM   10  C   UNL     1     -42.705 -43.048  12.762  1.00  0.00     0.177 C 
HETATM   11  C   UNL     1     -41.997 -45.444  12.365  1.00  0.00     0.032 A 
HETATM   12  C   UNL     1     -42.904 -46.061  13.367  1.00  0.00     0.070 C 
ENDBRANCH   3   4
ENDBRANCH   2   3
BRANCH   2  13
HETATM   13  N   UNL     1     -42.326 -49.312  11.486  1.00  0.00    -0.339 N 
HETATM   14  C   UNL     1     -41.827 -50.535  11.869  1.00  0.00     0.316 C 
HETATM   15  O   UNL     1     -40.691 -50.920  11.639  1.00  0.00    -0.247 OA
HETATM   16  N   UNL     1     -42.781 -51.294  12.512  1.00  0.00    -0.338 N 
HETATM   17  H   UNL     1     -43.510 -50.778  12.986  1.00  0.00     0.164 HD
HETATM   18  H   UNL     1     -43.311 -49.365  11.262  1.00  0.00     0.164 HD
BRANCH  16  19
HETATM   19  C   UNL     1     -42.477 -52.633  12.988  1.00  0.00     0.089 C 
HETATM   20  C   UNL     1     -43.652 -53.607  12.841  1.00  0.00     0.026 C 
HETATM   21  C   UNL     1     -43.554 -54.579  14.018  1.00  0.00     0.002 C 
HETATM   22  C   UNL     1     -42.254 -54.235  14.739  1.00  0.00     0.006 C 
HETATM   23  C   UNL     1     -42.038 -52.744  14.460  1.00  0.00     0.004 C 
HETATM   24  C   UNL     1     -42.829 -51.886  15.448  1.00  0.00     0.012 C 
ENDBRANCH  16  19
ENDBRANCH   2  13
TORSDOF 4
ENDMDL
MODEL 9
REMARK VINA RESULT:      -5.4      2.740      7.707
REMARK  4 active torsions:
REMARK  status: ('A' for Active; 'I' for Inactive)
REMARK    1  A    between atoms: C_2  and  C_3 
REMARK    2  A    between atoms: C_2  and  N_13 
REMARK    3  A    between atoms: C_3  and  C_4 
REMARK       I    between atoms: N_13  and  C_14 
REMARK       I    between atoms: C_14  and  N_16 
REMARK    4  A    between atoms: N_16  and  C_17 
ROOT
HETATM    1  C   UNL     1     -45.930 -52.881  14.062  1.00  0.00     0.032 C 
HETATM    2  C   UNL     1     -44.417 -52.671  13.922  1.00  0.00     0.086 C 
ENDROOT
BRANCH   2   3
HETATM    3  C   UNL     1     -43.700 -53.996  13.551  1.00  0.00     0.067 C 
BRANCH   3   4
HETATM    4  C   UNL     1     -42.268 -54.107  14.005  1.00  0.00    -0.009 A 
HETATM    5  C   UNL     1     -41.101 -53.619  13.344  1.00  0.00     0.030 A 
HETATM    6  C   UNL     1     -40.982 -52.876  12.065  1.00  0.00     0.070 C 
HETATM    7  N   UNL     1     -39.986 -53.929  14.017  1.00  0.00    -0.303 N 
HETATM    8  N   UNL     1     -40.409 -54.656  15.057  1.00  0.00    -0.300 N 
ATOM      9  HN  UNL     1     -39.027 -53.670  13.787  1.00  0.00     0.186 HD
HETATM   10  C   UNL     1     -39.426 -55.246  15.935  1.00  0.00     0.177 C 
HETATM   11  C   UNL     1     -41.774 -54.784  15.114  1.00  0.00     0.032 A 
HETATM   12  C   UNL     1     -42.482 -55.554  16.169  1.00  0.00     0.070 C 
ENDBRANCH   3   4
ENDBRANCH   2   3
BRANCH   2  13
HETATM   13  N   UNL     1     -44.187 -51.605  12.922  1.00  0.00    -0.339 N 
HETATM   14  C   UNL     1     -43.472 -50.473  13.234  1.00  0.00     0.316 C 
HETATM   15  O   UNL     1     -42.898 -50.290  14.297  1.00  0.00    -0.247 OA
HETATM   16  N   UNL     1     -43.512 -49.548  12.213  1.00  0.00    -0.338 N 
HETATM   17  H   UNL     1     -43.652 -49.922  11.285  1.00  0.00     0.164 HD
HETATM   18  H   UNL     1     -44.978 -51.394  12.328  1.00  0.00     0.164 HD
BRANCH  16  19
HETATM   19  C   UNL     1     -42.838 -48.267  12.336  1.00  0.00     0.089 C 
HETATM   20  C   UNL     1     -43.322 -47.230  11.315  1.00  0.00     0.026 C 
HETATM   21  C   UNL     1     -42.109 -46.361  10.979  1.00  0.00     0.002 C 
HETATM   22  C   UNL     1     -40.992 -46.821  11.908  1.00  0.00     0.006 C 
HETATM   23  C   UNL     1     -41.305 -48.294  12.192  1.00  0.00     0.004 C 
HETATM   24  C   UNL     1     -40.765 -49.189  11.077  1.00  0.00     0.012 C 
ENDBRANCH  16  19
ENDBRANCH   2  13
TORSDOF 4
ENDMDL
