MODEL 1
REMARK VINA RESULT:      -6.1      0.000      0.000
REMARK  4 active torsions:
REMARK  status: ('A' for Active; 'I' for Inactive)
REMARK    1  A    between atoms: C_5  and  O_6 
REMARK    2  A    between atoms: C_5  and  C_7 
REMARK    3  A    between atoms: C_7  and  N_8 
REMARK       I    between atoms: N_8  and  C_9 
REMARK       I    between atoms: C_9  and  N_11 
REMARK    4  A    between atoms: N_11  and  C_12 
ROOT
HETATM    1  N   UNL     1     -40.429 -50.794  12.710  1.00  0.00    -0.340 N 
HETATM    2  C   UNL     1     -39.258 -50.486  12.084  1.00  0.00     0.322 C 
HETATM    3  O   UNL     1     -38.249 -51.179  12.155  1.00  0.00    -0.247 OA
HETATM    4  N   UNL     1     -39.277 -49.387  11.273  1.00  0.00    -0.289 N 
HETATM    5  H   UNL     1     -41.131 -50.057  12.720  1.00  0.00     0.164 HD
HETATM    6  H   UNL     1     -38.455 -49.228  10.711  1.00  0.00     0.172 HD
ENDROOT
BRANCH   1   7
HETATM    7  C   UNL     1     -40.650 -51.951  13.555  1.00  0.00     0.162 C 
BRANCH   7   8
HETATM    8  C   UNL     1     -41.409 -53.078  12.802  1.00  0.00     0.077 C 
HETATM    9  C   UNL     1     -42.753 -52.628  12.204  1.00  0.00     0.070 C 
HETATM   10  C   UNL     1     -43.809 -52.377  13.279  1.00  0.00     0.275 C 
HETATM   11  N   UNL     1     -43.997 -53.500  14.205  1.00  0.00     0.084 N 
HETATM   12  C   UNL     1     -44.742 -54.601  13.592  1.00  0.00     0.309 C 
HETATM   13  C   UNL     1     -42.726 -53.959  14.781  1.00  0.00     0.275 C 
HETATM   14  C   UNL     1     -41.650 -54.268  13.738  1.00  0.00     0.070 C 
BRANCH   8  15
HETATM   15  O   UNL     1     -40.586 -53.538  11.718  1.00  0.00    -0.388 OA
HETATM   16  H   UNL     1     -39.740 -53.058  11.794  1.00  0.00     0.210 HD
ENDBRANCH   8  15
ENDBRANCH   7   8
ENDBRANCH   1   7
BRANCH   4  17
HETATM   17  C   UNL     1     -40.337 -48.539  11.147  1.00  0.00     0.152 A 
HETATM   18  N   UNL     1     -41.338 -48.649  10.306  1.00  0.00    -0.340 N 
HETATM   19  C   UNL     1     -42.204 -47.588  10.473  1.00  0.00     0.014 A 
ATOM     20  HN  UNL     1     -41.457 -49.404   9.631  1.00  0.00     0.167 HD
HETATM   21  C   UNL     1     -43.445 -47.558   9.654  1.00  0.00     0.068 C 
HETATM   22  C   UNL     1     -41.797 -46.655  11.409  1.00  0.00     0.077 A 
HETATM   23  S   UNL     1     -40.345 -47.181  12.169  1.00  0.00    -0.064 SA
ENDBRANCH   4  17
TORSDOF 4
ENDMDL
MODEL 2
REMARK VINA RESULT:      -6.0      1.664      2.200
REMARK  4 active torsions:
REMARK  status: ('A' for Active; 'I' for Inactive)
REMARK    1  A    between atoms: C_5  and  O_6 
REMARK    2  A    between atoms: C_5  and  C_7 
REMARK    3  A    between atoms: C_7  and  N_8 
REMARK       I    between atoms: N_8  and  C_9 
REMARK       I    between atoms: C_9  and  N_11 
REMARK    4  A    between atoms: N_11  and  C_12 
ROOT
HETATM    1  N   UNL     1     -41.983 -50.949  11.958  1.00  0.00    -0.340 N 
HETATM    2  C   UNL     1     -40.660 -50.675  11.776  1.00  0.00     0.322 C 
HETATM    3  O   UNL     1     -39.759 -51.436  12.107  1.00  0.00    -0.247 OA
HETATM    4  N   UNL     1     -40.369 -49.519  11.107  1.00  0.00    -0.289 N 
HETATM    5  H   UNL     1     -42.621 -50.169  11.807  1.00  0.00     0.164 HD
HETATM    6  H   UNL     1     -39.402 -49.374  10.858  1.00  0.00     0.172 HD
ENDROOT
BRANCH   1   7
HETATM    7  C   UNL     1     -42.515 -52.147  12.576  1.00  0.00     0.162 C 
BRANCH   7   8
HETATM    8  C   UNL     1     -43.948 -51.922  13.132  1.00  0.00     0.077 C 
HETATM    9  C   UNL     1     -44.027 -51.935  14.667  1.00  0.00     0.070 C 
HETATM   10  C   UNL     1     -43.820 -53.335  15.244  1.00  0.00     0.275 C 
HETATM   11  N   UNL     1     -44.702 -54.356  14.665  1.00  0.00     0.084 N 
HETATM   12  C   UNL     1     -46.073 -54.247  15.164  1.00  0.00     0.309 C 
HETATM   13  C   UNL     1     -44.656 -54.355  13.197  1.00  0.00     0.275 C 
HETATM   14  C   UNL     1     -44.904 -52.981  12.571  1.00  0.00     0.070 C 
BRANCH   8  15
HETATM   15  O   UNL     1     -44.415 -50.638  12.686  1.00  0.00    -0.388 OA
HETATM   16  H   UNL     1     -43.622 -50.138  12.414  1.00  0.00     0.210 HD
ENDBRANCH   8  15
ENDBRANCH   7   8
ENDBRANCH   1   7
BRANCH   4  17
HETATM   17  C   UNL     1     -41.296 -48.596  10.722  1.00  0.00     0.152 A 
HETATM   18  N   UNL     1     -41.939 -48.555   9.580  1.00  0.00    -0.340 N 
HETATM   19  C   UNL     1     -42.781 -47.462   9.559  1.00  0.00     0.014 A 
ATOM     20  HN  UNL     1     -41.833 -49.229   8.822  1.00  0.00     0.167 HD
HETATM   21  C   UNL     1     -43.654 -47.269   8.372  1.00  0.00     0.068 C 
HETATM   22  C   UNL     1     -42.705 -46.657  10.681  1.00  0.00     0.077 A 
HETATM   23  S   UNL     1     -41.627 -47.350  11.829  1.00  0.00    -0.064 SA
ENDBRANCH   4  17
TORSDOF 4
ENDMDL
MODEL 3
REMARK VINA RESULT:      -5.8      1.673      2.068
REMARK  4 active torsions:
REMARK  status: ('A' for Active; 'I' for Inactive)
REMARK    1  A    between atoms: C_5  and  O_6 
REMARK    2  A    between atoms: C_5  and  C_7 
REMARK    3  A    between atoms: C_7  and  N_8 
REMARK       I    between atoms: N_8  and  C_9 
REMARK       I    between atoms: C_9  and  N_11 
REMARK    4  A    between atoms: N_11  and  C_12 
ROOT
HETATM    1  N   UNL     1     -41.880 -51.159  12.821  1.00  0.00    -0.340 N 
HETATM    2  C   UNL     1     -40.875 -51.592  12.008  1.00  0.00     0.322 C 
HETATM    3  O   UNL     1     -40.455 -52.743  12.003  1.00  0.00    -0.247 OA
HETATM    4  N   UNL     1     -40.398 -50.685  11.104  1.00  0.00    -0.289 N 
HETATM    5  H   UNL     1     -42.016 -50.150  12.859  1.00  0.00     0.164 HD
HETATM    6  H   UNL     1     -39.746 -51.034  10.417  1.00  0.00     0.172 HD
ENDROOT
BRANCH   1   7
HETATM    7  C   UNL     1     -42.577 -51.972  13.799  1.00  0.00     0.162 C 
BRANCH   7   8
HETATM    8  C   UNL     1     -43.864 -52.609  13.206  1.00  0.00     0.077 C 
HETATM    9  C   UNL     1     -45.066 -51.652  13.163  1.00  0.00     0.070 C 
HETATM   10  C   UNL     1     -45.624 -51.361  14.555  1.00  0.00     0.275 C 
HETATM   11  N   UNL     1     -45.940 -52.564  15.335  1.00  0.00     0.084 N 
HETATM   12  C   UNL     1     -47.166 -53.215  14.872  1.00  0.00     0.309 C 
HETATM   13  C   UNL     1     -44.811 -53.504  15.381  1.00  0.00     0.275 C 
HETATM   14  C   UNL     1     -44.248 -53.860  14.005  1.00  0.00     0.070 C 
BRANCH   8  15
HETATM   15  O   UNL     1     -43.590 -53.022  11.858  1.00  0.00    -0.388 OA
HETATM   16  H   UNL     1     -42.800 -53.594  11.901  1.00  0.00     0.210 HD
ENDBRANCH   8  15
ENDBRANCH   7   8
ENDBRANCH   1   7
BRANCH   4  17
HETATM   17  C   UNL     1     -40.779 -49.377  11.047  1.00  0.00     0.152 A 
HETATM   18  N   UNL     1     -41.799 -48.883  10.387  1.00  0.00    -0.340 N 
HETATM   19  C   UNL     1     -41.848 -47.515  10.563  1.00  0.00     0.014 A 
ATOM     20  HN  UNL     1     -42.457 -49.427   9.828  1.00  0.00     0.167 HD
HETATM   21  C   UNL     1     -42.974 -46.766   9.947  1.00  0.00     0.068 C 
HETATM   22  C   UNL     1     -40.810 -46.995  11.314  1.00  0.00     0.077 A 
HETATM   23  S   UNL     1     -39.812 -48.269  11.897  1.00  0.00    -0.064 SA
ENDBRANCH   4  17
TORSDOF 4
ENDMDL
MODEL 4
REMARK VINA RESULT:      -5.8      2.583      5.710
REMARK  4 active torsions:
REMARK  status: ('A' for Active; 'I' for Inactive)
REMARK    1  A    between atoms: C_5  and  O_6 
REMARK    2  A    between atoms: C_5  and  C_7 
REMARK    3  A    between atoms: C_7  and  N_8 
REMARK       I    between atoms: N_8  and  C_9 
REMARK       I    between atoms: C_9  and  N_11 
REMARK    4  A    between atoms: N_11  and  C_12 
ROOT
HETATM    1  N   UNL     1     -41.598 -51.406  12.772  1.00  0.00    -0.340 N 
HETATM    2  C   UNL     1     -41.392 -52.718  12.466  1.00  0.00     0.322 C 
HETATM    3  O   UNL     1     -40.297 -53.180  12.168  1.00  0.00    -0.247 OA
HETATM    4  N   UNL     1     -42.471 -53.546  12.597  1.00  0.00    -0.289 N 
HETATM    5  H   UNL     1     -42.572 -51.113  12.828  1.00  0.00     0.164 HD
HETATM    6  H   UNL     1     -42.296 -54.534  12.496  1.00  0.00     0.172 HD
ENDROOT
BRANCH   1   7
HETATM    7  C   UNL     1     -40.580 -50.373  12.770  1.00  0.00     0.162 C 
BRANCH   7   8
HETATM    8  C   UNL     1     -40.780 -49.370  11.600  1.00  0.00     0.077 C 
HETATM    9  C   UNL     1     -39.873 -48.131  11.684  1.00  0.00     0.070 C 
HETATM   10  C   UNL     1     -40.285 -47.189  12.813  1.00  0.00     0.275 C 
HETATM   11  N   UNL     1     -41.700 -46.799  12.781  1.00  0.00     0.084 N 
HETATM   12  C   UNL     1     -41.978 -45.821  11.730  1.00  0.00     0.309 C 
HETATM   13  C   UNL     1     -42.590 -47.965  12.687  1.00  0.00     0.275 C 
HETATM   14  C   UNL     1     -42.244 -48.916  11.540  1.00  0.00     0.070 C 
BRANCH   8  15
HETATM   15  O   UNL     1     -40.483 -50.042  10.365  1.00  0.00    -0.388 OA
HETATM   16  H   UNL     1     -40.498 -49.357   9.671  1.00  0.00     0.210 HD
ENDBRANCH   8  15
ENDBRANCH   7   8
ENDBRANCH   1   7
BRANCH   4  17
HETATM   17  C   UNL     1     -43.734 -53.126  12.897  1.00  0.00     0.152 A 
HETATM   18  N   UNL     1     -44.611 -52.615  12.066  1.00  0.00    -0.340 N 
HETATM   19  C   UNL     1     -45.768 -52.300  12.750  1.00  0.00     0.014 A 
ATOM     20  HN  UNL     1     -44.461 -52.471  11.068  1.00  0.00     0.167 HD
HETATM   21  C   UNL     1     -46.918 -51.764  11.975  1.00  0.00     0.068 C 
HETATM   22  C   UNL     1     -45.712 -52.529  14.112  1.00  0.00     0.077 A 
HETATM   23  S   UNL     1     -44.207 -53.254  14.524  1.00  0.00    -0.064 SA
ENDBRANCH   4  17
TORSDOF 4
ENDMDL
MODEL 5
REMARK VINA RESULT:      -5.2      4.463      6.228
REMARK  4 active torsions:
REMARK  status: ('A' for Active; 'I' for Inactive)
REMARK    1  A    between atoms: C_5  and  O_6 
REMARK    2  A    between atoms: C_5  and  C_7 
REMARK    3  A    between atoms: C_7  and  N_8 
REMARK       I    between atoms: N_8  and  C_9 
REMARK       I    between atoms: C_9  and  N_11 
REMARK    4  A    between atoms: N_11  and  C_12 
ROOT
HETATM    1  N   UNL     1     -44.595 -52.282  13.768  1.00  0.00    -0.340 N 
HETATM    2  C   UNL     1     -44.692 -53.026  12.630  1.00  0.00     0.322 C 
HETATM    3  O   UNL     1     -45.721 -53.126  11.972  1.00  0.00    -0.247 OA
HETATM    4  N   UNL     1     -43.536 -53.604  12.186  1.00  0.00    -0.289 N 
HETATM    5  H   UNL     1     -43.748 -52.421  14.317  1.00  0.00     0.164 HD
HETATM    6  H   UNL     1     -43.573 -54.048  11.281  1.00  0.00     0.172 HD
ENDROOT
BRANCH   1   7
HETATM    7  C   UNL     1     -45.675 -51.528  14.373  1.00  0.00     0.162 C 
BRANCH   7   8
HETATM    8  C   UNL     1     -46.539 -52.413  15.314  1.00  0.00     0.077 C 
HETATM    9  C   UNL     1     -47.529 -51.616  16.179  1.00  0.00     0.070 C 
HETATM   10  C   UNL     1     -46.825 -50.812  17.271  1.00  0.00     0.275 C 
HETATM   11  N   UNL     1     -45.920 -51.608  18.109  1.00  0.00     0.084 N 
HETATM   12  C   UNL     1     -46.647 -52.449  19.060  1.00  0.00     0.309 C 
HETATM   13  C   UNL     1     -44.971 -52.391  17.306  1.00  0.00     0.275 C 
HETATM   14  C   UNL     1     -45.635 -53.249  16.227  1.00  0.00     0.070 C 
BRANCH   8  15
HETATM   15  O   UNL     1     -47.304 -53.325  14.509  1.00  0.00    -0.388 OA
HETATM   16  H   UNL     1     -48.242 -53.118  14.678  1.00  0.00     0.210 HD
ENDBRANCH   8  15
ENDBRANCH   7   8
ENDBRANCH   1   7
BRANCH   4  17
HETATM   17  C   UNL     1     -42.350 -53.574  12.859  1.00  0.00     0.152 A 
HETATM   18  N   UNL     1     -41.999 -54.333  13.869  1.00  0.00    -0.340 N 
HETATM   19  C   UNL     1     -40.728 -53.992  14.287  1.00  0.00     0.014 A 
ATOM     20  HN  UNL     1     -42.577 -55.064  14.284  1.00  0.00     0.167 HD
HETATM   21  C   UNL     1     -40.114 -54.781  15.387  1.00  0.00     0.068 C 
HETATM   22  C   UNL     1     -40.168 -52.925  13.609  1.00  0.00     0.077 A 
HETATM   23  S   UNL     1     -41.222 -52.410  12.350  1.00  0.00    -0.064 SA
ENDBRANCH   4  17
TORSDOF 4
ENDMDL
MODEL 6
REMARK VINA RESULT:      -5.2      2.699      6.339
REMARK  4 active torsions:
REMARK  status: ('A' for Active; 'I' for Inactive)
REMARK    1  A    between atoms: C_5  and  O_6 
REMARK    2  A    between atoms: C_5  and  C_7 
REMARK    3  A    between atoms: C_7  and  N_8 
REMARK       I    between atoms: N_8  and  C_9 
REMARK       I    between atoms: C_9  and  N_11 
REMARK    4  A    between atoms: N_11  and  C_12 
ROOT
HETATM    1  N   UNL     1     -41.401 -49.967  12.603  1.00  0.00    -0.340 N 
HETATM    2  C   UNL     1     -40.618 -50.525  11.637  1.00  0.00     0.322 C 
HETATM    3  O   UNL     1     -39.819 -49.888  10.960  1.00  0.00    -0.247 OA
HETATM    4  N   UNL     1     -40.693 -51.884  11.508  1.00  0.00    -0.289 N 
HETATM    5  H   UNL     1     -42.144 -50.562  12.968  1.00  0.00     0.164 HD
HETATM    6  H   UNL     1     -40.026 -52.314  10.886  1.00  0.00     0.172 HD
ENDROOT
BRANCH   1   7
HETATM    7  C   UNL     1     -41.426 -48.562  12.956  1.00  0.00     0.162 C 
BRANCH   7   8
HETATM    8  C   UNL     1     -42.480 -47.777  12.126  1.00  0.00     0.077 C 
HETATM    9  C   UNL     1     -41.935 -47.220  10.800  1.00  0.00     0.070 C 
HETATM   10  C   UNL     1     -40.965 -46.060  11.015  1.00  0.00     0.275 C 
HETATM   11  N   UNL     1     -41.500 -44.982  11.856  1.00  0.00     0.084 N 
HETATM   12  C   UNL     1     -42.478 -44.160  11.143  1.00  0.00     0.309 C 
HETATM   13  C   UNL     1     -42.040 -45.489  13.125  1.00  0.00     0.275 C 
HETATM   14  C   UNL     1     -43.052 -46.623  12.957  1.00  0.00     0.070 C 
BRANCH   8  15
HETATM   15  O   UNL     1     -43.565 -48.665  11.810  1.00  0.00    -0.388 OA
HETATM   16  H   UNL     1     -44.383 -48.197  12.062  1.00  0.00     0.210 HD
ENDBRANCH   8  15
ENDBRANCH   7   8
ENDBRANCH   1   7
BRANCH   4  17
HETATM   17  C   UNL     1     -41.566 -52.677  12.192  1.00  0.00     0.152 A 
HETATM   18  N   UNL     1     -42.866 -52.743  12.026  1.00  0.00    -0.340 N 
HETATM   19  C   UNL     1     -43.402 -53.651  12.917  1.00  0.00     0.014 A 
ATOM     20  HN  UNL     1     -43.399 -52.205  11.344  1.00  0.00     0.167 HD
HETATM   21  C   UNL     1     -44.862 -53.923  12.849  1.00  0.00     0.068 C 
HETATM   22  C   UNL     1     -42.486 -54.211  13.788  1.00  0.00     0.077 A 
HETATM   23  S   UNL     1     -40.901 -53.661  13.407  1.00  0.00    -0.064 SA
ENDBRANCH   4  17
TORSDOF 4
ENDMDL
MODEL 7
REMARK VINA RESULT:      -5.2      2.613      3.963
REMARK  4 active torsions:
REMARK  status: ('A' for Active; 'I' for Inactive)
REMARK    1  A    between atoms: C_5  and  O_6 
REMARK    2  A    between atoms: C_5  and  C_7 
REMARK    3  A    between atoms: C_7  and  N_8 
REMARK       I    between atoms: N_8  and  C_9 
REMARK       I    between atoms: C_9  and  N_11 
REMARK    4  A    between atoms: N_11  and  C_12 
ROOT
HETATM    1  N   UNL     1     -41.439 -47.981  11.862  1.00  0.00    -0.340 N 
HETATM    2  C   UNL     1     -42.250 -47.270  12.696  1.00  0.00     0.322 C 
HETATM    3  O   UNL     1     -42.009 -47.090  13.885  1.00  0.00    -0.247 OA
HETATM    4  N   UNL     1     -43.332 -46.669  12.119  1.00  0.00    -0.289 N 
HETATM    5  H   UNL     1     -41.832 -48.208  10.951  1.00  0.00     0.164 HD
HETATM    6  H   UNL     1     -43.862 -46.040  12.702  1.00  0.00     0.172 HD
ENDROOT
BRANCH   1   7
HETATM    7  C   UNL     1     -40.205 -48.637  12.249  1.00  0.00     0.162 C 
BRANCH   7   8
HETATM    8  C   UNL     1     -40.156 -50.109  11.752  1.00  0.00     0.077 C 
HETATM    9  C   UNL     1     -41.348 -50.961  12.217  1.00  0.00     0.070 C 
HETATM   10  C   UNL     1     -41.290 -51.266  13.713  1.00  0.00     0.275 C 
HETATM   11  N   UNL     1     -40.020 -51.856  14.155  1.00  0.00     0.084 N 
HETATM   12  C   UNL     1     -39.900 -53.261  13.764  1.00  0.00     0.309 C 
HETATM   13  C   UNL     1     -38.863 -51.067  13.711  1.00  0.00     0.275 C 
HETATM   14  C   UNL     1     -38.853 -50.776  12.209  1.00  0.00     0.070 C 
BRANCH   8  15
HETATM   15  O   UNL     1     -40.160 -50.106  10.315  1.00  0.00    -0.388 OA
HETATM   16  H   UNL     1     -39.230 -50.206  10.038  1.00  0.00     0.210 HD
ENDBRANCH   8  15
ENDBRANCH   7   8
ENDBRANCH   1   7
BRANCH   4  17
HETATM   17  C   UNL     1     -43.700 -46.828  10.815  1.00  0.00     0.152 A 
HETATM   18  N   UNL     1     -44.643 -47.615  10.354  1.00  0.00    -0.340 N 
HETATM   19  C   UNL     1     -44.704 -47.511   8.980  1.00  0.00     0.014 A 
ATOM     20  HN  UNL     1     -45.241 -48.212  10.925  1.00  0.00     0.167 HD
HETATM   21  C   UNL     1     -45.757 -48.278   8.262  1.00  0.00     0.068 C 
HETATM   22  C   UNL     1     -43.748 -46.681   8.423  1.00  0.00     0.077 A 
HETATM   23  S   UNL     1     -42.822 -45.936   9.667  1.00  0.00    -0.064 SA
ENDBRANCH   4  17
TORSDOF 4
ENDMDL
MODEL 8
REMARK VINA RESULT:      -5.1      3.338      5.051
REMARK  4 active torsions:
REMARK  status: ('A' for Active; 'I' for Inactive)
REMARK    1  A    between atoms: C_5  and  O_6 
REMARK    2  A    between atoms: C_5  and  C_7 
REMARK    3  A    between atoms: C_7  and  N_8 
REMARK       I    between atoms: N_8  and  C_9 
REMARK       I    between atoms: C_9  and  N_11 
REMARK    4  A    between atoms: N_11  and  C_12 
ROOT
HETATM    1  N   UNL     1     -42.177 -51.930  13.458  1.00  0.00    -0.340 N 
HETATM    2  C   UNL     1     -42.563 -50.862  12.704  1.00  0.00     0.322 C 
HETATM    3  O   UNL     1     -41.786 -50.186  12.039  1.00  0.00    -0.247 OA
HETATM    4  N   UNL     1     -43.906 -50.619  12.643  1.00  0.00    -0.289 N 
HETATM    5  H   UNL     1     -42.879 -52.296  14.098  1.00  0.00     0.164 HD
HETATM    6  H   UNL     1     -44.207 -49.913  11.989  1.00  0.00     0.172 HD
ENDROOT
BRANCH   1   7
HETATM    7  C   UNL     1     -40.815 -52.407  13.603  1.00  0.00     0.162 C 
BRANCH   7   8
HETATM    8  C   UNL     1     -40.751 -53.958  13.662  1.00  0.00     0.077 C 
HETATM    9  C   UNL     1     -41.803 -54.587  14.590  1.00  0.00     0.070 C 
HETATM   10  C   UNL     1     -41.499 -54.330  16.065  1.00  0.00     0.275 C 
HETATM   11  N   UNL     1     -40.142 -54.718  16.472  1.00  0.00     0.084 N 
HETATM   12  C   UNL     1     -39.997 -56.168  16.593  1.00  0.00     0.309 C 
HETATM   13  C   UNL     1     -39.117 -54.141  15.592  1.00  0.00     0.275 C 
HETATM   14  C   UNL     1     -39.356 -54.412  14.105  1.00  0.00     0.070 C 
BRANCH   8  15
HETATM   15  O   UNL     1     -40.976 -54.475  12.340  1.00  0.00    -0.388 OA
HETATM   16  H   UNL     1     -40.181 -54.252  11.820  1.00  0.00     0.210 HD
ENDBRANCH   8  15
ENDBRANCH   7   8
ENDBRANCH   1   7
BRANCH   4  17
HETATM   17  C   UNL     1     -44.846 -51.295  13.364  1.00  0.00     0.152 A 
HETATM   18  N   UNL     1     -45.348 -50.947  14.525  1.00  0.00    -0.340 N 
HETATM   19  C   UNL     1     -46.261 -51.895  14.940  1.00  0.00     0.014 A 
ATOM     20  HN  UNL     1     -45.101 -50.103  15.043  1.00  0.00     0.167 HD
HETATM   21  C   UNL     1     -46.996 -51.655  16.210  1.00  0.00     0.068 C 
HETATM   22  C   UNL     1     -46.381 -52.984  14.097  1.00  0.00     0.077 A 
HETATM   23  S   UNL     1     -45.402 -52.757  12.701  1.00  0.00    -0.064 SA
ENDBRANCH   4  17
TORSDOF 4
ENDMDL
MODEL 9
REMARK VINA RESULT:      -5.1      3.120      5.595
REMARK  4 active torsions:
REMARK  status: ('A' for Active; 'I' for Inactive)
REMARK    1  A    between atoms: C_5  and  O_6 
REMARK    2  A    between atoms: C_5  and  C_7 
REMARK    3  A    between atoms: C_7  and  N_8 
REMARK       I    between atoms: N_8  and  C_9 
REMARK       I    between atoms: C_9  and  N_11 
REMARK    4  A    between atoms: N_11  and  C_12 
ROOT
HETATM    1  N   UNL     1     -42.263 -52.143  12.399  1.00  0.00    -0.340 N 
HETATM    2  C   UNL     1     -42.399 -53.418  12.864  1.00  0.00     0.322 C 
HETATM    3  O   UNL     1     -41.462 -54.198  12.987  1.00  0.00    -0.247 OA
HETATM    4  N   UNL     1     -43.649 -53.776  13.285  1.00  0.00    -0.289 N 
HETATM    5  H   UNL     1     -43.130 -51.659  12.175  1.00  0.00     0.164 HD
HETATM    6  H   UNL     1     -43.729 -54.670  13.746  1.00  0.00     0.172 HD
ENDROOT
BRANCH   1   7
HETATM    7  C   UNL     1     -41.019 -51.535  11.969  1.00  0.00     0.162 C 
BRANCH   7   8
HETATM    8  C   UNL     1     -40.568 -50.403  12.934  1.00  0.00     0.077 C 
HETATM    9  C   UNL     1     -39.398 -49.561  12.397  1.00  0.00     0.070 C 
HETATM   10  C   UNL     1     -38.083 -50.338  12.392  1.00  0.00     0.275 C 
HETATM   11  N   UNL     1     -37.741 -50.945  13.684  1.00  0.00     0.084 N 
HETATM   12  C   UNL     1     -37.266 -49.955  14.650  1.00  0.00     0.309 C 
HETATM   13  C   UNL     1     -38.848 -51.745  14.226  1.00  0.00     0.275 C 
HETATM   14  C   UNL     1     -40.179 -50.993  14.294  1.00  0.00     0.070 C 
BRANCH   8  15
HETATM   15  O   UNL     1     -41.678 -49.516  13.147  1.00  0.00    -0.388 OA
HETATM   16  H   UNL     1     -41.646 -49.259  14.088  1.00  0.00     0.210 HD
ENDBRANCH   8  15
ENDBRANCH   7   8
ENDBRANCH   1   7
BRANCH   4  17
HETATM   17  C   UNL     1     -44.758 -52.993  13.165  1.00  0.00     0.152 A 
HETATM   18  N   UNL     1     -45.434 -52.748  12.067  1.00  0.00    -0.340 N 
HETATM   19  C   UNL     1     -46.484 -51.898  12.348  1.00  0.00     0.014 A 
ATOM     20  HN  UNL     1     -45.217 -53.129  11.146  1.00  0.00     0.167 HD
HETATM   21  C   UNL     1     -47.417 -51.545  11.246  1.00  0.00     0.068 C 
HETATM   22  C   UNL     1     -46.539 -51.466  13.660  1.00  0.00     0.077 A 
HETATM   23  S   UNL     1     -45.303 -52.231  14.582  1.00  0.00    -0.064 SA
ENDBRANCH   4  17
TORSDOF 4
ENDMDL
