MODEL 1
REMARK VINA RESULT:      -6.8      0.000      0.000
REMARK  3 active torsions:
REMARK  status: ('A' for Active; 'I' for Inactive)
REMARK    1  A    between atoms: C_9  and  N_11 
REMARK       I    between atoms: N_11  and  C_12 
REMARK    2  A    between atoms: C_12  and  C_14 
REMARK    3  A    between atoms: C_14  and  N_15 
ROOT
HETATM    1  N   UNL     1     -43.471 -50.622  12.641  1.00  0.00    -0.354 N 
HETATM    2  C   UNL     1     -42.781 -49.426  12.596  1.00  0.00     0.236 C 
HETATM    3  O   UNL     1     -43.088 -48.441  13.264  1.00  0.00    -0.272 OA
HETATM    4  H   UNL     1     -43.263 -51.315  11.927  1.00  0.00     0.162 HD
ENDROOT
BRANCH   1   5
HETATM    5  C   UNL     1     -44.602 -50.823  13.534  1.00  0.00     0.093 C 
HETATM    6  C   UNL     1     -44.434 -51.983  14.575  1.00  0.00    -0.016 C 
HETATM    7  C   UNL     1     -44.973 -53.242  13.824  1.00  0.00    -0.035 C 
HETATM    8  C   UNL     1     -45.543 -51.739  15.648  1.00  0.00     0.012 C 
HETATM    9  C   UNL     1     -43.062 -52.101  15.219  1.00  0.00     0.018 C 
HETATM   10  C   UNL     1     -45.099 -54.513  14.691  1.00  0.00     0.016 C 
HETATM   11  C   UNL     1     -44.197 -53.671  12.565  1.00  0.00     0.016 C 
HETATM   12  C   UNL     1     -46.321 -52.541  13.519  1.00  0.00    -0.004 C 
HETATM   13  C   UNL     1     -46.837 -52.121  14.911  1.00  0.00     0.006 C 
HETATM   14  C   UNL     1     -45.899 -51.241  12.793  1.00  0.00     0.031 C 
ENDBRANCH   1   5
BRANCH   2  15
HETATM   15  C   UNL     1     -41.631 -49.390  11.589  1.00  0.00     0.235 C 
BRANCH  15  16
HETATM   16  N   UNL     1     -41.282 -48.018  11.223  1.00  0.00    -0.301 N 
HETATM   17  C   UNL     1     -40.283 -47.359  11.912  1.00  0.00     0.102 A 
HETATM   18  C   UNL     1     -39.922 -46.111  11.606  1.00  0.00     0.092 A 
HETATM   19  C   UNL     1     -40.612 -45.420  10.503  1.00  0.00     0.250 A 
HETATM   20  O   UNL     1     -40.317 -44.273  10.191  1.00  0.00    -0.268 OA
HETATM   21  N   UNL     1     -41.589 -46.138   9.875  1.00  0.00    -0.275 N 
HETATM   22  C   UNL     1     -41.989 -47.407  10.199  1.00  0.00     0.329 A 
HETATM   23  H   UNL     1     -42.082 -45.677   9.127  1.00  0.00     0.173 HD
HETATM   24  O   UNL     1     -42.923 -47.947   9.606  1.00  0.00    -0.246 OA
ENDBRANCH  15  16
ENDBRANCH   2  15
TORSDOF 3
ENDMDL
MODEL 2
REMARK VINA RESULT:      -6.7      1.252      1.781
REMARK  3 active torsions:
REMARK  status: ('A' for Active; 'I' for Inactive)
REMARK    1  A    between atoms: C_9  and  N_11 
REMARK       I    between atoms: N_11  and  C_12 
REMARK    2  A    between atoms: C_12  and  C_14 
REMARK    3  A    between atoms: C_14  and  N_15 
ROOT
HETATM    1  N   UNL     1     -43.699 -50.587  12.930  1.00  0.00    -0.354 N 
HETATM    2  C   UNL     1     -42.966 -49.443  13.178  1.00  0.00     0.236 C 
HETATM    3  O   UNL     1     -43.193 -48.682  14.117  1.00  0.00    -0.272 OA
HETATM    4  H   UNL     1     -43.562 -51.052  12.037  1.00  0.00     0.162 HD
ENDROOT
BRANCH   1   5
HETATM    5  C   UNL     1     -44.782 -51.010  13.804  1.00  0.00     0.093 C 
HETATM    6  C   UNL     1     -44.500 -52.305  14.640  1.00  0.00    -0.016 C 
HETATM    7  C   UNL     1     -44.978 -53.464  13.708  1.00  0.00    -0.035 C 
HETATM    8  C   UNL     1     -45.586 -52.317  15.764  1.00  0.00     0.012 C 
HETATM    9  C   UNL     1     -43.102 -52.425  15.224  1.00  0.00     0.018 C 
HETATM   10  C   UNL     1     -44.987 -54.863  14.361  1.00  0.00     0.016 C 
HETATM   11  C   UNL     1     -44.217 -53.629  12.378  1.00  0.00     0.016 C 
HETATM   12  C   UNL     1     -46.380 -52.824  13.551  1.00  0.00    -0.004 C 
HETATM   13  C   UNL     1     -46.875 -52.670  15.004  1.00  0.00     0.006 C 
HETATM   14  C   UNL     1     -46.073 -51.397  13.036  1.00  0.00     0.031 C 
ENDBRANCH   1   5
BRANCH   2  15
HETATM   15  C   UNL     1     -41.877 -49.146  12.146  1.00  0.00     0.235 C 
BRANCH  15  16
HETATM   16  N   UNL     1     -42.296 -48.105  11.209  1.00  0.00    -0.301 N 
HETATM   17  C   UNL     1     -43.604 -48.065  10.769  1.00  0.00     0.102 A 
HETATM   18  C   UNL     1     -44.034 -47.128   9.923  1.00  0.00     0.092 A 
HETATM   19  C   UNL     1     -43.083 -46.110   9.443  1.00  0.00     0.250 A 
HETATM   20  O   UNL     1     -43.433 -45.234   8.662  1.00  0.00    -0.268 OA
HETATM   21  N   UNL     1     -41.809 -46.221   9.921  1.00  0.00    -0.275 N 
HETATM   22  C   UNL     1     -41.348 -47.195  10.766  1.00  0.00     0.329 A 
HETATM   23  H   UNL     1     -41.141 -45.541   9.594  1.00  0.00     0.173 HD
HETATM   24  O   UNL     1     -40.162 -47.240  11.093  1.00  0.00    -0.246 OA
ENDBRANCH  15  16
ENDBRANCH   2  15
TORSDOF 3
ENDMDL
MODEL 3
REMARK VINA RESULT:      -6.4      2.318      3.086
REMARK  3 active torsions:
REMARK  status: ('A' for Active; 'I' for Inactive)
REMARK    1  A    between atoms: C_9  and  N_11 
REMARK       I    between atoms: N_11  and  C_12 
REMARK    2  A    between atoms: C_12  and  C_14 
REMARK    3  A    between atoms: C_14  and  N_15 
ROOT
HETATM    1  N   UNL     1     -43.610 -50.534  12.643  1.00  0.00    -0.354 N 
HETATM    2  C   UNL     1     -42.839 -49.391  12.739  1.00  0.00     0.236 C 
HETATM    3  O   UNL     1     -42.965 -48.563  13.638  1.00  0.00    -0.272 OA
HETATM    4  H   UNL     1     -43.564 -51.063  11.776  1.00  0.00     0.162 HD
ENDROOT
BRANCH   1   5
HETATM    5  C   UNL     1     -44.611 -50.872  13.642  1.00  0.00     0.093 C 
HETATM    6  C   UNL     1     -44.263 -52.101  14.550  1.00  0.00    -0.016 C 
HETATM    7  C   UNL     1     -44.831 -53.323  13.759  1.00  0.00    -0.035 C 
HETATM    8  C   UNL     1     -45.241 -52.010  15.764  1.00  0.00     0.012 C 
HETATM    9  C   UNL     1     -42.818 -52.193  15.013  1.00  0.00     0.018 C 
HETATM   10  C   UNL     1     -44.790 -54.666  14.520  1.00  0.00     0.016 C 
HETATM   11  C   UNL     1     -44.196 -53.603  12.384  1.00  0.00     0.016 C 
HETATM   12  C   UNL     1     -46.237 -52.678  13.679  1.00  0.00    -0.004 C 
HETATM   13  C   UNL     1     -46.596 -52.404  15.155  1.00  0.00     0.006 C 
HETATM   14  C   UNL     1     -45.969 -51.301  13.027  1.00  0.00     0.031 C 
ENDBRANCH   1   5
BRANCH   2  15
HETATM   15  C   UNL     1     -41.849 -49.190  11.592  1.00  0.00     0.235 C 
BRANCH  15  16
HETATM   16  N   UNL     1     -40.524 -49.709  11.929  1.00  0.00    -0.301 N 
HETATM   17  C   UNL     1     -39.491 -48.832  12.192  1.00  0.00     0.102 A 
HETATM   18  C   UNL     1     -38.269 -49.259  12.515  1.00  0.00     0.092 A 
HETATM   19  C   UNL     1     -38.018 -50.709  12.590  1.00  0.00     0.250 A 
HETATM   20  O   UNL     1     -36.911 -51.146  12.878  1.00  0.00    -0.268 OA
HETATM   21  N   UNL     1     -39.089 -51.509  12.313  1.00  0.00    -0.275 N 
HETATM   22  C   UNL     1     -40.340 -51.083  11.951  1.00  0.00     0.329 A 
HETATM   23  H   UNL     1     -38.933 -52.504  12.346  1.00  0.00     0.173 HD
HETATM   24  O   UNL     1     -41.224 -51.890  11.664  1.00  0.00    -0.246 OA
ENDBRANCH  15  16
ENDBRANCH   2  15
TORSDOF 3
ENDMDL
MODEL 4
REMARK VINA RESULT:      -6.3      3.671      5.166
REMARK  3 active torsions:
REMARK  status: ('A' for Active; 'I' for Inactive)
REMARK    1  A    between atoms: C_9  and  N_11 
REMARK       I    between atoms: N_11  and  C_12 
REMARK    2  A    between atoms: C_12  and  C_14 
REMARK    3  A    between atoms: C_14  and  N_15 
ROOT
HETATM    1  N   UNL     1     -43.118 -53.347  15.284  1.00  0.00    -0.354 N 
HETATM    2  C   UNL     1     -42.478 -54.566  15.407  1.00  0.00     0.236 C 
HETATM    3  O   UNL     1     -43.041 -55.592  15.783  1.00  0.00    -0.272 OA
HETATM    4  H   UNL     1     -42.540 -52.522  15.146  1.00  0.00     0.162 HD
ENDROOT
BRANCH   1   5
HETATM    5  C   UNL     1     -44.540 -53.197  15.547  1.00  0.00     0.093 C 
HETATM    6  C   UNL     1     -45.463 -53.240  14.280  1.00  0.00    -0.016 C 
HETATM    7  C   UNL     1     -45.526 -51.751  13.812  1.00  0.00    -0.035 C 
HETATM    8  C   UNL     1     -46.907 -53.475  14.828  1.00  0.00     0.012 C 
HETATM    9  C   UNL     1     -45.097 -54.276  13.230  1.00  0.00     0.018 C 
HETATM   10  C   UNL     1     -46.531 -51.469  12.674  1.00  0.00     0.016 C 
HETATM   11  C   UNL     1     -44.196 -51.119  13.361  1.00  0.00     0.016 C 
HETATM   12  C   UNL     1     -45.998 -51.281  15.211  1.00  0.00    -0.004 C 
HETATM   13  C   UNL     1     -47.264 -52.125  15.470  1.00  0.00     0.006 C 
HETATM   14  C   UNL     1     -44.905 -51.821  16.164  1.00  0.00     0.031 C 
ENDBRANCH   1   5
BRANCH   2  15
HETATM   15  C   UNL     1     -40.979 -54.534  15.105  1.00  0.00     0.235 C 
BRANCH  15  16
HETATM   16  N   UNL     1     -40.639 -53.445  14.191  1.00  0.00    -0.301 N 
HETATM   17  C   UNL     1     -41.147 -53.444  12.907  1.00  0.00     0.102 A 
HETATM   18  C   UNL     1     -40.874 -52.466  12.042  1.00  0.00     0.092 A 
HETATM   19  C   UNL     1     -40.003 -51.358  12.471  1.00  0.00     0.250 A 
HETATM   20  O   UNL     1     -39.721 -50.442  11.710  1.00  0.00    -0.268 OA
HETATM   21  N   UNL     1     -39.538 -51.434  13.753  1.00  0.00    -0.275 N 
HETATM   22  C   UNL     1     -39.787 -52.448  14.641  1.00  0.00     0.329 A 
HETATM   23  H   UNL     1     -38.930 -50.692  14.061  1.00  0.00     0.173 HD
HETATM   24  O   UNL     1     -39.272 -52.450  15.758  1.00  0.00    -0.246 OA
ENDBRANCH  15  16
ENDBRANCH   2  15
TORSDOF 3
ENDMDL
MODEL 5
REMARK VINA RESULT:      -6.3      1.903      2.613
REMARK  3 active torsions:
REMARK  status: ('A' for Active; 'I' for Inactive)
REMARK    1  A    between atoms: C_9  and  N_11 
REMARK       I    between atoms: N_11  and  C_12 
REMARK    2  A    between atoms: C_12  and  C_14 
REMARK    3  A    between atoms: C_14  and  N_15 
ROOT
HETATM    1  N   UNL     1     -42.490 -50.931  12.333  1.00  0.00    -0.354 N 
HETATM    2  C   UNL     1     -42.564 -49.553  12.402  1.00  0.00     0.236 C 
HETATM    3  O   UNL     1     -43.386 -48.952  13.091  1.00  0.00    -0.272 OA
HETATM    4  H   UNL     1     -41.908 -51.337  11.605  1.00  0.00     0.162 HD
ENDROOT
BRANCH   1   5
HETATM    5  C   UNL     1     -43.361 -51.787  13.122  1.00  0.00     0.093 C 
HETATM    6  C   UNL     1     -42.709 -52.404  14.407  1.00  0.00    -0.016 C 
HETATM    7  C   UNL     1     -42.075 -53.739  13.901  1.00  0.00    -0.035 C 
HETATM    8  C   UNL     1     -43.904 -52.915  15.273  1.00  0.00     0.012 C 
HETATM    9  C   UNL     1     -41.809 -51.474  15.204  1.00  0.00     0.018 C 
HETATM   10  C   UNL     1     -41.515 -54.656  15.010  1.00  0.00     0.016 C 
HETATM   11  C   UNL     1     -40.947 -53.609  12.859  1.00  0.00     0.016 C 
HETATM   12  C   UNL     1     -43.425 -54.210  13.304  1.00  0.00    -0.004 C 
HETATM   13  C   UNL     1     -44.392 -54.154  14.505  1.00  0.00     0.006 C 
HETATM   14  C   UNL     1     -43.828 -53.055  12.358  1.00  0.00     0.031 C 
ENDBRANCH   1   5
BRANCH   2  15
HETATM   15  C   UNL     1     -41.582 -48.814  11.493  1.00  0.00     0.235 C 
BRANCH  15  16
HETATM   16  N   UNL     1     -42.210 -47.663  10.847  1.00  0.00    -0.301 N 
HETATM   17  C   UNL     1     -42.861 -47.825   9.640  1.00  0.00     0.102 A 
HETATM   18  C   UNL     1     -43.458 -46.806   9.019  1.00  0.00     0.092 A 
HETATM   19  C   UNL     1     -43.418 -45.471   9.641  1.00  0.00     0.250 A 
HETATM   20  O   UNL     1     -43.948 -44.506   9.105  1.00  0.00    -0.268 OA
HETATM   21  N   UNL     1     -42.752 -45.393  10.830  1.00  0.00    -0.275 N 
HETATM   22  C   UNL     1     -42.110 -46.425  11.463  1.00  0.00     0.329 A 
HETATM   23  H   UNL     1     -42.702 -44.485  11.265  1.00  0.00     0.173 HD
HETATM   24  O   UNL     1     -41.487 -46.236  12.507  1.00  0.00    -0.246 OA
ENDBRANCH  15  16
ENDBRANCH   2  15
TORSDOF 3
ENDMDL
MODEL 6
REMARK VINA RESULT:      -6.3      3.608      4.934
REMARK  3 active torsions:
REMARK  status: ('A' for Active; 'I' for Inactive)
REMARK    1  A    between atoms: C_9  and  N_11 
REMARK       I    between atoms: N_11  and  C_12 
REMARK    2  A    between atoms: C_12  and  C_14 
REMARK    3  A    between atoms: C_14  and  N_15 
ROOT
HETATM    1  N   UNL     1     -43.054 -53.217  15.350  1.00  0.00    -0.354 N 
HETATM    2  C   UNL     1     -42.361 -54.389  15.583  1.00  0.00     0.236 C 
HETATM    3  O   UNL     1     -42.884 -55.406  16.035  1.00  0.00    -0.272 OA
HETATM    4  H   UNL     1     -42.512 -52.379  15.152  1.00  0.00     0.162 HD
ENDROOT
BRANCH   1   5
HETATM    5  C   UNL     1     -44.486 -53.112  15.579  1.00  0.00     0.093 C 
HETATM    6  C   UNL     1     -45.379 -53.217  14.295  1.00  0.00    -0.016 C 
HETATM    7  C   UNL     1     -45.486 -51.742  13.792  1.00  0.00    -0.035 C 
HETATM    8  C   UNL     1     -46.825 -53.492  14.818  1.00  0.00     0.012 C 
HETATM    9  C   UNL     1     -44.954 -54.262  13.277  1.00  0.00     0.018 C 
HETATM   10  C   UNL     1     -46.475 -51.521  12.627  1.00  0.00     0.016 C 
HETATM   11  C   UNL     1     -44.170 -51.072  13.354  1.00  0.00     0.016 C 
HETATM   12  C   UNL     1     -46.005 -51.259  15.170  1.00  0.00    -0.004 C 
HETATM   13  C   UNL     1     -47.245 -52.142  15.421  1.00  0.00     0.006 C 
HETATM   14  C   UNL     1     -44.914 -51.737  16.157  1.00  0.00     0.031 C 
ENDBRANCH   1   5
BRANCH   2  15
HETATM   15  C   UNL     1     -40.861 -54.312  15.300  1.00  0.00     0.235 C 
BRANCH  15  16
HETATM   16  N   UNL     1     -40.548 -53.246  14.349  1.00  0.00    -0.301 N 
HETATM   17  C   UNL     1     -39.948 -52.085  14.794  1.00  0.00     0.102 A 
HETATM   18  C   UNL     1     -39.634 -51.091  13.962  1.00  0.00     0.092 A 
HETATM   19  C   UNL     1     -39.941 -51.238  12.528  1.00  0.00     0.250 A 
HETATM   20  O   UNL     1     -39.675 -50.349  11.729  1.00  0.00    -0.268 OA
HETATM   21  N   UNL     1     -40.538 -52.412  12.169  1.00  0.00    -0.275 N 
HETATM   22  C   UNL     1     -40.892 -53.428  13.018  1.00  0.00     0.329 A 
HETATM   23  H   UNL     1     -40.767 -52.526  11.195  1.00  0.00     0.173 HD
HETATM   24  O   UNL     1     -41.480 -54.425  12.600  1.00  0.00    -0.246 OA
ENDBRANCH  15  16
ENDBRANCH   2  15
TORSDOF 3
ENDMDL
MODEL 7
REMARK VINA RESULT:      -6.3      3.886      5.549
REMARK  3 active torsions:
REMARK  status: ('A' for Active; 'I' for Inactive)
REMARK    1  A    between atoms: C_9  and  N_11 
REMARK       I    between atoms: N_11  and  C_12 
REMARK    2  A    between atoms: C_12  and  C_14 
REMARK    3  A    between atoms: C_14  and  N_15 
ROOT
HETATM    1  N   UNL     1     -42.521 -51.438  14.162  1.00  0.00    -0.354 N 
HETATM    2  C   UNL     1     -41.518 -50.676  14.731  1.00  0.00     0.236 C 
HETATM    3  O   UNL     1     -41.729 -49.770  15.534  1.00  0.00    -0.272 OA
HETATM    4  H   UNL     1     -42.273 -52.035  13.377  1.00  0.00     0.162 HD
ENDROOT
BRANCH   1   5
HETATM    5  C   UNL     1     -43.920 -51.253  14.514  1.00  0.00     0.093 C 
HETATM    6  C   UNL     1     -44.618 -52.500  15.159  1.00  0.00    -0.016 C 
HETATM    7  C   UNL     1     -45.168 -53.297  13.934  1.00  0.00    -0.035 C 
HETATM    8  C   UNL     1     -45.927 -51.951  15.811  1.00  0.00     0.012 C 
HETATM    9  C   UNL     1     -43.785 -53.277  16.166  1.00  0.00     0.018 C 
HETATM   10  C   UNL     1     -46.075 -54.495  14.290  1.00  0.00     0.016 C 
HETATM   11  C   UNL     1     -44.120 -53.845  12.947  1.00  0.00     0.016 C 
HETATM   12  C   UNL     1     -45.931 -52.054  13.408  1.00  0.00    -0.004 C 
HETATM   13  C   UNL     1     -46.821 -51.643  14.599  1.00  0.00     0.006 C 
HETATM   14  C   UNL     1     -44.828 -50.975  13.288  1.00  0.00     0.031 C 
ENDBRANCH   1   5
BRANCH   2  15
HETATM   15  C   UNL     1     -40.110 -50.998  14.231  1.00  0.00     0.235 C 
BRANCH  15  16
HETATM   16  N   UNL     1     -39.702 -52.350  14.610  1.00  0.00    -0.301 N 
HETATM   17  C   UNL     1     -39.176 -52.580  15.866  1.00  0.00     0.102 A 
HETATM   18  C   UNL     1     -38.801 -53.798  16.260  1.00  0.00     0.092 A 
HETATM   19  C   UNL     1     -38.950 -54.927  15.325  1.00  0.00     0.250 A 
HETATM   20  O   UNL     1     -38.615 -56.061  15.642  1.00  0.00    -0.268 OA
HETATM   21  N   UNL     1     -39.474 -54.616  14.103  1.00  0.00    -0.275 N 
HETATM   22  C   UNL     1     -39.835 -53.365  13.676  1.00  0.00     0.329 A 
HETATM   23  H   UNL     1     -39.572 -55.373  13.445  1.00  0.00     0.173 HD
HETATM   24  O   UNL     1     -40.245 -53.183  12.530  1.00  0.00    -0.246 OA
ENDBRANCH  15  16
ENDBRANCH   2  15
TORSDOF 3
ENDMDL
MODEL 8
REMARK VINA RESULT:      -6.3      3.725      5.735
REMARK  3 active torsions:
REMARK  status: ('A' for Active; 'I' for Inactive)
REMARK    1  A    between atoms: C_9  and  N_11 
REMARK       I    between atoms: N_11  and  C_12 
REMARK    2  A    between atoms: C_12  and  C_14 
REMARK    3  A    between atoms: C_14  and  N_15 
ROOT
HETATM    1  N   UNL     1     -40.281 -47.477  12.541  1.00  0.00    -0.354 N 
HETATM    2  C   UNL     1     -40.497 -46.551  11.539  1.00  0.00     0.236 C 
HETATM    3  O   UNL     1     -39.684 -46.316  10.647  1.00  0.00    -0.272 OA
HETATM    4  H   UNL     1     -40.919 -47.474  13.333  1.00  0.00     0.162 HD
ENDROOT
BRANCH   1   5
HETATM    5  C   UNL     1     -39.077 -48.292  12.587  1.00  0.00     0.093 C 
HETATM    6  C   UNL     1     -39.289 -49.816  12.289  1.00  0.00    -0.016 C 
HETATM    7  C   UNL     1     -39.601 -50.432  13.690  1.00  0.00    -0.035 C 
HETATM    8  C   UNL     1     -37.864 -50.381  11.990  1.00  0.00     0.012 C 
HETATM    9  C   UNL     1     -40.258 -50.142  11.164  1.00  0.00     0.018 C 
HETATM   10  C   UNL     1     -39.672 -51.974  13.722  1.00  0.00     0.016 C 
HETATM   11  C   UNL     1     -40.887 -49.941  14.382  1.00  0.00     0.016 C 
HETATM   12  C   UNL     1     -38.302 -49.841  14.293  1.00  0.00    -0.004 C 
HETATM   13  C   UNL     1     -37.192 -50.391  13.373  1.00  0.00     0.006 C 
HETATM   14  C   UNL     1     -38.417 -48.328  13.991  1.00  0.00     0.031 C 
ENDBRANCH   1   5
BRANCH   2  15
HETATM   15  C   UNL     1     -41.809 -45.775  11.658  1.00  0.00     0.235 C 
BRANCH  15  16
HETATM   16  N   UNL     1     -42.847 -46.341  10.797  1.00  0.00    -0.301 N 
HETATM   17  C   UNL     1     -43.196 -45.693   9.629  1.00  0.00     0.102 A 
HETATM   18  C   UNL     1     -44.129 -46.178   8.807  1.00  0.00     0.092 A 
HETATM   19  C   UNL     1     -44.805 -47.438   9.161  1.00  0.00     0.250 A 
HETATM   20  O   UNL     1     -45.671 -47.917   8.439  1.00  0.00    -0.268 OA
HETATM   21  N   UNL     1     -44.406 -48.014  10.333  1.00  0.00    -0.275 N 
HETATM   22  C   UNL     1     -43.472 -47.511  11.199  1.00  0.00     0.329 A 
HETATM   23  H   UNL     1     -44.867 -48.870  10.598  1.00  0.00     0.173 HD
HETATM   24  O   UNL     1     -43.225 -48.080  12.262  1.00  0.00    -0.246 OA
ENDBRANCH  15  16
ENDBRANCH   2  15
TORSDOF 3
ENDMDL
MODEL 9
REMARK VINA RESULT:      -6.1      2.533      3.992
REMARK  3 active torsions:
REMARK  status: ('A' for Active; 'I' for Inactive)
REMARK    1  A    between atoms: C_9  and  N_11 
REMARK       I    between atoms: N_11  and  C_12 
REMARK    2  A    between atoms: C_12  and  C_14 
REMARK    3  A    between atoms: C_14  and  N_15 
ROOT
HETATM    1  N   UNL     1     -40.832 -50.434  13.451  1.00  0.00    -0.354 N 
HETATM    2  C   UNL     1     -40.524 -49.463  12.517  1.00  0.00     0.236 C 
HETATM    3  O   UNL     1     -39.795 -49.662  11.548  1.00  0.00    -0.272 OA
HETATM    4  H   UNL     1     -41.288 -50.136  14.310  1.00  0.00     0.162 HD
ENDROOT
BRANCH   1   5
HETATM    5  C   UNL     1     -40.345 -51.799  13.329  1.00  0.00     0.093 C 
HETATM    6  C   UNL     1     -41.455 -52.906  13.316  1.00  0.00    -0.016 C 
HETATM    7  C   UNL     1     -41.656 -53.253  14.826  1.00  0.00    -0.035 C 
HETATM    8  C   UNL     1     -40.751 -54.191  12.773  1.00  0.00     0.012 C 
HETATM    9  C   UNL     1     -42.704 -52.581  12.513  1.00  0.00     0.018 C 
HETATM   10  C   UNL     1     -42.575 -54.463  15.099  1.00  0.00     0.016 C 
HETATM   11  C   UNL     1     -42.183 -52.118  15.724  1.00  0.00     0.016 C 
HETATM   12  C   UNL     1     -40.145 -53.544  15.009  1.00  0.00    -0.004 C 
HETATM   13  C   UNL     1     -39.850 -54.619  13.942  1.00  0.00     0.006 C 
HETATM   14  C   UNL     1     -39.462 -52.242  14.525  1.00  0.00     0.031 C 
ENDBRANCH   1   5
BRANCH   2  15
HETATM   15  C   UNL     1     -41.110 -48.082  12.814  1.00  0.00     0.235 C 
BRANCH  15  16
HETATM   16  N   UNL     1     -41.741 -47.501  11.630  1.00  0.00    -0.301 N 
HETATM   17  C   UNL     1     -43.024 -47.876  11.284  1.00  0.00     0.102 A 
HETATM   18  C   UNL     1     -43.644 -47.364  10.219  1.00  0.00     0.092 A 
HETATM   19  C   UNL     1     -42.936 -46.373   9.391  1.00  0.00     0.250 A 
HETATM   20  O   UNL     1     -43.464 -45.880   8.402  1.00  0.00    -0.268 OA
HETATM   21  N   UNL     1     -41.671 -46.058   9.797  1.00  0.00    -0.275 N 
HETATM   22  C   UNL     1     -41.013 -46.599  10.870  1.00  0.00     0.329 A 
HETATM   23  H   UNL     1     -41.166 -45.391   9.236  1.00  0.00     0.173 HD
HETATM   24  O   UNL     1     -39.848 -46.288  11.119  1.00  0.00    -0.246 OA
ENDBRANCH  15  16
ENDBRANCH   2  15
TORSDOF 3
ENDMDL
