MODEL 1
REMARK VINA RESULT:      -6.1      0.000      0.000
REMARK  6 active torsions:
REMARK  status: ('A' for Active; 'I' for Inactive)
REMARK    1  A    between atoms: C_2  and  C_4 
REMARK    2  A    between atoms: C_7  and  C_8 
REMARK    3  A    between atoms: C_8  and  C_9 
REMARK    4  A    between atoms: C_9  and  N_10 
REMARK       I    between atoms: N_10  and  C_11 
REMARK    5  A    between atoms: C_11  and  C_13 
REMARK    6  A    between atoms: C_13  and  C_14 
ROOT
HETATM    1  C   UNL     1     -40.534 -50.862  12.115  1.00  0.00     0.128 C 
ENDROOT
BRANCH   1   2
HETATM    2  C   UNL     1     -40.156 -49.817  11.064  1.00  0.00     0.077 C 
BRANCH   2   3
HETATM    3  C   UNL     1     -41.166 -48.718  10.952  1.00  0.00     0.018 A 
HETATM    4  N   UNL     1     -41.915 -48.616   9.790  1.00  0.00    -0.356 N 
HETATM    5  C   UNL     1     -42.740 -47.591   9.865  1.00  0.00     0.054 A 
ATOM      6  HN  UNL     1     -41.839 -49.244   8.991  1.00  0.00     0.166 HD
HETATM    7  S   UNL     1     -42.667 -46.702  11.336  1.00  0.00    -0.086 SA
HETATM    8  C   UNL     1     -41.446 -47.758  11.904  1.00  0.00     0.076 A 
BRANCH   5   9
HETATM    9  C   UNL     1     -43.684 -47.172   8.767  1.00  0.00     0.035 C 
HETATM   10  C   UNL     1     -43.377 -47.941   7.482  1.00  0.00     0.016 C 
HETATM   11  C   UNL     1     -45.136 -47.389   9.191  1.00  0.00     0.016 C 
ENDBRANCH   5   9
ENDBRANCH   2   3
ENDBRANCH   1   2
BRANCH   1  12
HETATM   12  N   UNL     1     -41.861 -51.423  11.912  1.00  0.00    -0.361 N 
HETATM   13  C   UNL     1     -42.295 -52.527  12.604  1.00  0.00     0.217 C 
HETATM   14  O   UNL     1     -41.602 -53.127  13.420  1.00  0.00    -0.274 OA
HETATM   15  H   UNL     1     -42.423 -51.043  11.160  1.00  0.00     0.162 HD
BRANCH  13  16
HETATM   16  C   UNL     1     -43.702 -52.972  12.261  1.00  0.00     0.107 C 
BRANCH  16  17
HETATM   17  C   UNL     1     -44.675 -52.735  13.412  1.00  0.00    -0.006 C 
HETATM   18  C   UNL     1     -46.109 -52.488  12.922  1.00  0.00     0.005 C 
HETATM   19  C   UNL     1     -46.727 -51.471  13.884  1.00  0.00     0.000 C 
HETATM   20  C   UNL     1     -45.669 -51.190  14.941  1.00  0.00     0.000 C 
HETATM   21  C   UNL     1     -44.355 -51.488  14.238  1.00  0.00     0.005 C 
ENDBRANCH  16  17
ENDBRANCH  13  16
ENDBRANCH   1  12
TORSDOF 6
ENDMDL
MODEL 2
REMARK VINA RESULT:      -5.9      2.732      4.513
REMARK  6 active torsions:
REMARK  status: ('A' for Active; 'I' for Inactive)
REMARK    1  A    between atoms: C_2  and  C_4 
REMARK    2  A    between atoms: C_7  and  C_8 
REMARK    3  A    between atoms: C_8  and  C_9 
REMARK    4  A    between atoms: C_9  and  N_10 
REMARK       I    between atoms: N_10  and  C_11 
REMARK    5  A    between atoms: C_11  and  C_13 
REMARK    6  A    between atoms: C_13  and  C_14 
ROOT
HETATM    1  C   UNL     1     -41.183 -50.009  11.472  1.00  0.00     0.128 C 
ENDROOT
BRANCH   1   2
HETATM    2  C   UNL     1     -42.179 -49.055  12.131  1.00  0.00     0.077 C 
BRANCH   2   3
HETATM    3  C   UNL     1     -43.011 -49.723  13.181  1.00  0.00     0.018 A 
HETATM    4  N   UNL     1     -44.127 -50.447  12.788  1.00  0.00    -0.356 N 
HETATM    5  C   UNL     1     -44.738 -50.953  13.839  1.00  0.00     0.054 A 
ATOM      6  HN  UNL     1     -44.431 -50.570  11.822  1.00  0.00     0.166 HD
HETATM    7  S   UNL     1     -44.004 -50.595  15.353  1.00  0.00    -0.086 SA
HETATM    8  C   UNL     1     -42.792 -49.699  14.544  1.00  0.00     0.076 A 
BRANCH   5   9
HETATM    9  C   UNL     1     -46.001 -51.774  13.779  1.00  0.00     0.035 C 
HETATM   10  C   UNL     1     -46.939 -51.390  14.924  1.00  0.00     0.016 C 
HETATM   11  C   UNL     1     -46.698 -51.597  12.430  1.00  0.00     0.016 C 
ENDBRANCH   5   9
ENDBRANCH   2   3
ENDBRANCH   1   2
BRANCH   1  12
HETATM   12  N   UNL     1     -41.406 -51.403  11.823  1.00  0.00    -0.361 N 
HETATM   13  C   UNL     1     -40.430 -52.167  12.414  1.00  0.00     0.217 C 
HETATM   14  O   UNL     1     -39.306 -51.747  12.669  1.00  0.00    -0.274 OA
HETATM   15  H   UNL     1     -42.271 -51.832  11.519  1.00  0.00     0.162 HD
BRANCH  13  16
HETATM   16  C   UNL     1     -40.841 -53.596  12.706  1.00  0.00     0.107 C 
BRANCH  16  17
HETATM   17  C   UNL     1     -41.974 -53.670  13.725  1.00  0.00    -0.006 C 
HETATM   18  C   UNL     1     -41.615 -54.548  14.933  1.00  0.00     0.005 C 
HETATM   19  C   UNL     1     -42.906 -55.249  15.359  1.00  0.00     0.000 C 
HETATM   20  C   UNL     1     -43.997 -54.726  14.435  1.00  0.00     0.000 C 
HETATM   21  C   UNL     1     -43.250 -54.312  13.178  1.00  0.00     0.005 C 
ENDBRANCH  16  17
ENDBRANCH  13  16
ENDBRANCH   1  12
TORSDOF 6
ENDMDL
MODEL 3
REMARK VINA RESULT:      -5.7      3.403      4.470
REMARK  6 active torsions:
REMARK  status: ('A' for Active; 'I' for Inactive)
REMARK    1  A    between atoms: C_2  and  C_4 
REMARK    2  A    between atoms: C_7  and  C_8 
REMARK    3  A    between atoms: C_8  and  C_9 
REMARK    4  A    between atoms: C_9  and  N_10 
REMARK       I    between atoms: N_10  and  C_11 
REMARK    5  A    between atoms: C_11  and  C_13 
REMARK    6  A    between atoms: C_13  and  C_14 
ROOT
HETATM    1  C   UNL     1     -42.574 -54.110  13.703  1.00  0.00     0.128 C 
ENDROOT
BRANCH   1   2
HETATM    2  C   UNL     1     -41.286 -54.007  12.885  1.00  0.00     0.077 C 
BRANCH   2   3
HETATM    3  C   UNL     1     -40.539 -52.735  13.141  1.00  0.00     0.018 A 
HETATM    4  N   UNL     1     -40.218 -51.922  12.064  1.00  0.00    -0.356 N 
HETATM    5  C   UNL     1     -39.557 -50.858  12.475  1.00  0.00     0.054 A 
ATOM      6  HN  UNL     1     -40.459 -52.118  11.093  1.00  0.00     0.166 HD
HETATM    7  S   UNL     1     -39.293 -50.773  14.173  1.00  0.00    -0.086 SA
HETATM    8  C   UNL     1     -40.114 -52.262  14.366  1.00  0.00     0.076 A 
BRANCH   5   9
HETATM    9  C   UNL     1     -39.031 -49.777  11.566  1.00  0.00     0.035 C 
HETATM   10  C   UNL     1     -39.346 -48.397  12.146  1.00  0.00     0.016 C 
HETATM   11  C   UNL     1     -37.527 -49.939  11.347  1.00  0.00     0.016 C 
ENDBRANCH   5   9
ENDBRANCH   2   3
ENDBRANCH   1   2
BRANCH   1  12
HETATM   12  N   UNL     1     -43.606 -53.183  13.264  1.00  0.00    -0.361 N 
HETATM   13  C   UNL     1     -44.880 -53.602  12.970  1.00  0.00     0.217 C 
HETATM   14  O   UNL     1     -45.236 -54.775  13.034  1.00  0.00    -0.274 OA
HETATM   15  H   UNL     1     -43.329 -52.227  13.072  1.00  0.00     0.162 HD
BRANCH  13  16
HETATM   16  C   UNL     1     -45.819 -52.499  12.526  1.00  0.00     0.107 C 
BRANCH  16  17
HETATM   17  C   UNL     1     -46.445 -51.769  13.711  1.00  0.00    -0.006 C 
HETATM   18  C   UNL     1     -45.407 -50.991  14.533  1.00  0.00     0.005 C 
HETATM   19  C   UNL     1     -45.857 -51.076  15.992  1.00  0.00     0.000 C 
HETATM   20  C   UNL     1     -47.169 -51.847  15.987  1.00  0.00     0.000 C 
HETATM   21  C   UNL     1     -47.090 -52.705  14.736  1.00  0.00     0.005 C 
ENDBRANCH  16  17
ENDBRANCH  13  16
ENDBRANCH   1  12
TORSDOF 6
ENDMDL
MODEL 4
REMARK VINA RESULT:      -5.7      1.480      2.041
REMARK  6 active torsions:
REMARK  status: ('A' for Active; 'I' for Inactive)
REMARK    1  A    between atoms: C_2  and  C_4 
REMARK    2  A    between atoms: C_7  and  C_8 
REMARK    3  A    between atoms: C_8  and  C_9 
REMARK    4  A    between atoms: C_9  and  N_10 
REMARK       I    between atoms: N_10  and  C_11 
REMARK    5  A    between atoms: C_11  and  C_13 
REMARK    6  A    between atoms: C_13  and  C_14 
ROOT
HETATM    1  C   UNL     1     -40.433 -50.274  12.722  1.00  0.00     0.128 C 
ENDROOT
BRANCH   1   2
HETATM    2  C   UNL     1     -40.069 -49.691  11.356  1.00  0.00     0.077 C 
BRANCH   2   3
HETATM    3  C   UNL     1     -40.919 -48.517  10.983  1.00  0.00     0.018 A 
HETATM    4  N   UNL     1     -41.981 -48.712  10.112  1.00  0.00    -0.356 N 
HETATM    5  C   UNL     1     -42.607 -47.574   9.892  1.00  0.00     0.054 A 
ATOM      6  HN  UNL     1     -42.240 -49.608   9.700  1.00  0.00     0.166 HD
HETATM    7  S   UNL     1     -41.963 -46.213  10.724  1.00  0.00    -0.086 SA
HETATM    8  C   UNL     1     -40.763 -47.216  11.418  1.00  0.00     0.076 A 
BRANCH   5   9
HETATM    9  C   UNL     1     -43.792 -47.415   8.974  1.00  0.00     0.035 C 
HETATM   10  C   UNL     1     -44.223 -45.949   8.912  1.00  0.00     0.016 C 
HETATM   11  C   UNL     1     -43.468 -47.941   7.576  1.00  0.00     0.016 C 
ENDBRANCH   5   9
ENDBRANCH   2   3
ENDBRANCH   1   2
BRANCH   1  12
HETATM   12  N   UNL     1     -41.107 -51.561  12.634  1.00  0.00    -0.361 N 
HETATM   13  C   UNL     1     -40.953 -52.527  13.598  1.00  0.00     0.217 C 
HETATM   14  O   UNL     1     -40.233 -52.390  14.582  1.00  0.00    -0.274 OA
HETATM   15  H   UNL     1     -41.609 -51.772  11.780  1.00  0.00     0.162 HD
BRANCH  13  16
HETATM   16  C   UNL     1     -41.728 -53.803  13.338  1.00  0.00     0.107 C 
BRANCH  16  17
HETATM   17  C   UNL     1     -43.190 -53.681  13.757  1.00  0.00    -0.006 C 
HETATM   18  C   UNL     1     -43.715 -54.963  14.421  1.00  0.00     0.005 C 
HETATM   19  C   UNL     1     -45.179 -55.101  14.001  1.00  0.00     0.000 C 
HETATM   20  C   UNL     1     -45.494 -53.876  13.153  1.00  0.00     0.000 C 
HETATM   21  C   UNL     1     -44.147 -53.464  12.583  1.00  0.00     0.005 C 
ENDBRANCH  16  17
ENDBRANCH  13  16
ENDBRANCH   1  12
TORSDOF 6
ENDMDL
MODEL 5
REMARK VINA RESULT:      -5.6      1.885      2.542
REMARK  6 active torsions:
REMARK  status: ('A' for Active; 'I' for Inactive)
REMARK    1  A    between atoms: C_2  and  C_4 
REMARK    2  A    between atoms: C_7  and  C_8 
REMARK    3  A    between atoms: C_8  and  C_9 
REMARK    4  A    between atoms: C_9  and  N_10 
REMARK       I    between atoms: N_10  and  C_11 
REMARK    5  A    between atoms: C_11  and  C_13 
REMARK    6  A    between atoms: C_13  and  C_14 
ROOT
HETATM    1  C   UNL     1     -41.025 -50.524  12.415  1.00  0.00     0.128 C 
ENDROOT
BRANCH   1   2
HETATM    2  C   UNL     1     -40.564 -49.970  11.066  1.00  0.00     0.077 C 
BRANCH   2   3
HETATM    3  C   UNL     1     -40.977 -48.547  10.854  1.00  0.00     0.018 A 
HETATM    4  N   UNL     1     -40.027 -47.548  11.002  1.00  0.00    -0.356 N 
HETATM    5  C   UNL     1     -40.568 -46.366  10.788  1.00  0.00     0.054 A 
ATOM      6  HN  UNL     1     -39.048 -47.705  11.242  1.00  0.00     0.166 HD
HETATM    7  S   UNL     1     -42.241 -46.391  10.390  1.00  0.00    -0.086 SA
HETATM    8  C   UNL     1     -42.238 -48.097  10.519  1.00  0.00     0.076 A 
BRANCH   5   9
HETATM    9  C   UNL     1     -39.829 -45.057  10.891  1.00  0.00     0.035 C 
HETATM   10  C   UNL     1     -39.114 -44.746   9.575  1.00  0.00     0.016 C 
HETATM   11  C   UNL     1     -40.784 -43.924  11.266  1.00  0.00     0.016 C 
ENDBRANCH   5   9
ENDBRANCH   2   3
ENDBRANCH   1   2
BRANCH   1  12
HETATM   12  N   UNL     1     -42.340 -51.146  12.359  1.00  0.00    -0.361 N 
HETATM   13  C   UNL     1     -42.502 -52.507  12.440  1.00  0.00     0.217 C 
HETATM   14  O   UNL     1     -41.566 -53.293  12.545  1.00  0.00    -0.274 OA
HETATM   15  H   UNL     1     -43.132 -50.552  12.145  1.00  0.00     0.162 HD
BRANCH  13  16
HETATM   16  C   UNL     1     -43.941 -52.974  12.362  1.00  0.00     0.107 C 
BRANCH  16  17
HETATM   17  C   UNL     1     -44.768 -52.486  13.548  1.00  0.00    -0.006 C 
HETATM   18  C   UNL     1     -45.546 -53.624  14.223  1.00  0.00     0.005 C 
HETATM   19  C   UNL     1     -46.871 -53.024  14.696  1.00  0.00     0.000 C 
HETATM   20  C   UNL     1     -46.817 -51.545  14.340  1.00  0.00     0.000 C 
HETATM   21  C   UNL     1     -45.857 -51.482  13.164  1.00  0.00     0.005 C 
ENDBRANCH  16  17
ENDBRANCH  13  16
ENDBRANCH   1  12
TORSDOF 6
ENDMDL
MODEL 6
REMARK VINA RESULT:      -5.6      1.517      2.024
REMARK  6 active torsions:
REMARK  status: ('A' for Active; 'I' for Inactive)
REMARK    1  A    between atoms: C_2  and  C_4 
REMARK    2  A    between atoms: C_7  and  C_8 
REMARK    3  A    between atoms: C_8  and  C_9 
REMARK    4  A    between atoms: C_9  and  N_10 
REMARK       I    between atoms: N_10  and  C_11 
REMARK    5  A    between atoms: C_11  and  C_13 
REMARK    6  A    between atoms: C_13  and  C_14 
ROOT
HETATM    1  C   UNL     1     -40.094 -50.010  12.962  1.00  0.00     0.128 C 
ENDROOT
BRANCH   1   2
HETATM    2  C   UNL     1     -40.235 -49.823  11.451  1.00  0.00     0.077 C 
BRANCH   2   3
HETATM    3  C   UNL     1     -41.023 -48.603  11.090  1.00  0.00     0.018 A 
HETATM    4  N   UNL     1     -42.067 -48.725  10.185  1.00  0.00    -0.356 N 
HETATM    5  C   UNL     1     -42.636 -47.554   9.982  1.00  0.00     0.054 A 
ATOM      6  HN  UNL     1     -42.353 -49.596   9.741  1.00  0.00     0.166 HD
HETATM    7  S   UNL     1     -41.957 -46.248  10.871  1.00  0.00    -0.086 SA
HETATM    8  C   UNL     1     -40.822 -47.323  11.568  1.00  0.00     0.076 A 
BRANCH   5   9
HETATM    9  C   UNL     1     -43.787 -47.317   9.038  1.00  0.00     0.035 C 
HETATM   10  C   UNL     1     -44.097 -45.823   8.945  1.00  0.00     0.016 C 
HETATM   11  C   UNL     1     -43.479 -47.891   7.655  1.00  0.00     0.016 C 
ENDBRANCH   5   9
ENDBRANCH   2   3
ENDBRANCH   1   2
BRANCH   1  12
HETATM   12  N   UNL     1     -41.187 -50.771  13.549  1.00  0.00    -0.361 N 
HETATM   13  C   UNL     1     -42.031 -50.224  14.483  1.00  0.00     0.217 C 
HETATM   14  O   UNL     1     -41.920 -49.077  14.903  1.00  0.00    -0.274 OA
HETATM   15  H   UNL     1     -41.242 -51.759  13.331  1.00  0.00     0.162 HD
BRANCH  13  16
HETATM   16  C   UNL     1     -43.108 -51.165  14.985  1.00  0.00     0.107 C 
BRANCH  16  17
HETATM   17  C   UNL     1     -44.484 -50.809  14.429  1.00  0.00    -0.006 C 
HETATM   18  C   UNL     1     -45.599 -50.999  15.469  1.00  0.00     0.005 C 
HETATM   19  C   UNL     1     -46.830 -51.482  14.701  1.00  0.00     0.000 C 
HETATM   20  C   UNL     1     -46.430 -51.511  13.233  1.00  0.00     0.000 C 
HETATM   21  C   UNL     1     -44.922 -51.697  13.263  1.00  0.00     0.005 C 
ENDBRANCH  16  17
ENDBRANCH  13  16
ENDBRANCH   1  12
TORSDOF 6
ENDMDL
MODEL 7
REMARK VINA RESULT:      -5.4      1.915      2.724
REMARK  6 active torsions:
REMARK  status: ('A' for Active; 'I' for Inactive)
REMARK    1  A    between atoms: C_2  and  C_4 
REMARK    2  A    between atoms: C_7  and  C_8 
REMARK    3  A    between atoms: C_8  and  C_9 
REMARK    4  A    between atoms: C_9  and  N_10 
REMARK       I    between atoms: N_10  and  C_11 
REMARK    5  A    between atoms: C_11  and  C_13 
REMARK    6  A    between atoms: C_13  and  C_14 
ROOT
HETATM    1  C   UNL     1     -41.646 -52.718  13.463  1.00  0.00     0.128 C 
ENDROOT
BRANCH   1   2
HETATM    2  C   UNL     1     -40.835 -52.474  12.189  1.00  0.00     0.077 C 
BRANCH   2   3
HETATM    3  C   UNL     1     -40.561 -51.023  11.947  1.00  0.00     0.018 A 
HETATM    4  N   UNL     1     -41.550 -50.245  11.363  1.00  0.00    -0.356 N 
HETATM    5  C   UNL     1     -41.131 -49.004  11.219  1.00  0.00     0.054 A 
ATOM      6  HN  UNL     1     -42.470 -50.585  11.084  1.00  0.00     0.166 HD
HETATM    7  S   UNL     1     -39.535 -48.702  11.785  1.00  0.00    -0.086 SA
HETATM    8  C   UNL     1     -39.397 -50.344  12.246  1.00  0.00     0.076 A 
BRANCH   5   9
HETATM    9  C   UNL     1     -41.941 -47.897  10.595  1.00  0.00     0.035 C 
HETATM   10  C   UNL     1     -43.337 -47.846  11.215  1.00  0.00     0.016 C 
HETATM   11  C   UNL     1     -41.231 -46.552  10.753  1.00  0.00     0.016 C 
ENDBRANCH   5   9
ENDBRANCH   2   3
ENDBRANCH   1   2
BRANCH   1  12
HETATM   12  N   UNL     1     -43.006 -53.163  13.199  1.00  0.00    -0.361 N 
HETATM   13  C   UNL     1     -44.046 -52.276  13.067  1.00  0.00     0.217 C 
HETATM   14  O   UNL     1     -43.915 -51.061  13.178  1.00  0.00    -0.274 OA
HETATM   15  H   UNL     1     -43.189 -54.158  13.226  1.00  0.00     0.162 HD
BRANCH  13  16
HETATM   16  C   UNL     1     -45.391 -52.920  12.797  1.00  0.00     0.107 C 
BRANCH  16  17
HETATM   17  C   UNL     1     -46.314 -52.848  14.010  1.00  0.00    -0.006 C 
HETATM   18  C   UNL     1     -46.827 -51.424  14.268  1.00  0.00     0.005 C 
HETATM   19  C   UNL     1     -46.932 -51.269  15.786  1.00  0.00     0.000 C 
HETATM   20  C   UNL     1     -46.536 -52.614  16.377  1.00  0.00     0.000 C 
HETATM   21  C   UNL     1     -45.631 -53.230  15.324  1.00  0.00     0.005 C 
ENDBRANCH  16  17
ENDBRANCH  13  16
ENDBRANCH   1  12
TORSDOF 6
ENDMDL
MODEL 8
REMARK VINA RESULT:      -5.3      3.737      4.856
REMARK  6 active torsions:
REMARK  status: ('A' for Active; 'I' for Inactive)
REMARK    1  A    between atoms: C_2  and  C_4 
REMARK    2  A    between atoms: C_7  and  C_8 
REMARK    3  A    between atoms: C_8  and  C_9 
REMARK    4  A    between atoms: C_9  and  N_10 
REMARK       I    between atoms: N_10  and  C_11 
REMARK    5  A    between atoms: C_11  and  C_13 
REMARK    6  A    between atoms: C_13  and  C_14 
ROOT
HETATM    1  C   UNL     1     -41.798 -54.384  14.657  1.00  0.00     0.128 C 
ENDROOT
BRANCH   1   2
HETATM    2  C   UNL     1     -40.687 -54.273  13.612  1.00  0.00     0.077 C 
BRANCH   2   3
HETATM    3  C   UNL     1     -40.544 -52.887  13.065  1.00  0.00     0.018 A 
HETATM    4  N   UNL     1     -39.421 -52.148  13.406  1.00  0.00    -0.356 N 
HETATM    5  C   UNL     1     -39.469 -50.957  12.845  1.00  0.00     0.054 A 
ATOM      6  HN  UNL     1     -38.665 -52.479  14.005  1.00  0.00     0.166 HD
HETATM    7  S   UNL     1     -40.857 -50.663  11.873  1.00  0.00    -0.086 SA
HETATM    8  C   UNL     1     -41.432 -52.234  12.235  1.00  0.00     0.076 A 
BRANCH   5   9
HETATM    9  C   UNL     1     -38.423 -49.886  13.024  1.00  0.00     0.035 C 
HETATM   10  C   UNL     1     -37.481 -50.251  14.172  1.00  0.00     0.016 C 
HETATM   11  C   UNL     1     -37.638 -49.676  11.730  1.00  0.00     0.016 C 
ENDBRANCH   5   9
ENDBRANCH   2   3
ENDBRANCH   1   2
BRANCH   1  12
HETATM   12  N   UNL     1     -43.114 -54.594  14.074  1.00  0.00    -0.361 N 
HETATM   13  C   UNL     1     -44.239 -54.727  14.850  1.00  0.00     0.217 C 
HETATM   14  O   UNL     1     -44.219 -54.698  16.077  1.00  0.00    -0.274 OA
HETATM   15  H   UNL     1     -43.166 -54.753  13.075  1.00  0.00     0.162 HD
BRANCH  13  16
HETATM   16  C   UNL     1     -45.520 -54.942  14.070  1.00  0.00     0.107 C 
BRANCH  16  17
HETATM   17  C   UNL     1     -46.199 -53.625  13.709  1.00  0.00    -0.006 C 
HETATM   18  C   UNL     1     -45.301 -52.722  12.849  1.00  0.00     0.005 C 
HETATM   19  C   UNL     1     -45.602 -51.283  13.271  1.00  0.00     0.000 C 
HETATM   20  C   UNL     1     -46.702 -51.370  14.319  1.00  0.00     0.000 C 
HETATM   21  C   UNL     1     -46.531 -52.754  14.922  1.00  0.00     0.005 C 
ENDBRANCH  16  17
ENDBRANCH  13  16
ENDBRANCH   1  12
TORSDOF 6
ENDMDL
MODEL 9
REMARK VINA RESULT:      -5.3      3.892      6.852
REMARK  6 active torsions:
REMARK  status: ('A' for Active; 'I' for Inactive)
REMARK    1  A    between atoms: C_2  and  C_4 
REMARK    2  A    between atoms: C_7  and  C_8 
REMARK    3  A    between atoms: C_8  and  C_9 
REMARK    4  A    between atoms: C_9  and  N_10 
REMARK       I    between atoms: N_10  and  C_11 
REMARK    5  A    between atoms: C_11  and  C_13 
REMARK    6  A    between atoms: C_13  and  C_14 
ROOT
HETATM    1  C   UNL     1     -40.779 -51.425  12.344  1.00  0.00     0.128 C 
ENDROOT
BRANCH   1   2
HETATM    2  C   UNL     1     -41.291 -52.862  12.236  1.00  0.00     0.077 C 
BRANCH   2   3
HETATM    3  C   UNL     1     -42.687 -53.018  12.753  1.00  0.00     0.018 A 
HETATM    4  N   UNL     1     -43.598 -51.995  12.536  1.00  0.00    -0.356 N 
HETATM    5  C   UNL     1     -44.765 -52.301  13.065  1.00  0.00     0.054 A 
ATOM      6  HN  UNL     1     -43.394 -51.130  12.037  1.00  0.00     0.166 HD
HETATM    7  S   UNL     1     -44.834 -53.833  13.844  1.00  0.00    -0.086 SA
HETATM    8  C   UNL     1     -43.191 -54.099  13.449  1.00  0.00     0.076 A 
BRANCH   5   9
HETATM    9  C   UNL     1     -45.976 -51.404  13.038  1.00  0.00     0.035 C 
HETATM   10  C   UNL     1     -46.907 -51.804  11.893  1.00  0.00     0.016 C 
HETATM   11  C   UNL     1     -46.715 -51.453  14.375  1.00  0.00     0.016 C 
ENDBRANCH   5   9
ENDBRANCH   2   3
ENDBRANCH   1   2
BRANCH   1  12
HETATM   12  N   UNL     1     -40.102 -51.152  13.603  1.00  0.00    -0.361 N 
HETATM   13  C   UNL     1     -38.748 -51.326  13.752  1.00  0.00     0.217 C 
HETATM   14  O   UNL     1     -38.019 -51.738  12.854  1.00  0.00    -0.274 OA
HETATM   15  H   UNL     1     -40.676 -50.934  14.408  1.00  0.00     0.162 HD
BRANCH  13  16
HETATM   16  C   UNL     1     -38.219 -50.995  15.132  1.00  0.00     0.107 C 
BRANCH  16  17
HETATM   17  C   UNL     1     -37.117 -49.941  15.086  1.00  0.00    -0.006 C 
HETATM   18  C   UNL     1     -36.073 -50.139  16.195  1.00  0.00     0.005 C 
HETATM   19  C   UNL     1     -35.625 -48.741  16.624  1.00  0.00     0.000 C 
HETATM   20  C   UNL     1     -36.368 -47.763  15.724  1.00  0.00     0.000 C 
HETATM   21  C   UNL     1     -37.623 -48.515  15.317  1.00  0.00     0.005 C 
ENDBRANCH  16  17
ENDBRANCH  13  16
ENDBRANCH   1  12
TORSDOF 6
ENDMDL
