MODEL 1
REMARK VINA RESULT:      -4.8      0.000      0.000
REMARK  1 active torsions:
REMARK  status: ('A' for Active; 'I' for Inactive)
REMARK    1  A    between atoms: N_6  and  C_8 
ROOT
HETATM    1  C   UNL     1     -46.350 -48.055   8.550  1.00  0.00     0.051 C 
HETATM    2  C   UNL     1     -44.975 -47.728   8.987  1.00  0.00    -0.028 A 
HETATM    3  C   UNL     1     -43.797 -47.730   8.208  1.00  0.00     0.115 A 
HETATM    4  N   UNL     1     -42.712 -47.424   8.918  1.00  0.00    -0.309 N 
ATOM      5  HN  UNL     1     -41.749 -47.345   8.591  1.00  0.00     0.186 HD
HETATM    6  N   UNL     1     -43.182 -47.243  10.174  1.00  0.00    -0.297 N 
HETATM    7  C   UNL     1     -44.541 -47.371  10.246  1.00  0.00     0.118 A 
ENDROOT
BRANCH   6   8
HETATM    8  C   UNL     1     -42.215 -47.094  11.257  1.00  0.00     0.135 C 
HETATM    9  C   UNL     1     -42.439 -45.778  12.017  1.00  0.00     0.031 C 
HETATM   10  C   UNL     1     -41.771 -44.598  11.314  1.00  0.00     0.032 C 
HETATM   11  C   UNL     1     -40.292 -44.879  11.066  1.00  0.00     0.270 C 
HETATM   12  N   UNL     1     -40.104 -46.079  10.251  1.00  0.00     0.085 N 
HETATM   13  C   UNL     1     -40.737 -47.265  10.851  1.00  0.00     0.296 C 
HETATM   14  H   UNL     1     -39.105 -46.255  10.138  1.00  0.00     0.315 HD
ENDBRANCH   6   8
TORSDOF 1
ENDMDL
MODEL 2
REMARK VINA RESULT:      -4.8      7.037      8.529
REMARK  1 active torsions:
REMARK  status: ('A' for Active; 'I' for Inactive)
REMARK    1  A    between atoms: N_6  and  C_8 
ROOT
HETATM    1  C   UNL     1     -40.556 -53.809  14.127  1.00  0.00     0.051 C 
HETATM    2  C   UNL     1     -41.885 -53.638  13.499  1.00  0.00    -0.028 A 
HETATM    3  C   UNL     1     -42.214 -52.857  12.370  1.00  0.00     0.115 A 
HETATM    4  N   UNL     1     -43.516 -52.890  12.085  1.00  0.00    -0.309 N 
ATOM      5  HN  UNL     1     -44.002 -52.427  11.318  1.00  0.00     0.186 HD
HETATM    6  N   UNL     1     -44.042 -53.680  13.049  1.00  0.00    -0.297 N 
HETATM    7  C   UNL     1     -43.089 -54.186  13.889  1.00  0.00     0.118 A 
ENDROOT
BRANCH   6   8
HETATM    8  C   UNL     1     -45.496 -53.763  13.154  1.00  0.00     0.135 C 
HETATM    9  C   UNL     1     -46.152 -52.421  12.801  1.00  0.00     0.031 C 
HETATM   10  C   UNL     1     -46.162 -51.465  13.992  1.00  0.00     0.032 C 
HETATM   11  C   UNL     1     -46.806 -52.121  15.209  1.00  0.00     0.270 C 
HETATM   12  N   UNL     1     -46.102 -53.344  15.594  1.00  0.00     0.085 N 
HETATM   13  C   UNL     1     -46.030 -54.317  14.492  1.00  0.00     0.296 C 
HETATM   14  H   UNL     1     -46.581 -53.773  16.387  1.00  0.00     0.315 HD
ENDBRANCH   6   8
TORSDOF 1
ENDMDL
MODEL 3
REMARK VINA RESULT:      -4.6      7.446      8.443
REMARK  1 active torsions:
REMARK  status: ('A' for Active; 'I' for Inactive)
REMARK    1  A    between atoms: N_6  and  C_8 
ROOT
HETATM    1  C   UNL     1     -47.718 -51.308  16.678  1.00  0.00     0.051 C 
HETATM    2  C   UNL     1     -46.902 -51.854  15.572  1.00  0.00    -0.028 A 
HETATM    3  C   UNL     1     -46.755 -51.334  14.268  1.00  0.00     0.115 A 
HETATM    4  N   UNL     1     -45.973 -52.091  13.499  1.00  0.00    -0.309 N 
ATOM      5  HN  UNL     1     -45.699 -51.928  12.530  1.00  0.00     0.186 HD
HETATM    6  N   UNL     1     -45.626 -53.124  14.300  1.00  0.00    -0.297 N 
HETATM    7  C   UNL     1     -46.125 -52.994  15.566  1.00  0.00     0.118 A 
ENDROOT
BRANCH   6   8
HETATM    8  C   UNL     1     -44.928 -54.257  13.701  1.00  0.00     0.135 C 
HETATM    9  C   UNL     1     -43.994 -54.929  14.717  1.00  0.00     0.031 C 
HETATM   10  C   UNL     1     -42.652 -54.208  14.815  1.00  0.00     0.032 C 
HETATM   11  C   UNL     1     -42.007 -54.071  13.439  1.00  0.00     0.270 C 
HETATM   12  N   UNL     1     -42.869 -53.336  12.514  1.00  0.00     0.085 N 
HETATM   13  C   UNL     1     -44.196 -53.957  12.376  1.00  0.00     0.296 C 
HETATM   14  H   UNL     1     -42.422 -53.296  11.597  1.00  0.00     0.315 HD
ENDBRANCH   6   8
TORSDOF 1
ENDMDL
MODEL 4
REMARK VINA RESULT:      -4.4      3.703      5.206
REMARK  1 active torsions:
REMARK  status: ('A' for Active; 'I' for Inactive)
REMARK    1  A    between atoms: N_6  and  C_8 
ROOT
HETATM    1  C   UNL     1     -39.870 -43.564  12.225  1.00  0.00     0.051 C 
HETATM    2  C   UNL     1     -39.935 -44.999  11.870  1.00  0.00    -0.028 A 
HETATM    3  C   UNL     1     -40.204 -45.565  10.605  1.00  0.00     0.115 A 
HETATM    4  N   UNL     1     -40.228 -46.897  10.633  1.00  0.00    -0.309 N 
ATOM      5  HN  UNL     1     -40.384 -47.539   9.856  1.00  0.00     0.186 HD
HETATM    6  N   UNL     1     -39.996 -47.202  11.930  1.00  0.00    -0.297 N 
HETATM    7  C   UNL     1     -39.769 -46.091  12.695  1.00  0.00     0.118 A 
ENDROOT
BRANCH   6   8
HETATM    8  C   UNL     1     -40.159 -48.589  12.353  1.00  0.00     0.135 C 
HETATM    9  C   UNL     1     -39.211 -48.927  13.513  1.00  0.00     0.031 C 
HETATM   10  C   UNL     1     -37.813 -49.286  13.015  1.00  0.00     0.032 C 
HETATM   11  C   UNL     1     -37.876 -50.401  11.976  1.00  0.00     0.270 C 
HETATM   12  N   UNL     1     -38.699 -50.020  10.829  1.00  0.00     0.085 N 
HETATM   13  C   UNL     1     -40.064 -49.638  11.225  1.00  0.00     0.296 C 
HETATM   14  H   UNL     1     -38.747 -50.802  10.175  1.00  0.00     0.315 HD
ENDBRANCH   6   8
TORSDOF 1
ENDMDL
MODEL 5
REMARK VINA RESULT:      -4.4      5.167      5.772
REMARK  1 active torsions:
REMARK  status: ('A' for Active; 'I' for Inactive)
REMARK    1  A    between atoms: N_6  and  C_8 
ROOT
HETATM    1  C   UNL     1     -46.782 -51.584  14.109  1.00  0.00     0.051 C 
HETATM    2  C   UNL     1     -45.445 -51.886  13.552  1.00  0.00    -0.028 A 
HETATM    3  C   UNL     1     -45.124 -52.783  12.511  1.00  0.00     0.115 A 
HETATM    4  N   UNL     1     -43.814 -52.850  12.277  1.00  0.00    -0.309 N 
ATOM      5  HN  UNL     1     -43.330 -53.408  11.573  1.00  0.00     0.186 HD
HETATM    6  N   UNL     1     -43.275 -52.007  13.186  1.00  0.00    -0.297 N 
HETATM    7  C   UNL     1     -44.224 -51.374  13.939  1.00  0.00     0.118 A 
ENDROOT
BRANCH   6   8
HETATM    8  C   UNL     1     -41.823 -51.997  13.342  1.00  0.00     0.135 C 
HETATM    9  C   UNL     1     -41.342 -50.662  13.928  1.00  0.00     0.031 C 
HETATM   10  C   UNL     1     -41.193 -49.591  12.850  1.00  0.00     0.032 C 
HETATM   11  C   UNL     1     -40.297 -50.082  11.717  1.00  0.00     0.270 C 
HETATM   12  N   UNL     1     -40.829 -51.297  11.101  1.00  0.00     0.085 N 
HETATM   13  C   UNL     1     -41.022 -52.379  12.080  1.00  0.00     0.296 C 
HETATM   14  H   UNL     1     -40.186 -51.614  10.374  1.00  0.00     0.315 HD
ENDBRANCH   6   8
TORSDOF 1
ENDMDL
MODEL 6
REMARK VINA RESULT:      -4.1      7.582      8.616
REMARK  1 active torsions:
REMARK  status: ('A' for Active; 'I' for Inactive)
REMARK    1  A    between atoms: N_6  and  C_8 
ROOT
HETATM    1  C   UNL     1     -47.687 -51.203  16.536  1.00  0.00     0.051 C 
HETATM    2  C   UNL     1     -46.797 -52.283  16.053  1.00  0.00    -0.028 A 
HETATM    3  C   UNL     1     -46.064 -53.209  16.826  1.00  0.00     0.115 A 
HETATM    4  N   UNL     1     -45.327 -54.031  16.079  1.00  0.00    -0.309 N 
ATOM      5  HN  UNL     1     -44.724 -54.791  16.392  1.00  0.00     0.186 HD
HETATM    6  N   UNL     1     -45.563 -53.622  14.812  1.00  0.00    -0.297 N 
HETATM    7  C   UNL     1     -46.476 -52.606  14.751  1.00  0.00     0.118 A 
ENDROOT
BRANCH   6   8
HETATM    8  C   UNL     1     -44.745 -54.185  13.742  1.00  0.00     0.135 C 
HETATM    9  C   UNL     1     -43.349 -54.564  14.258  1.00  0.00     0.031 C 
HETATM   10  C   UNL     1     -42.410 -53.361  14.287  1.00  0.00     0.032 C 
HETATM   11  C   UNL     1     -42.357 -52.680  12.923  1.00  0.00     0.270 C 
HETATM   12  N   UNL     1     -43.682 -52.231  12.496  1.00  0.00     0.085 N 
HETATM   13  C   UNL     1     -44.658 -53.332  12.459  1.00  0.00     0.296 C 
HETATM   14  H   UNL     1     -43.613 -51.814  11.567  1.00  0.00     0.315 HD
ENDBRANCH   6   8
TORSDOF 1
ENDMDL
MODEL 7
REMARK VINA RESULT:      -4.1      5.218      6.302
REMARK  1 active torsions:
REMARK  status: ('A' for Active; 'I' for Inactive)
REMARK    1  A    between atoms: N_6  and  C_8 
ROOT
HETATM    1  C   UNL     1     -41.812 -54.118  13.605  1.00  0.00     0.051 C 
HETATM    2  C   UNL     1     -41.153 -52.957  12.969  1.00  0.00    -0.028 A 
HETATM    3  C   UNL     1     -41.608 -52.201  11.867  1.00  0.00     0.115 A 
HETATM    4  N   UNL     1     -40.754 -51.240  11.517  1.00  0.00    -0.309 N 
ATOM      5  HN  UNL     1     -40.855 -50.553  10.769  1.00  0.00     0.186 HD
HETATM    6  N   UNL     1     -39.725 -51.384  12.382  1.00  0.00    -0.297 N 
HETATM    7  C   UNL     1     -39.947 -52.374  13.298  1.00  0.00     0.118 A 
ENDROOT
BRANCH   6   8
HETATM    8  C   UNL     1     -38.510 -50.610  12.144  1.00  0.00     0.135 C 
HETATM    9  C   UNL     1     -37.489 -50.828  13.269  1.00  0.00     0.031 C 
HETATM   10  C   UNL     1     -37.773 -49.934  14.473  1.00  0.00     0.032 C 
HETATM   11  C   UNL     1     -37.867 -48.470  14.053  1.00  0.00     0.270 C 
HETATM   12  N   UNL     1     -38.918 -48.265  13.056  1.00  0.00     0.085 N 
HETATM   13  C   UNL     1     -38.729 -49.109  11.865  1.00  0.00     0.296 C 
HETATM   14  H   UNL     1     -38.926 -47.284  12.774  1.00  0.00     0.315 HD
ENDBRANCH   6   8
TORSDOF 1
ENDMDL
MODEL 8
REMARK VINA RESULT:      -4.1      4.455      5.265
REMARK  1 active torsions:
REMARK  status: ('A' for Active; 'I' for Inactive)
REMARK    1  A    between atoms: N_6  and  C_8 
ROOT
HETATM    1  C   UNL     1     -42.907 -54.161  13.722  1.00  0.00     0.051 C 
HETATM    2  C   UNL     1     -42.172 -53.032  13.110  1.00  0.00    -0.028 A 
HETATM    3  C   UNL     1     -41.060 -53.094  12.243  1.00  0.00     0.115 A 
HETATM    4  N   UNL     1     -40.609 -51.888  11.899  1.00  0.00    -0.309 N 
ATOM      5  HN  UNL     1     -39.833 -51.661  11.278  1.00  0.00     0.186 HD
HETATM    6  N   UNL     1     -41.420 -51.034  12.565  1.00  0.00    -0.297 N 
HETATM    7  C   UNL     1     -42.399 -51.681  13.265  1.00  0.00     0.118 A 
ENDROOT
BRANCH   6   8
HETATM    8  C   UNL     1     -41.071 -49.616  12.572  1.00  0.00     0.135 C 
HETATM    9  C   UNL     1     -42.277 -48.754  12.973  1.00  0.00     0.031 C 
HETATM   10  C   UNL     1     -43.196 -48.479  11.786  1.00  0.00     0.032 C 
HETATM   11  C   UNL     1     -42.415 -47.876  10.622  1.00  0.00     0.270 C 
HETATM   12  N   UNL     1     -41.335 -48.761  10.186  1.00  0.00     0.085 N 
HETATM   13  C   UNL     1     -40.409 -49.093  11.280  1.00  0.00     0.296 C 
HETATM   14  H   UNL     1     -40.815 -48.309   9.433  1.00  0.00     0.315 HD
ENDBRANCH   6   8
TORSDOF 1
ENDMDL
MODEL 9
REMARK VINA RESULT:      -4.1      7.660      9.174
REMARK  1 active torsions:
REMARK  status: ('A' for Active; 'I' for Inactive)
REMARK    1  A    between atoms: N_6  and  C_8 
ROOT
HETATM    1  C   UNL     1     -38.734 -55.728  16.238  1.00  0.00     0.051 C 
HETATM    2  C   UNL     1     -39.556 -54.905  15.324  1.00  0.00    -0.028 A 
HETATM    3  C   UNL     1     -39.232 -54.481  14.017  1.00  0.00     0.115 A 
HETATM    4  N   UNL     1     -40.180 -53.715  13.477  1.00  0.00    -0.309 N 
ATOM      5  HN  UNL     1     -40.195 -53.297  12.547  1.00  0.00     0.186 HD
HETATM    6  N   UNL     1     -41.118 -53.622  14.447  1.00  0.00    -0.297 N 
HETATM    7  C   UNL     1     -40.802 -54.360  15.553  1.00  0.00     0.118 A 
ENDROOT
BRANCH   6   8
HETATM    8  C   UNL     1     -42.214 -52.676  14.258  1.00  0.00     0.135 C 
HETATM    9  C   UNL     1     -43.531 -53.241  14.809  1.00  0.00     0.031 C 
HETATM   10  C   UNL     1     -44.213 -54.167  13.805  1.00  0.00     0.032 C 
HETATM   11  C   UNL     1     -44.400 -53.469  12.461  1.00  0.00     0.270 C 
HETATM   12  N   UNL     1     -43.121 -53.030  11.903  1.00  0.00     0.085 N 
HETATM   13  C   UNL     1     -42.387 -52.145  12.820  1.00  0.00     0.296 C 
HETATM   14  H   UNL     1     -43.290 -52.538  11.025  1.00  0.00     0.315 HD
ENDBRANCH   6   8
TORSDOF 1
ENDMDL
