MODEL 1
REMARK VINA RESULT:      -6.6      0.000      0.000
REMARK  5 active torsions:
REMARK  status: ('A' for Active; 'I' for Inactive)
REMARK    1  A    between atoms: O_2  and  C_3 
REMARK    2  A    between atoms: C_9  and  N_10 
REMARK       I    between atoms: N_10  and  C_11 
REMARK       I    between atoms: C_11  and  N_13 
REMARK    3  A    between atoms: N_13  and  C_14 
REMARK    4  A    between atoms: C_14  and  C_15 
REMARK    5  A    between atoms: C_15  and  N_16 
ROOT
HETATM    1  N   UNL     1     -41.841 -48.986  10.821  1.00  0.00    -0.305 N 
HETATM    2  C   UNL     1     -42.021 -49.793  11.921  1.00  0.00     0.320 C 
HETATM    3  O   UNL     1     -42.326 -49.393  13.043  1.00  0.00    -0.247 OA
HETATM    4  N   UNL     1     -41.779 -51.140  11.707  1.00  0.00    -0.341 N 
HETATM    5  H   UNL     1     -41.802 -49.402   9.900  1.00  0.00     0.171 HD
HETATM    6  H   UNL     1     -42.025 -51.500  10.795  1.00  0.00     0.164 HD
ENDROOT
BRANCH   1   7
HETATM    7  C   UNL     1     -41.843 -47.558  10.864  1.00  0.00     0.087 A 
HETATM    8  C   UNL     1     -43.011 -46.817  10.647  1.00  0.00     0.169 A 
HETATM    9  N   UNL     1     -43.060 -45.459  10.618  1.00  0.00    -0.345 N 
HETATM   10  C   UNL     1     -41.916 -44.794  10.867  1.00  0.00     0.090 A 
ATOM     11  HN  UNL     1     -43.929 -44.963  10.417  1.00  0.00     0.167 HD
HETATM   12  C   UNL     1     -40.720 -45.422  11.137  1.00  0.00     0.019 A 
HETATM   13  C   UNL     1     -40.686 -46.814  11.115  1.00  0.00     0.035 A 
BRANCH   8  14
HETATM   14  O   UNL     1     -44.208 -47.501  10.503  1.00  0.00    -0.339 OA
HETATM   15  C   UNL     1     -44.707 -47.366   9.167  1.00  0.00     0.211 C 
ENDBRANCH   8  14
ENDBRANCH   1   7
BRANCH   4  16
HETATM   16  C   UNL     1     -41.998 -51.989  12.867  1.00  0.00     0.144 C 
BRANCH  16  17
HETATM   17  C   UNL     1     -43.096 -53.062  12.791  1.00  0.00     0.145 C 
BRANCH  17  18
HETATM   18  N   UNL     1     -44.258 -52.665  13.615  1.00  0.00    -0.351 N 
HETATM   19  C   UNL     1     -44.108 -52.656  15.071  1.00  0.00     0.126 C 
HETATM   20  C   UNL     1     -44.303 -51.271  15.673  1.00  0.00     0.020 C 
HETATM   21  C   UNL     1     -45.762 -50.932  15.971  1.00  0.00     0.002 C 
HETATM   22  C   UNL     1     -46.797 -51.518  15.011  1.00  0.00     0.009 C 
HETATM   23  C   UNL     1     -46.407 -51.433  13.547  1.00  0.00     0.103 C 
HETATM   24  C   UNL     1     -45.496 -52.529  13.008  1.00  0.00     0.219 C 
HETATM   25  O   UNL     1     -45.787 -53.125  11.972  1.00  0.00    -0.273 OA
ENDBRANCH  17  18
ENDBRANCH  16  17
ENDBRANCH   4  16
TORSDOF 5
ENDMDL
MODEL 2
REMARK VINA RESULT:      -6.6      2.495      3.537
REMARK  5 active torsions:
REMARK  status: ('A' for Active; 'I' for Inactive)
REMARK    1  A    between atoms: O_2  and  C_3 
REMARK    2  A    between atoms: C_9  and  N_10 
REMARK       I    between atoms: N_10  and  C_11 
REMARK       I    between atoms: C_11  and  N_13 
REMARK    3  A    between atoms: N_13  and  C_14 
REMARK    4  A    between atoms: C_14  and  C_15 
REMARK    5  A    between atoms: C_15  and  N_16 
ROOT
HETATM    1  N   UNL     1     -41.224 -51.626  11.505  1.00  0.00    -0.305 N 
HETATM    2  C   UNL     1     -41.924 -52.212  12.535  1.00  0.00     0.320 C 
HETATM    3  O   UNL     1     -42.251 -51.643  13.575  1.00  0.00    -0.247 OA
HETATM    4  N   UNL     1     -42.213 -53.555  12.359  1.00  0.00    -0.341 N 
HETATM    5  H   UNL     1     -41.181 -52.089  10.607  1.00  0.00     0.171 HD
HETATM    6  H   UNL     1     -42.403 -53.852  11.412  1.00  0.00     0.164 HD
ENDROOT
BRANCH   1   7
HETATM    7  C   UNL     1     -40.655 -50.317  11.563  1.00  0.00     0.087 A 
HETATM    8  C   UNL     1     -39.331 -50.108  11.972  1.00  0.00     0.169 A 
HETATM    9  N   UNL     1     -38.756 -48.883  12.100  1.00  0.00    -0.345 N 
HETATM   10  C   UNL     1     -39.500 -47.813  11.761  1.00  0.00     0.090 A 
ATOM     11  HN  UNL     1     -37.800 -48.779  12.441  1.00  0.00     0.167 HD
HETATM   12  C   UNL     1     -40.796 -47.907  11.305  1.00  0.00     0.019 A 
HETATM   13  C   UNL     1     -41.377 -49.170  11.225  1.00  0.00     0.035 A 
BRANCH   8  14
HETATM   14  O   UNL     1     -38.533 -51.216  12.212  1.00  0.00    -0.339 OA
HETATM   15  C   UNL     1     -37.494 -50.894  13.144  1.00  0.00     0.211 C 
ENDBRANCH   8  14
ENDBRANCH   1   7
BRANCH   4  16
HETATM   16  C   UNL     1     -42.977 -54.159  13.439  1.00  0.00     0.144 C 
BRANCH  16  17
HETATM   17  C   UNL     1     -44.428 -54.583  13.161  1.00  0.00     0.145 C 
BRANCH  17  18
HETATM   18  N   UNL     1     -45.368 -53.682  13.862  1.00  0.00    -0.351 N 
HETATM   19  C   UNL     1     -45.792 -54.036  15.217  1.00  0.00     0.126 C 
HETATM   20  C   UNL     1     -45.380 -52.998  16.252  1.00  0.00     0.020 C 
HETATM   21  C   UNL     1     -46.377 -51.850  16.400  1.00  0.00     0.002 C 
HETATM   22  C   UNL     1     -47.115 -51.434  15.129  1.00  0.00     0.009 C 
HETATM   23  C   UNL     1     -46.237 -51.361  13.893  1.00  0.00     0.103 C 
HETATM   24  C   UNL     1     -45.981 -52.665  13.148  1.00  0.00     0.219 C 
HETATM   25  O   UNL     1     -46.147 -52.727  11.930  1.00  0.00    -0.273 OA
ENDBRANCH  17  18
ENDBRANCH  16  17
ENDBRANCH   4  16
TORSDOF 5
ENDMDL
MODEL 3
REMARK VINA RESULT:      -6.5      2.105      2.580
REMARK  5 active torsions:
REMARK  status: ('A' for Active; 'I' for Inactive)
REMARK    1  A    between atoms: O_2  and  C_3 
REMARK    2  A    between atoms: C_9  and  N_10 
REMARK       I    between atoms: N_10  and  C_11 
REMARK       I    between atoms: C_11  and  N_13 
REMARK    3  A    between atoms: N_13  and  C_14 
REMARK    4  A    between atoms: C_14  and  C_15 
REMARK    5  A    between atoms: C_15  and  N_16 
ROOT
HETATM    1  N   UNL     1     -41.291 -48.861  10.554  1.00  0.00    -0.305 N 
HETATM    2  C   UNL     1     -41.053 -49.696  11.622  1.00  0.00     0.320 C 
HETATM    3  O   UNL     1     -41.141 -49.367  12.804  1.00  0.00    -0.247 OA
HETATM    4  N   UNL     1     -40.640 -50.974  11.287  1.00  0.00    -0.341 N 
HETATM    5  H   UNL     1     -41.406 -49.256   9.630  1.00  0.00     0.171 HD
HETATM    6  H   UNL     1     -41.034 -51.366  10.442  1.00  0.00     0.164 HD
ENDROOT
BRANCH   1   7
HETATM    7  C   UNL     1     -41.532 -47.457  10.670  1.00  0.00     0.087 A 
HETATM    8  C   UNL     1     -42.827 -46.926  10.618  1.00  0.00     0.169 A 
HETATM    9  N   UNL     1     -43.109 -45.597  10.664  1.00  0.00    -0.345 N 
HETATM   10  C   UNL     1     -42.075 -44.751  10.823  1.00  0.00     0.090 A 
ATOM     11  HN  UNL     1     -44.067 -45.255  10.582  1.00  0.00     0.167 HD
HETATM   12  C   UNL     1     -40.766 -45.167  10.931  1.00  0.00     0.019 A 
HETATM   13  C   UNL     1     -40.498 -46.530  10.834  1.00  0.00     0.035 A 
BRANCH   8  14
HETATM   14  O   UNL     1     -43.898 -47.804  10.567  1.00  0.00    -0.339 OA
HETATM   15  C   UNL     1     -44.814 -47.422   9.535  1.00  0.00     0.211 C 
ENDBRANCH   8  14
ENDBRANCH   1   7
BRANCH   4  16
HETATM   16  C   UNL     1     -40.418 -51.858  12.420  1.00  0.00     0.144 C 
BRANCH  16  17
HETATM   17  C   UNL     1     -40.904 -53.313  12.320  1.00  0.00     0.145 C 
BRANCH  17  18
HETATM   18  N   UNL     1     -42.099 -53.513  13.167  1.00  0.00    -0.351 N 
HETATM   19  C   UNL     1     -43.317 -52.771  12.838  1.00  0.00     0.126 C 
HETATM   20  C   UNL     1     -44.482 -53.683  12.480  1.00  0.00     0.020 C 
HETATM   21  C   UNL     1     -45.281 -54.163  13.691  1.00  0.00     0.002 C 
HETATM   22  C   UNL     1     -44.483 -54.384  14.975  1.00  0.00     0.009 C 
HETATM   23  C   UNL     1     -43.151 -55.083  14.770  1.00  0.00     0.103 C 
HETATM   24  C   UNL     1     -41.970 -54.214  14.354  1.00  0.00     0.219 C 
HETATM   25  O   UNL     1     -40.901 -54.291  14.958  1.00  0.00    -0.273 OA
ENDBRANCH  17  18
ENDBRANCH  16  17
ENDBRANCH   4  16
TORSDOF 5
ENDMDL
MODEL 4
REMARK VINA RESULT:      -6.5      2.563      3.801
REMARK  5 active torsions:
REMARK  status: ('A' for Active; 'I' for Inactive)
REMARK    1  A    between atoms: O_2  and  C_3 
REMARK    2  A    between atoms: C_9  and  N_10 
REMARK       I    between atoms: N_10  and  C_11 
REMARK       I    between atoms: C_11  and  N_13 
REMARK    3  A    between atoms: N_13  and  C_14 
REMARK    4  A    between atoms: C_14  and  C_15 
REMARK    5  A    between atoms: C_15  and  N_16 
ROOT
HETATM    1  N   UNL     1     -40.864 -51.535  13.604  1.00  0.00    -0.305 N 
HETATM    2  C   UNL     1     -41.351 -52.816  13.488  1.00  0.00     0.320 C 
HETATM    3  O   UNL     1     -40.812 -53.717  12.847  1.00  0.00    -0.247 OA
HETATM    4  N   UNL     1     -42.565 -53.042  14.115  1.00  0.00    -0.341 N 
HETATM    5  H   UNL     1     -41.244 -50.920  14.311  1.00  0.00     0.171 HD
HETATM    6  H   UNL     1     -42.725 -52.537  14.976  1.00  0.00     0.164 HD
ENDROOT
BRANCH   1   7
HETATM    7  C   UNL     1     -39.740 -51.033  12.878  1.00  0.00     0.087 A 
HETATM    8  C   UNL     1     -39.897 -50.263  11.719  1.00  0.00     0.169 A 
HETATM    9  N   UNL     1     -38.865 -49.809  10.958  1.00  0.00    -0.345 N 
HETATM   10  C   UNL     1     -37.617 -50.080  11.384  1.00  0.00     0.090 A 
ATOM     11  HN  UNL     1     -39.031 -49.285  10.099  1.00  0.00     0.167 HD
HETATM   12  C   UNL     1     -37.348 -50.791  12.533  1.00  0.00     0.019 A 
HETATM   13  C   UNL     1     -38.422 -51.283  13.271  1.00  0.00     0.035 A 
BRANCH   8  14
HETATM   14  O   UNL     1     -41.178 -49.889  11.344  1.00  0.00    -0.339 OA
HETATM   15  C   UNL     1     -41.218 -48.498  11.009  1.00  0.00     0.211 C 
ENDBRANCH   8  14
ENDBRANCH   1   7
BRANCH   4  16
HETATM   16  C   UNL     1     -43.059 -54.406  14.011  1.00  0.00     0.144 C 
BRANCH  16  17
HETATM   17  C   UNL     1     -44.468 -54.632  13.441  1.00  0.00     0.145 C 
BRANCH  17  18
HETATM   18  N   UNL     1     -45.431 -53.704  14.073  1.00  0.00    -0.351 N 
HETATM   19  C   UNL     1     -45.921 -54.017  15.416  1.00  0.00     0.126 C 
HETATM   20  C   UNL     1     -45.547 -52.956  16.441  1.00  0.00     0.020 C 
HETATM   21  C   UNL     1     -46.538 -51.796  16.512  1.00  0.00     0.002 C 
HETATM   22  C   UNL     1     -47.211 -51.407  15.197  1.00  0.00     0.009 C 
HETATM   23  C   UNL     1     -46.276 -51.375  14.002  1.00  0.00     0.103 C 
HETATM   24  C   UNL     1     -45.999 -52.701  13.305  1.00  0.00     0.219 C 
HETATM   25  O   UNL     1     -46.109 -52.794  12.082  1.00  0.00    -0.273 OA
ENDBRANCH  17  18
ENDBRANCH  16  17
ENDBRANCH   4  16
TORSDOF 5
ENDMDL
MODEL 5
REMARK VINA RESULT:      -6.3      1.354      1.578
REMARK  5 active torsions:
REMARK  status: ('A' for Active; 'I' for Inactive)
REMARK    1  A    between atoms: O_2  and  C_3 
REMARK    2  A    between atoms: C_9  and  N_10 
REMARK       I    between atoms: N_10  and  C_11 
REMARK       I    between atoms: C_11  and  N_13 
REMARK    3  A    between atoms: N_13  and  C_14 
REMARK    4  A    between atoms: C_14  and  C_15 
REMARK    5  A    between atoms: C_15  and  N_16 
ROOT
HETATM    1  N   UNL     1     -41.290 -49.548  10.842  1.00  0.00    -0.305 N 
HETATM    2  C   UNL     1     -41.762 -50.254  11.925  1.00  0.00     0.320 C 
HETATM    3  O   UNL     1     -42.200 -49.747  12.957  1.00  0.00    -0.247 OA
HETATM    4  N   UNL     1     -41.669 -51.631  11.815  1.00  0.00    -0.341 N 
HETATM    5  H   UNL     1     -41.149 -50.024   9.962  1.00  0.00     0.171 HD
HETATM    6  H   UNL     1     -41.800 -52.016  10.889  1.00  0.00     0.164 HD
ENDROOT
BRANCH   1   7
HETATM    7  C   UNL     1     -41.109 -48.131  10.824  1.00  0.00     0.087 A 
HETATM    8  C   UNL     1     -41.952 -47.291  10.085  1.00  0.00     0.169 A 
HETATM    9  N   UNL     1     -41.792 -45.945   9.985  1.00  0.00    -0.345 N 
HETATM   10  C   UNL     1     -40.787 -45.388  10.687  1.00  0.00     0.090 A 
ATOM     11  HN  UNL     1     -42.409 -45.379   9.401  1.00  0.00     0.167 HD
HETATM   12  C   UNL     1     -39.927 -46.114  11.481  1.00  0.00     0.019 A 
HETATM   13  C   UNL     1     -40.083 -47.497  11.531  1.00  0.00     0.035 A 
BRANCH   8  14
HETATM   14  O   UNL     1     -43.053 -47.851   9.454  1.00  0.00    -0.339 OA
HETATM   15  C   UNL     1     -44.262 -47.472  10.123  1.00  0.00     0.211 C 
ENDBRANCH   8  14
ENDBRANCH   1   7
BRANCH   4  16
HETATM   16  C   UNL     1     -42.195 -52.370  12.952  1.00  0.00     0.144 C 
BRANCH  16  17
HETATM   17  C   UNL     1     -43.392 -53.307  12.724  1.00  0.00     0.145 C 
BRANCH  17  18
HETATM   18  N   UNL     1     -44.404 -53.112  13.785  1.00  0.00    -0.351 N 
HETATM   19  C   UNL     1     -44.634 -51.756  14.286  1.00  0.00     0.126 C 
HETATM   20  C   UNL     1     -46.056 -51.272  14.040  1.00  0.00     0.020 C 
HETATM   21  C   UNL     1     -47.042 -51.683  15.132  1.00  0.00     0.002 C 
HETATM   22  C   UNL     1     -46.783 -53.034  15.796  1.00  0.00     0.009 C 
HETATM   23  C   UNL     1     -46.401 -54.141  14.831  1.00  0.00     0.103 C 
HETATM   24  C   UNL     1     -44.937 -54.224  14.416  1.00  0.00     0.219 C 
HETATM   25  O   UNL     1     -44.334 -55.295  14.479  1.00  0.00    -0.273 OA
ENDBRANCH  17  18
ENDBRANCH  16  17
ENDBRANCH   4  16
TORSDOF 5
ENDMDL
MODEL 6
REMARK VINA RESULT:      -6.2      1.740      2.317
REMARK  5 active torsions:
REMARK  status: ('A' for Active; 'I' for Inactive)
REMARK    1  A    between atoms: O_2  and  C_3 
REMARK    2  A    between atoms: C_9  and  N_10 
REMARK       I    between atoms: N_10  and  C_11 
REMARK       I    between atoms: C_11  and  N_13 
REMARK    3  A    between atoms: N_13  and  C_14 
REMARK    4  A    between atoms: C_14  and  C_15 
REMARK    5  A    between atoms: C_15  and  N_16 
ROOT
HETATM    1  N   UNL     1     -42.059 -50.931  11.574  1.00  0.00    -0.305 N 
HETATM    2  C   UNL     1     -42.408 -51.827  12.558  1.00  0.00     0.320 C 
HETATM    3  O   UNL     1     -42.209 -51.661  13.761  1.00  0.00    -0.247 OA
HETATM    4  N   UNL     1     -42.974 -53.007  12.106  1.00  0.00    -0.341 N 
HETATM    5  H   UNL     1     -42.442 -51.040  10.644  1.00  0.00     0.171 HD
HETATM    6  H   UNL     1     -43.559 -52.936  11.284  1.00  0.00     0.164 HD
ENDROOT
BRANCH   1   7
HETATM    7  C   UNL     1     -41.289 -49.750  11.799  1.00  0.00     0.087 A 
HETATM    8  C   UNL     1     -41.882 -48.481  11.842  1.00  0.00     0.169 A 
HETATM    9  N   UNL     1     -41.191 -47.320  11.995  1.00  0.00    -0.345 N 
HETATM   10  C   UNL     1     -39.859 -47.412  12.166  1.00  0.00     0.090 A 
ATOM     11  HN  UNL     1     -41.664 -46.416  11.981  1.00  0.00     0.167 HD
HETATM   12  C   UNL     1     -39.179 -48.609  12.186  1.00  0.00     0.019 A 
HETATM   13  C   UNL     1     -39.903 -49.782  11.981  1.00  0.00     0.035 A 
BRANCH   8  14
HETATM   14  O   UNL     1     -43.264 -48.398  11.779  1.00  0.00    -0.339 OA
HETATM   15  C   UNL     1     -43.667 -47.526  10.716  1.00  0.00     0.211 C 
ENDBRANCH   8  14
ENDBRANCH   1   7
BRANCH   4  16
HETATM   16  C   UNL     1     -43.365 -53.936  13.155  1.00  0.00     0.144 C 
BRANCH  16  17
HETATM   17  C   UNL     1     -44.795 -54.497  13.139  1.00  0.00     0.145 C 
BRANCH  17  18
HETATM   18  N   UNL     1     -45.686 -53.652  13.962  1.00  0.00    -0.351 N 
HETATM   19  C   UNL     1     -46.230 -54.213  15.199  1.00  0.00     0.126 C 
HETATM   20  C   UNL     1     -45.787 -53.446  16.437  1.00  0.00     0.020 C 
HETATM   21  C   UNL     1     -46.674 -52.247  16.767  1.00  0.00     0.002 C 
HETATM   22  C   UNL     1     -47.283 -51.515  15.572  1.00  0.00     0.009 C 
HETATM   23  C   UNL     1     -46.323 -51.300  14.416  1.00  0.00     0.103 C 
HETATM   24  C   UNL     1     -46.148 -52.455  13.438  1.00  0.00     0.219 C 
HETATM   25  O   UNL     1     -46.241 -52.262  12.226  1.00  0.00    -0.273 OA
ENDBRANCH  17  18
ENDBRANCH  16  17
ENDBRANCH   4  16
TORSDOF 5
ENDMDL
MODEL 7
REMARK VINA RESULT:      -6.2      1.269      2.140
REMARK  5 active torsions:
REMARK  status: ('A' for Active; 'I' for Inactive)
REMARK    1  A    between atoms: O_2  and  C_3 
REMARK    2  A    between atoms: C_9  and  N_10 
REMARK       I    between atoms: N_10  and  C_11 
REMARK       I    between atoms: C_11  and  N_13 
REMARK    3  A    between atoms: N_13  and  C_14 
REMARK    4  A    between atoms: C_14  and  C_15 
REMARK    5  A    between atoms: C_15  and  N_16 
ROOT
HETATM    1  N   UNL     1     -41.490 -49.775  10.978  1.00  0.00    -0.305 N 
HETATM    2  C   UNL     1     -41.858 -50.423  12.134  1.00  0.00     0.320 C 
HETATM    3  O   UNL     1     -42.425 -49.891  13.087  1.00  0.00    -0.247 OA
HETATM    4  N   UNL     1     -41.495 -51.758  12.201  1.00  0.00    -0.341 N 
HETATM    5  H   UNL     1     -41.226 -50.317  10.166  1.00  0.00     0.171 HD
HETATM    6  H   UNL     1     -41.513 -52.270  11.329  1.00  0.00     0.164 HD
ENDROOT
BRANCH   1   7
HETATM    7  C   UNL     1     -41.587 -48.363  10.783  1.00  0.00     0.087 A 
HETATM    8  C   UNL     1     -40.611 -47.484  11.271  1.00  0.00     0.169 A 
HETATM    9  N   UNL     1     -40.680 -46.131  11.165  1.00  0.00    -0.345 N 
HETATM   10  C   UNL     1     -41.732 -45.616  10.501  1.00  0.00     0.090 A 
ATOM     11  HN  UNL     1     -39.964 -45.529  11.572  1.00  0.00     0.167 HD
HETATM   12  C   UNL     1     -42.726 -46.389   9.942  1.00  0.00     0.019 A 
HETATM   13  C   UNL     1     -42.656 -47.771  10.104  1.00  0.00     0.035 A 
BRANCH   8  14
HETATM   14  O   UNL     1     -39.474 -48.020  11.854  1.00  0.00    -0.339 OA
HETATM   15  C   UNL     1     -39.266 -47.463  13.157  1.00  0.00     0.211 C 
ENDBRANCH   8  14
ENDBRANCH   1   7
BRANCH   4  16
HETATM   16  C   UNL     1     -41.912 -52.443  13.414  1.00  0.00     0.144 C 
BRANCH  16  17
HETATM   17  C   UNL     1     -43.055 -53.465  13.321  1.00  0.00     0.145 C 
BRANCH  17  18
HETATM   18  N   UNL     1     -44.284 -52.917  13.937  1.00  0.00    -0.351 N 
HETATM   19  C   UNL     1     -44.380 -52.895  15.397  1.00  0.00     0.126 C 
HETATM   20  C   UNL     1     -44.506 -51.485  15.957  1.00  0.00     0.020 C 
HETATM   21  C   UNL     1     -45.944 -50.970  16.004  1.00  0.00     0.002 C 
HETATM   22  C   UNL     1     -46.865 -51.450  14.883  1.00  0.00     0.009 C 
HETATM   23  C   UNL     1     -46.228 -51.443  13.505  1.00  0.00     0.103 C 
HETATM   24  C   UNL     1     -45.377 -52.649  13.129  1.00  0.00     0.219 C 
HETATM   25  O   UNL     1     -45.560 -53.228  12.059  1.00  0.00    -0.273 OA
ENDBRANCH  17  18
ENDBRANCH  16  17
ENDBRANCH   4  16
TORSDOF 5
ENDMDL
MODEL 8
REMARK VINA RESULT:      -6.1      2.558      7.658
REMARK  5 active torsions:
REMARK  status: ('A' for Active; 'I' for Inactive)
REMARK    1  A    between atoms: O_2  and  C_3 
REMARK    2  A    between atoms: C_9  and  N_10 
REMARK       I    between atoms: N_10  and  C_11 
REMARK       I    between atoms: C_11  and  N_13 
REMARK    3  A    between atoms: N_13  and  C_14 
REMARK    4  A    between atoms: C_14  and  C_15 
REMARK    5  A    between atoms: C_15  and  N_16 
ROOT
HETATM    1  N   UNL     1     -41.975 -52.564  11.806  1.00  0.00    -0.305 N 
HETATM    2  C   UNL     1     -41.568 -51.275  12.066  1.00  0.00     0.320 C 
HETATM    3  O   UNL     1     -41.822 -50.654  13.096  1.00  0.00    -0.247 OA
HETATM    4  N   UNL     1     -40.867 -50.661  11.041  1.00  0.00    -0.341 N 
HETATM    5  H   UNL     1     -41.552 -53.074  11.041  1.00  0.00     0.171 HD
HETATM    6  H   UNL     1     -40.267 -51.259  10.489  1.00  0.00     0.164 HD
ENDROOT
BRANCH   1   7
HETATM    7  C   UNL     1     -42.871 -53.306  12.634  1.00  0.00     0.087 A 
HETATM    8  C   UNL     1     -42.407 -54.110  13.684  1.00  0.00     0.169 A 
HETATM    9  N   UNL     1     -43.208 -54.882  14.466  1.00  0.00    -0.345 N 
HETATM   10  C   UNL     1     -44.534 -54.821  14.241  1.00  0.00     0.090 A 
ATOM     11  HN  UNL     1     -42.820 -55.482  15.193  1.00  0.00     0.167 HD
HETATM   12  C   UNL     1     -45.101 -54.031  13.266  1.00  0.00     0.019 A 
HETATM   13  C   UNL     1     -44.256 -53.285  12.448  1.00  0.00     0.035 A 
BRANCH   8  14
HETATM   14  O   UNL     1     -41.055 -54.084  13.986  1.00  0.00    -0.339 OA
HETATM   15  C   UNL     1     -40.824 -53.355  15.197  1.00  0.00     0.211 C 
ENDBRANCH   8  14
ENDBRANCH   1   7
BRANCH   4  16
HETATM   16  C   UNL     1     -40.417 -49.310  11.335  1.00  0.00     0.144 C 
BRANCH  16  17
HETATM   17  C   UNL     1     -41.264 -48.131  10.833  1.00  0.00     0.145 C 
BRANCH  17  18
HETATM   18  N   UNL     1     -40.850 -46.880  11.503  1.00  0.00    -0.351 N 
HETATM   19  C   UNL     1     -40.649 -46.901  12.953  1.00  0.00     0.126 C 
HETATM   20  C   UNL     1     -39.217 -46.573  13.352  1.00  0.00     0.020 C 
HETATM   21  C   UNL     1     -38.946 -45.075  13.487  1.00  0.00     0.002 C 
HETATM   22  C   UNL     1     -39.718 -44.166  12.532  1.00  0.00     0.009 C 
HETATM   23  C   UNL     1     -39.790 -44.676  11.105  1.00  0.00     0.103 C 
HETATM   24  C   UNL     1     -40.878 -45.694  10.788  1.00  0.00     0.219 C 
HETATM   25  O   UNL     1     -41.618 -45.530   9.818  1.00  0.00    -0.273 OA
ENDBRANCH  17  18
ENDBRANCH  16  17
ENDBRANCH   4  16
TORSDOF 5
ENDMDL
MODEL 9
REMARK VINA RESULT:      -6.1      3.251      4.469
REMARK  5 active torsions:
REMARK  status: ('A' for Active; 'I' for Inactive)
REMARK    1  A    between atoms: O_2  and  C_3 
REMARK    2  A    between atoms: C_9  and  N_10 
REMARK       I    between atoms: N_10  and  C_11 
REMARK       I    between atoms: C_11  and  N_13 
REMARK    3  A    between atoms: N_13  and  C_14 
REMARK    4  A    between atoms: C_14  and  C_15 
REMARK    5  A    between atoms: C_15  and  N_16 
ROOT
HETATM    1  N   UNL     1     -40.956 -51.876  11.626  1.00  0.00    -0.305 N 
HETATM    2  C   UNL     1     -42.196 -51.947  12.217  1.00  0.00     0.320 C 
HETATM    3  O   UNL     1     -42.615 -51.162  13.066  1.00  0.00    -0.247 OA
HETATM    4  N   UNL     1     -42.969 -53.029  11.832  1.00  0.00    -0.341 N 
HETATM    5  H   UNL     1     -40.769 -52.422  10.795  1.00  0.00     0.171 HD
HETATM    6  H   UNL     1     -42.871 -53.330  10.872  1.00  0.00     0.164 HD
ENDROOT
BRANCH   1   7
HETATM    7  C   UNL     1     -39.928 -50.964  12.020  1.00  0.00     0.087 A 
HETATM    8  C   UNL     1     -38.961 -51.313  12.971  1.00  0.00     0.169 A 
HETATM    9  N   UNL     1     -37.997 -50.468  13.425  1.00  0.00    -0.345 N 
HETATM   10  C   UNL     1     -37.948 -49.238  12.881  1.00  0.00     0.090 A 
ATOM     11  HN  UNL     1     -37.338 -50.755  14.149  1.00  0.00     0.167 HD
HETATM   12  C   UNL     1     -38.821 -48.806  11.907  1.00  0.00     0.019 A 
HETATM   13  C   UNL     1     -39.827 -49.674  11.491  1.00  0.00     0.035 A 
BRANCH   8  14
HETATM   14  O   UNL     1     -38.943 -52.615  13.447  1.00  0.00    -0.339 OA
HETATM   15  C   UNL     1     -39.303 -52.648  14.833  1.00  0.00     0.211 C 
ENDBRANCH   8  14
ENDBRANCH   1   7
BRANCH   4  16
HETATM   16  C   UNL     1     -44.289 -53.082  12.441  1.00  0.00     0.144 C 
BRANCH  16  17
HETATM   17  C   UNL     1     -44.509 -54.031  13.629  1.00  0.00     0.145 C 
BRANCH  17  18
HETATM   18  N   UNL     1     -45.048 -53.286  14.787  1.00  0.00    -0.351 N 
HETATM   19  C   UNL     1     -45.426 -51.884  14.598  1.00  0.00     0.126 C 
HETATM   20  C   UNL     1     -46.907 -51.636  14.847  1.00  0.00     0.020 C 
HETATM   21  C   UNL     1     -47.247 -51.374  16.314  1.00  0.00     0.002 C 
HETATM   22  C   UNL     1     -46.397 -52.119  17.342  1.00  0.00     0.009 C 
HETATM   23  C   UNL     1     -46.131 -53.573  16.998  1.00  0.00     0.103 C 
HETATM   24  C   UNL     1     -44.976 -53.858  16.046  1.00  0.00     0.219 C 
HETATM   25  O   UNL     1     -44.128 -54.703  16.335  1.00  0.00    -0.273 OA
ENDBRANCH  17  18
ENDBRANCH  16  17
ENDBRANCH   4  16
TORSDOF 5
ENDMDL
