MODEL 1
REMARK VINA RESULT:      -6.2      0.000      0.000
REMARK  4 active torsions:
REMARK  status: ('A' for Active; 'I' for Inactive)
REMARK    1  A    between atoms: C_8  and  N_9 
REMARK       I    between atoms: N_9  and  C_10 
REMARK       I    between atoms: C_10  and  N_12 
REMARK    2  A    between atoms: N_12  and  C_13 
REMARK    3  A    between atoms: C_13  and  C_14 
REMARK    4  A    between atoms: C_14  and  N_15 
ROOT
HETATM    1  N   UNL     1     -41.100 -51.979  11.659  1.00  0.00    -0.294 N 
HETATM    2  C   UNL     1     -41.134 -50.623  11.544  1.00  0.00     0.321 C 
HETATM    3  O   UNL     1     -40.205 -50.074  10.951  1.00  0.00    -0.247 OA
HETATM    4  N   UNL     1     -42.160 -49.931  12.126  1.00  0.00    -0.341 N 
HETATM    5  H   UNL     1     -40.279 -52.366  11.225  1.00  0.00     0.172 HD
HETATM    6  H   UNL     1     -42.985 -50.482  12.356  1.00  0.00     0.164 HD
ENDROOT
BRANCH   1   7
HETATM    7  C   UNL     1     -41.976 -52.845  12.320  1.00  0.00     0.114 A 
HETATM    8  C   UNL     1     -41.507 -53.609  13.403  1.00  0.00    -0.018 A 
HETATM    9  C   UNL     1     -40.091 -53.580  13.902  1.00  0.00     0.052 C 
HETATM   10  C   UNL     1     -42.436 -54.415  14.075  1.00  0.00     0.012 A 
HETATM   11  C   UNL     1     -43.759 -54.452  13.660  1.00  0.00     0.018 A 
HETATM   12  C   UNL     1     -44.117 -53.687  12.568  1.00  0.00     0.089 A 
HETATM   13  N   UNL     1     -43.260 -52.902  11.886  1.00  0.00    -0.352 N 
ATOM     14  HN  UNL     1     -43.566 -52.370  11.072  1.00  0.00     0.166 HD
ENDBRANCH   1   7
BRANCH   4  15
HETATM   15  C   UNL     1     -42.194 -48.493  11.960  1.00  0.00     0.154 C 
BRANCH  15  16
HETATM   16  C   UNL     1     -43.348 -47.862  11.140  1.00  0.00     0.292 C 
BRANCH  16  17
HETATM   17  N   UNL     1     -42.825 -47.288   9.879  1.00  0.00     0.094 N 
HETATM   18  C   UNL     1     -42.070 -46.025  10.054  1.00  0.00     0.298 C 
HETATM   19  C   UNL     1     -42.963 -44.796  10.255  1.00  0.00     0.198 C 
HETATM   20  O   UNL     1     -43.831 -44.619   9.131  1.00  0.00    -0.388 OA
HETATM   21  C   UNL     1     -44.660 -45.774   8.952  1.00  0.00     0.198 C 
HETATM   22  C   UNL     1     -43.841 -47.073   8.828  1.00  0.00     0.298 C 
ENDBRANCH  16  17
ENDBRANCH  15  16
ENDBRANCH   4  15
TORSDOF 4
ENDMDL
MODEL 2
REMARK VINA RESULT:      -6.2      2.057      2.665
REMARK  4 active torsions:
REMARK  status: ('A' for Active; 'I' for Inactive)
REMARK    1  A    between atoms: C_8  and  N_9 
REMARK       I    between atoms: N_9  and  C_10 
REMARK       I    between atoms: C_10  and  N_12 
REMARK    2  A    between atoms: N_12  and  C_13 
REMARK    3  A    between atoms: C_13  and  C_14 
REMARK    4  A    between atoms: C_14  and  N_15 
ROOT
HETATM    1  N   UNL     1     -42.887 -52.381  12.747  1.00  0.00    -0.294 N 
HETATM    2  C   UNL     1     -41.944 -51.552  12.221  1.00  0.00     0.321 C 
HETATM    3  O   UNL     1     -40.824 -52.018  12.008  1.00  0.00    -0.247 OA
HETATM    4  N   UNL     1     -42.261 -50.241  11.998  1.00  0.00    -0.341 N 
HETATM    5  H   UNL     1     -42.521 -53.306  12.900  1.00  0.00     0.172 HD
HETATM    6  H   UNL     1     -43.257 -50.031  11.961  1.00  0.00     0.164 HD
ENDROOT
BRANCH   1   7
HETATM    7  C   UNL     1     -44.201 -52.111  13.137  1.00  0.00     0.114 A 
HETATM    8  C   UNL     1     -44.454 -51.649  14.442  1.00  0.00    -0.018 A 
HETATM    9  C   UNL     1     -43.391 -51.442  15.481  1.00  0.00     0.052 C 
HETATM   10  C   UNL     1     -45.779 -51.331  14.768  1.00  0.00     0.012 A 
HETATM   11  C   UNL     1     -46.788 -51.485  13.829  1.00  0.00     0.018 A 
HETATM   12  C   UNL     1     -46.444 -51.972  12.584  1.00  0.00     0.089 A 
HETATM   13  N   UNL     1     -45.186 -52.299  12.225  1.00  0.00    -0.352 N 
ATOM     14  HN  UNL     1     -44.983 -52.674  11.299  1.00  0.00     0.166 HD
ENDBRANCH   1   7
BRANCH   4  15
HETATM   15  C   UNL     1     -41.254 -49.387  11.404  1.00  0.00     0.154 C 
BRANCH  15  16
HETATM   16  C   UNL     1     -41.685 -48.355  10.331  1.00  0.00     0.292 C 
BRANCH  16  17
HETATM   17  N   UNL     1     -42.924 -47.663  10.757  1.00  0.00     0.094 N 
HETATM   18  C   UNL     1     -43.886 -47.413   9.659  1.00  0.00     0.298 C 
HETATM   19  C   UNL     1     -43.513 -46.221   8.770  1.00  0.00     0.198 C 
HETATM   20  O   UNL     1     -43.436 -45.022   9.549  1.00  0.00    -0.388 OA
HETATM   21  C   UNL     1     -42.453 -45.159  10.583  1.00  0.00     0.198 C 
HETATM   22  C   UNL     1     -42.706 -46.390  11.474  1.00  0.00     0.298 C 
ENDBRANCH  16  17
ENDBRANCH  15  16
ENDBRANCH   4  15
TORSDOF 4
ENDMDL
MODEL 3
REMARK VINA RESULT:      -6.2      2.151      7.347
REMARK  4 active torsions:
REMARK  status: ('A' for Active; 'I' for Inactive)
REMARK    1  A    between atoms: C_8  and  N_9 
REMARK       I    between atoms: N_9  and  C_10 
REMARK       I    between atoms: C_10  and  N_12 
REMARK    2  A    between atoms: N_12  and  C_13 
REMARK    3  A    between atoms: C_13  and  C_14 
REMARK    4  A    between atoms: C_14  and  N_15 
ROOT
HETATM    1  N   UNL     1     -40.999 -48.932  10.590  1.00  0.00    -0.294 N 
HETATM    2  C   UNL     1     -41.181 -49.924  11.505  1.00  0.00     0.321 C 
HETATM    3  O   UNL     1     -40.248 -50.704  11.698  1.00  0.00    -0.247 OA
HETATM    4  N   UNL     1     -42.392 -50.042  12.127  1.00  0.00    -0.341 N 
HETATM    5  H   UNL     1     -40.083 -48.976  10.176  1.00  0.00     0.172 HD
HETATM    6  H   UNL     1     -42.985 -49.215  12.092  1.00  0.00     0.164 HD
ENDROOT
BRANCH   1   7
HETATM    7  C   UNL     1     -41.892 -47.957  10.136  1.00  0.00     0.114 A 
HETATM    8  C   UNL     1     -41.943 -46.710  10.785  1.00  0.00    -0.018 A 
HETATM    9  C   UNL     1     -41.103 -46.346  11.974  1.00  0.00     0.052 C 
HETATM   10  C   UNL     1     -42.807 -45.743  10.255  1.00  0.00     0.012 A 
HETATM   11  C   UNL     1     -43.582 -46.031   9.142  1.00  0.00     0.018 A 
HETATM   12  C   UNL     1     -43.484 -47.293   8.593  1.00  0.00     0.089 A 
HETATM   13  N   UNL     1     -42.672 -48.259   9.069  1.00  0.00    -0.352 N 
ATOM     14  HN  UNL     1     -42.648 -49.185   8.642  1.00  0.00     0.166 HD
ENDBRANCH   1   7
BRANCH   4  15
HETATM   15  C   UNL     1     -42.551 -51.082  13.122  1.00  0.00     0.154 C 
BRANCH  15  16
HETATM   16  C   UNL     1     -43.865 -51.903  13.144  1.00  0.00     0.292 C 
BRANCH  16  17
HETATM   17  N   UNL     1     -43.605 -53.296  12.713  1.00  0.00     0.094 N 
HETATM   18  C   UNL     1     -44.759 -54.209  12.885  1.00  0.00     0.298 C 
HETATM   19  C   UNL     1     -44.962 -54.682  14.329  1.00  0.00     0.198 C 
HETATM   20  O   UNL     1     -43.799 -55.375  14.795  1.00  0.00    -0.388 OA
HETATM   21  C   UNL     1     -42.651 -54.518  14.741  1.00  0.00     0.198 C 
HETATM   22  C   UNL     1     -42.424 -53.927  13.337  1.00  0.00     0.298 C 
ENDBRANCH  16  17
ENDBRANCH  15  16
ENDBRANCH   4  15
TORSDOF 4
ENDMDL
MODEL 4
REMARK VINA RESULT:      -6.0      3.070      7.289
REMARK  4 active torsions:
REMARK  status: ('A' for Active; 'I' for Inactive)
REMARK    1  A    between atoms: C_8  and  N_9 
REMARK       I    between atoms: N_9  and  C_10 
REMARK       I    between atoms: C_10  and  N_12 
REMARK    2  A    between atoms: N_12  and  C_13 
REMARK    3  A    between atoms: C_13  and  C_14 
REMARK    4  A    between atoms: C_14  and  N_15 
ROOT
HETATM    1  N   UNL     1     -40.096 -50.873  11.493  1.00  0.00    -0.294 N 
HETATM    2  C   UNL     1     -40.746 -51.814  12.232  1.00  0.00     0.321 C 
HETATM    3  O   UNL     1     -40.351 -52.977  12.158  1.00  0.00    -0.247 OA
HETATM    4  N   UNL     1     -41.828 -51.440  12.980  1.00  0.00    -0.341 N 
HETATM    5  H   UNL     1     -39.345 -51.279  10.958  1.00  0.00     0.172 HD
HETATM    6  H   UNL     1     -41.905 -50.443  13.172  1.00  0.00     0.164 HD
ENDROOT
BRANCH   1   7
HETATM    7  C   UNL     1     -40.362 -49.509  11.342  1.00  0.00     0.114 A 
HETATM    8  C   UNL     1     -39.550 -48.570  12.005  1.00  0.00    -0.018 A 
HETATM    9  C   UNL     1     -38.403 -48.933  12.902  1.00  0.00     0.052 C 
HETATM   10  C   UNL     1     -39.815 -47.213  11.774  1.00  0.00     0.012 A 
HETATM   11  C   UNL     1     -40.850 -46.835  10.932  1.00  0.00     0.018 A 
HETATM   12  C   UNL     1     -41.609 -47.831  10.351  1.00  0.00     0.089 A 
HETATM   13  N   UNL     1     -41.398 -49.148  10.547  1.00  0.00    -0.352 N 
ATOM     14  HN  UNL     1     -41.998 -49.849  10.111  1.00  0.00     0.166 HD
ENDBRANCH   1   7
BRANCH   4  15
HETATM   15  C   UNL     1     -42.481 -52.450  13.786  1.00  0.00     0.154 C 
BRANCH  15  16
HETATM   16  C   UNL     1     -43.771 -53.119  13.247  1.00  0.00     0.292 C 
BRANCH  16  17
HETATM   17  N   UNL     1     -43.964 -54.443  13.882  1.00  0.00     0.094 N 
HETATM   18  C   UNL     1     -45.337 -54.984  13.751  1.00  0.00     0.298 C 
HETATM   19  C   UNL     1     -46.342 -54.359  14.725  1.00  0.00     0.198 C 
HETATM   20  O   UNL     1     -45.928 -54.576  16.078  1.00  0.00    -0.388 OA
HETATM   21  C   UNL     1     -44.636 -53.997  16.305  1.00  0.00     0.198 C 
HETATM   22  C   UNL     1     -43.580 -54.509  15.307  1.00  0.00     0.298 C 
ENDBRANCH  16  17
ENDBRANCH  15  16
ENDBRANCH   4  15
TORSDOF 4
ENDMDL
MODEL 5
REMARK VINA RESULT:      -5.9      1.485      2.074
REMARK  4 active torsions:
REMARK  status: ('A' for Active; 'I' for Inactive)
REMARK    1  A    between atoms: C_8  and  N_9 
REMARK       I    between atoms: N_9  and  C_10 
REMARK       I    between atoms: C_10  and  N_12 
REMARK    2  A    between atoms: N_12  and  C_13 
REMARK    3  A    between atoms: C_13  and  C_14 
REMARK    4  A    between atoms: C_14  and  N_15 
ROOT
HETATM    1  N   UNL     1     -42.808 -53.294  12.349  1.00  0.00    -0.294 N 
HETATM    2  C   UNL     1     -42.052 -52.200  12.053  1.00  0.00     0.321 C 
HETATM    3  O   UNL     1     -40.939 -52.387  11.562  1.00  0.00    -0.247 OA
HETATM    4  N   UNL     1     -42.535 -50.957  12.355  1.00  0.00    -0.341 N 
HETATM    5  H   UNL     1     -42.328 -54.147  12.116  1.00  0.00     0.172 HD
HETATM    6  H   UNL     1     -43.540 -50.902  12.509  1.00  0.00     0.164 HD
ENDROOT
BRANCH   1   7
HETATM    7  C   UNL     1     -44.064 -53.378  12.956  1.00  0.00     0.114 A 
HETATM    8  C   UNL     1     -44.216 -54.144  14.126  1.00  0.00    -0.018 A 
HETATM    9  C   UNL     1     -43.105 -54.916  14.776  1.00  0.00     0.052 C 
HETATM   10  C   UNL     1     -45.478 -54.148  14.734  1.00  0.00     0.012 A 
HETATM   11  C   UNL     1     -46.526 -53.428  14.179  1.00  0.00     0.018 A 
HETATM   12  C   UNL     1     -46.285 -52.730  13.013  1.00  0.00     0.089 A 
HETATM   13  N   UNL     1     -45.092 -52.701  12.387  1.00  0.00    -0.352 N 
ATOM     14  HN  UNL     1     -44.966 -52.187  11.515  1.00  0.00     0.166 HD
ENDBRANCH   1   7
BRANCH   4  15
HETATM   15  C   UNL     1     -41.730 -49.808  11.999  1.00  0.00     0.154 C 
BRANCH  15  16
HETATM   16  C   UNL     1     -42.440 -48.470  11.669  1.00  0.00     0.292 C 
BRANCH  16  17
HETATM   17  N   UNL     1     -41.879 -47.886  10.429  1.00  0.00     0.094 N 
HETATM   18  C   UNL     1     -41.166 -46.603  10.631  1.00  0.00     0.298 C 
HETATM   19  C   UNL     1     -42.099 -45.397  10.789  1.00  0.00     0.198 C 
HETATM   20  O   UNL     1     -42.922 -45.247   9.627  1.00  0.00    -0.388 OA
HETATM   21  C   UNL     1     -43.713 -46.425   9.418  1.00  0.00     0.198 C 
HETATM   22  C   UNL     1     -42.854 -47.701   9.335  1.00  0.00     0.298 C 
ENDBRANCH  16  17
ENDBRANCH  15  16
ENDBRANCH   4  15
TORSDOF 4
ENDMDL
MODEL 6
REMARK VINA RESULT:      -5.6      4.672      5.890
REMARK  4 active torsions:
REMARK  status: ('A' for Active; 'I' for Inactive)
REMARK    1  A    between atoms: C_8  and  N_9 
REMARK       I    between atoms: N_9  and  C_10 
REMARK       I    between atoms: C_10  and  N_12 
REMARK    2  A    between atoms: N_12  and  C_13 
REMARK    3  A    between atoms: C_13  and  C_14 
REMARK    4  A    between atoms: C_14  and  N_15 
ROOT
HETATM    1  N   UNL     1     -41.265 -47.638  10.299  1.00  0.00    -0.294 N 
HETATM    2  C   UNL     1     -40.554 -46.546  10.694  1.00  0.00     0.321 C 
HETATM    3  O   UNL     1     -39.455 -46.734  11.216  1.00  0.00    -0.247 OA
HETATM    4  N   UNL     1     -41.102 -45.303  10.539  1.00  0.00    -0.341 N 
HETATM    5  H   UNL     1     -40.772 -48.492  10.501  1.00  0.00     0.172 HD
HETATM    6  H   UNL     1     -41.874 -45.244   9.877  1.00  0.00     0.164 HD
ENDROOT
BRANCH   1   7
HETATM    7  C   UNL     1     -42.543 -47.721   9.740  1.00  0.00     0.114 A 
HETATM    8  C   UNL     1     -43.671 -47.620  10.575  1.00  0.00    -0.018 A 
HETATM    9  C   UNL     1     -43.601 -47.448  12.065  1.00  0.00     0.052 C 
HETATM   10  C   UNL     1     -44.931 -47.646   9.963  1.00  0.00     0.012 A 
HETATM   11  C   UNL     1     -45.038 -47.779   8.587  1.00  0.00     0.018 A 
HETATM   12  C   UNL     1     -43.874 -47.900   7.855  1.00  0.00     0.089 A 
HETATM   13  N   UNL     1     -42.640 -47.888   8.398  1.00  0.00    -0.352 N 
ATOM     14  HN  UNL     1     -41.808 -48.000   7.819  1.00  0.00     0.166 HD
ENDBRANCH   1   7
BRANCH   4  15
HETATM   15  C   UNL     1     -40.313 -44.155  10.932  1.00  0.00     0.154 C 
BRANCH  15  16
HETATM   16  C   UNL     1     -41.020 -42.963  11.626  1.00  0.00     0.292 C 
BRANCH  16  17
HETATM   17  N   UNL     1     -42.441 -43.290  11.882  1.00  0.00     0.094 N 
HETATM   18  C   UNL     1     -43.398 -42.293  11.349  1.00  0.00     0.298 C 
HETATM   19  C   UNL     1     -43.522 -41.033  12.214  1.00  0.00     0.198 C 
HETATM   20  O   UNL     1     -43.956 -41.374  13.535  1.00  0.00    -0.388 OA
HETATM   21  C   UNL     1     -43.025 -42.274  14.151  1.00  0.00     0.198 C 
HETATM   22  C   UNL     1     -42.776 -43.534  13.300  1.00  0.00     0.298 C 
ENDBRANCH  16  17
ENDBRANCH  15  16
ENDBRANCH   4  15
TORSDOF 4
ENDMDL
MODEL 7
REMARK VINA RESULT:      -5.3      1.900      2.486
REMARK  4 active torsions:
REMARK  status: ('A' for Active; 'I' for Inactive)
REMARK    1  A    between atoms: C_8  and  N_9 
REMARK       I    between atoms: N_9  and  C_10 
REMARK       I    between atoms: C_10  and  N_12 
REMARK    2  A    between atoms: N_12  and  C_13 
REMARK    3  A    between atoms: C_13  and  C_14 
REMARK    4  A    between atoms: C_14  and  N_15 
ROOT
HETATM    1  N   UNL     1     -40.981 -51.861  11.530  1.00  0.00    -0.294 N 
HETATM    2  C   UNL     1     -40.756 -50.527  11.687  1.00  0.00     0.321 C 
HETATM    3  O   UNL     1     -39.852 -50.015  11.027  1.00  0.00    -0.247 OA
HETATM    4  N   UNL     1     -41.503 -49.829  12.595  1.00  0.00    -0.341 N 
HETATM    5  H   UNL     1     -40.344 -52.266  10.864  1.00  0.00     0.172 HD
HETATM    6  H   UNL     1     -42.371 -50.276  12.885  1.00  0.00     0.164 HD
ENDROOT
BRANCH   1   7
HETATM    7  C   UNL     1     -41.889 -52.700  12.182  1.00  0.00     0.114 A 
HETATM    8  C   UNL     1     -41.442 -53.510  13.242  1.00  0.00    -0.018 A 
HETATM    9  C   UNL     1     -40.020 -53.558  13.722  1.00  0.00     0.052 C 
HETATM   10  C   UNL     1     -42.399 -54.288  13.907  1.00  0.00     0.012 A 
HETATM   11  C   UNL     1     -43.727 -54.253  13.510  1.00  0.00     0.018 A 
HETATM   12  C   UNL     1     -44.063 -53.449  12.440  1.00  0.00     0.089 A 
HETATM   13  N   UNL     1     -43.178 -52.688  11.765  1.00  0.00    -0.352 N 
ATOM     14  HN  UNL     1     -43.470 -52.124  10.967  1.00  0.00     0.166 HD
ENDBRANCH   1   7
BRANCH   4  15
HETATM   15  C   UNL     1     -41.271 -48.406  12.719  1.00  0.00     0.154 C 
BRANCH  15  16
HETATM   16  C   UNL     1     -41.774 -47.464  11.595  1.00  0.00     0.292 C 
BRANCH  16  17
HETATM   17  N   UNL     1     -41.890 -46.078  12.102  1.00  0.00     0.094 N 
HETATM   18  C   UNL     1     -41.771 -45.037  11.055  1.00  0.00     0.298 C 
HETATM   19  C   UNL     1     -40.328 -44.766  10.616  1.00  0.00     0.198 C 
HETATM   20  O   UNL     1     -39.538 -44.339  11.731  1.00  0.00    -0.388 OA
HETATM   21  C   UNL     1     -39.534 -45.342  12.755  1.00  0.00     0.198 C 
HETATM   22  C   UNL     1     -40.956 -45.738  13.195  1.00  0.00     0.298 C 
ENDBRANCH  16  17
ENDBRANCH  15  16
ENDBRANCH   4  15
TORSDOF 4
ENDMDL
MODEL 8
REMARK VINA RESULT:      -5.3      3.972      4.997
REMARK  4 active torsions:
REMARK  status: ('A' for Active; 'I' for Inactive)
REMARK    1  A    between atoms: C_8  and  N_9 
REMARK       I    between atoms: N_9  and  C_10 
REMARK       I    between atoms: C_10  and  N_12 
REMARK    2  A    between atoms: N_12  and  C_13 
REMARK    3  A    between atoms: C_13  and  C_14 
REMARK    4  A    between atoms: C_14  and  N_15 
ROOT
HETATM    1  N   UNL     1     -43.364 -52.934  12.122  1.00  0.00    -0.294 N 
HETATM    2  C   UNL     1     -42.052 -52.700  12.403  1.00  0.00     0.321 C 
HETATM    3  O   UNL     1     -41.310 -52.396  11.469  1.00  0.00    -0.247 OA
HETATM    4  N   UNL     1     -41.609 -52.858  13.687  1.00  0.00    -0.341 N 
HETATM    5  H   UNL     1     -43.556 -52.823  11.140  1.00  0.00     0.172 HD
HETATM    6  H   UNL     1     -42.332 -52.853  14.404  1.00  0.00     0.164 HD
ENDROOT
BRANCH   1   7
HETATM    7  C   UNL     1     -44.402 -53.345  12.963  1.00  0.00     0.114 A 
HETATM    8  C   UNL     1     -45.239 -52.379  13.551  1.00  0.00    -0.018 A 
HETATM    9  C   UNL     1     -45.082 -50.899  13.354  1.00  0.00     0.052 C 
HETATM   10  C   UNL     1     -46.304 -52.841  14.335  1.00  0.00     0.012 A 
HETATM   11  C   UNL     1     -46.498 -54.201  14.522  1.00  0.00     0.018 A 
HETATM   12  C   UNL     1     -45.606 -55.070  13.927  1.00  0.00     0.089 A 
HETATM   13  N   UNL     1     -44.563 -54.675  13.170  1.00  0.00    -0.352 N 
ATOM     14  HN  UNL     1     -43.917 -55.354  12.766  1.00  0.00     0.166 HD
ENDBRANCH   1   7
BRANCH   4  15
HETATM   15  C   UNL     1     -40.219 -52.569  13.969  1.00  0.00     0.154 C 
BRANCH  15  16
HETATM   16  C   UNL     1     -39.854 -51.214  14.627  1.00  0.00     0.292 C 
BRANCH  16  17
HETATM   17  N   UNL     1     -38.581 -50.701  14.070  1.00  0.00     0.094 N 
HETATM   18  C   UNL     1     -38.269 -49.306  14.458  1.00  0.00     0.298 C 
HETATM   19  C   UNL     1     -39.052 -48.255  13.663  1.00  0.00     0.198 C 
HETATM   20  O   UNL     1     -38.776 -48.379  12.264  1.00  0.00    -0.388 OA
HETATM   21  C   UNL     1     -39.140 -49.684  11.796  1.00  0.00     0.198 C 
HETATM   22  C   UNL     1     -38.460 -50.807  12.602  1.00  0.00     0.298 C 
ENDBRANCH  16  17
ENDBRANCH  15  16
ENDBRANCH   4  15
TORSDOF 4
ENDMDL
MODEL 9
REMARK VINA RESULT:      -5.2      4.062      5.261
REMARK  4 active torsions:
REMARK  status: ('A' for Active; 'I' for Inactive)
REMARK    1  A    between atoms: C_8  and  N_9 
REMARK       I    between atoms: N_9  and  C_10 
REMARK       I    between atoms: C_10  and  N_12 
REMARK    2  A    between atoms: N_12  and  C_13 
REMARK    3  A    between atoms: C_13  and  C_14 
REMARK    4  A    between atoms: C_14  and  N_15 
ROOT
HETATM    1  N   UNL     1     -43.139 -52.956  12.056  1.00  0.00    -0.294 N 
HETATM    2  C   UNL     1     -42.039 -52.162  12.167  1.00  0.00     0.321 C 
HETATM    3  O   UNL     1     -41.053 -52.449  11.488  1.00  0.00    -0.247 OA
HETATM    4  N   UNL     1     -42.057 -51.119  13.051  1.00  0.00    -0.341 N 
HETATM    5  H   UNL     1     -42.987 -53.708  11.405  1.00  0.00     0.172 HD
HETATM    6  H   UNL     1     -42.981 -50.820  13.357  1.00  0.00     0.164 HD
ENDROOT
BRANCH   1   7
HETATM    7  C   UNL     1     -44.358 -52.900  12.739  1.00  0.00     0.114 A 
HETATM    8  C   UNL     1     -44.549 -53.703  13.879  1.00  0.00    -0.018 A 
HETATM    9  C   UNL     1     -43.522 -54.656  14.418  1.00  0.00     0.052 C 
HETATM   10  C   UNL     1     -45.761 -53.566  14.567  1.00  0.00     0.012 A 
HETATM   11  C   UNL     1     -46.727 -52.678  14.116  1.00  0.00     0.018 A 
HETATM   12  C   UNL     1     -46.457 -51.956  12.971  1.00  0.00     0.089 A 
HETATM   13  N   UNL     1     -45.310 -52.056  12.271  1.00  0.00    -0.352 N 
ATOM     14  HN  UNL     1     -45.163 -51.516  11.418  1.00  0.00     0.166 HD
ENDBRANCH   1   7
BRANCH   4  15
HETATM   15  C   UNL     1     -40.890 -50.267  13.125  1.00  0.00     0.154 C 
BRANCH  15  16
HETATM   16  C   UNL     1     -39.883 -50.475  14.285  1.00  0.00     0.292 C 
BRANCH  16  17
HETATM   17  N   UNL     1     -38.500 -50.240  13.811  1.00  0.00     0.094 N 
HETATM   18  C   UNL     1     -37.466 -50.388  14.861  1.00  0.00     0.298 C 
HETATM   19  C   UNL     1     -37.361 -49.179  15.798  1.00  0.00     0.198 C 
HETATM   20  O   UNL     1     -37.045 -47.997  15.056  1.00  0.00    -0.388 OA
HETATM   21  C   UNL     1     -38.056 -47.739  14.073  1.00  0.00     0.198 C 
HETATM   22  C   UNL     1     -38.288 -48.942  13.139  1.00  0.00     0.298 C 
ENDBRANCH  16  17
ENDBRANCH  15  16
ENDBRANCH   4  15
TORSDOF 4
ENDMDL
