MODEL 1
REMARK VINA RESULT:      -6.7      0.000      0.000
REMARK  4 active torsions:
REMARK  status: ('A' for Active; 'I' for Inactive)
REMARK    1  A    between atoms: N_4  and  C_9 
REMARK    2  A    between atoms: C_12  and  N_13 
REMARK       I    between atoms: N_13  and  C_14 
REMARK       I    between atoms: C_14  and  N_16 
REMARK    3  A    between atoms: N_16  and  C_17 
REMARK    4  A    between atoms: C_17  and  C_18 
ROOT
HETATM    1  C   UNL     1     -41.812 -51.354  12.290  1.00  0.00     0.103 A 
HETATM    2  C   UNL     1     -42.628 -50.268  12.585  1.00  0.00     0.051 A 
HETATM    3  C   UNL     1     -42.430 -49.032  11.973  1.00  0.00     0.035 A 
HETATM    4  C   UNL     1     -41.384 -48.849  11.083  1.00  0.00     0.051 A 
HETATM    5  C   UNL     1     -40.596 -49.967  10.845  1.00  0.00     0.119 A 
HETATM    6  N   UNL     1     -40.788 -51.191  11.421  1.00  0.00    -0.350 N 
ATOM      7  HN  UNL     1     -40.168 -51.971  11.199  1.00  0.00     0.166 HD
ENDROOT
BRANCH   4   8
HETATM    8  N   UNL     1     -41.133 -47.614  10.437  1.00  0.00    -0.308 N 
HETATM    9  C   UNL     1     -40.465 -46.561  11.018  1.00  0.00     0.320 C 
HETATM   10  O   UNL     1     -39.888 -46.586  12.101  1.00  0.00    -0.247 OA
HETATM   11  N   UNL     1     -40.476 -45.417  10.239  1.00  0.00    -0.340 N 
HETATM   12  H   UNL     1     -41.343 -45.245   9.747  1.00  0.00     0.164 HD
HETATM   13  H   UNL     1     -41.257 -47.566   9.435  1.00  0.00     0.170 HD
BRANCH  11  14
HETATM   14  C   UNL     1     -39.874 -44.243  10.856  1.00  0.00     0.156 C 
BRANCH  14  15
HETATM   15  C   UNL     1     -40.860 -43.150  11.253  1.00  0.00     0.139 C 
HETATM   16  C   UNL     1     -41.314 -43.312  12.699  1.00  0.00     0.035 C 
HETATM   17  C   UNL     1     -42.780 -42.944  12.692  1.00  0.00     0.029 C 
HETATM   18  C   UNL     1     -43.093 -42.626  11.246  1.00  0.00     0.168 C 
HETATM   19  O   UNL     1     -42.058 -43.233  10.464  1.00  0.00    -0.384 OA
ENDBRANCH  14  15
ENDBRANCH  11  14
ENDBRANCH   4   8
BRANCH   1  20
HETATM   20  N   UNL     1     -41.991 -52.569  12.914  1.00  0.00    -0.362 N 
HETATM   21  C   UNL     1     -40.833 -53.355  13.358  1.00  0.00     0.156 C 
HETATM   22  C   UNL     1     -41.175 -54.036  14.707  1.00  0.00     0.136 C 
HETATM   23  C   UNL     1     -41.168 -53.038  15.865  1.00  0.00     0.041 C 
HETATM   24  O   UNL     1     -42.420 -54.771  14.660  1.00  0.00    -0.378 OA
HETATM   25  C   UNL     1     -43.524 -53.975  14.187  1.00  0.00     0.136 C 
HETATM   26  C   UNL     1     -43.212 -53.373  12.803  1.00  0.00     0.156 C 
HETATM   27  C   UNL     1     -44.762 -54.861  14.125  1.00  0.00     0.041 C 
ENDBRANCH   1  20
TORSDOF 4
ENDMDL
MODEL 2
REMARK VINA RESULT:      -6.4      3.027      4.024
REMARK  4 active torsions:
REMARK  status: ('A' for Active; 'I' for Inactive)
REMARK    1  A    between atoms: N_4  and  C_9 
REMARK    2  A    between atoms: C_12  and  N_13 
REMARK       I    between atoms: N_13  and  C_14 
REMARK       I    between atoms: C_14  and  N_16 
REMARK    3  A    between atoms: N_16  and  C_17 
REMARK    4  A    between atoms: C_17  and  C_18 
ROOT
HETATM    1  C   UNL     1     -40.274 -53.426  14.095  1.00  0.00     0.103 A 
HETATM    2  C   UNL     1     -39.332 -52.410  13.990  1.00  0.00     0.051 A 
HETATM    3  C   UNL     1     -39.442 -51.426  13.009  1.00  0.00     0.035 A 
HETATM    4  C   UNL     1     -40.478 -51.465  12.089  1.00  0.00     0.051 A 
HETATM    5  C   UNL     1     -41.374 -52.514  12.238  1.00  0.00     0.119 A 
HETATM    6  N   UNL     1     -41.292 -53.476  13.205  1.00  0.00    -0.350 N 
ATOM      7  HN  UNL     1     -41.988 -54.220  13.256  1.00  0.00     0.166 HD
ENDROOT
BRANCH   4   8
HETATM    8  N   UNL     1     -40.635 -50.495  11.069  1.00  0.00    -0.308 N 
HETATM    9  C   UNL     1     -41.319 -49.312  11.228  1.00  0.00     0.320 C 
HETATM   10  O   UNL     1     -41.764 -48.875  12.286  1.00  0.00    -0.247 OA
HETATM   11  N   UNL     1     -41.456 -48.603  10.049  1.00  0.00    -0.340 N 
HETATM   12  H   UNL     1     -41.628 -49.170   9.228  1.00  0.00     0.164 HD
HETATM   13  H   UNL     1     -40.047 -50.564  10.252  1.00  0.00     0.170 HD
BRANCH  11  14
HETATM   14  C   UNL     1     -42.265 -47.395  10.142  1.00  0.00     0.156 C 
BRANCH  14  15
HETATM   15  C   UNL     1     -43.517 -47.391   9.273  1.00  0.00     0.139 C 
HETATM   16  C   UNL     1     -43.867 -45.981   8.814  1.00  0.00     0.035 C 
HETATM   17  C   UNL     1     -45.377 -45.916   8.866  1.00  0.00     0.029 C 
HETATM   18  C   UNL     1     -45.805 -47.273   9.381  1.00  0.00     0.168 C 
HETATM   19  O   UNL     1     -44.657 -47.845  10.020  1.00  0.00    -0.384 OA
ENDBRANCH  14  15
ENDBRANCH  11  14
ENDBRANCH   4   8
BRANCH   1  20
HETATM   20  N   UNL     1     -40.151 -54.414  15.048  1.00  0.00    -0.362 N 
HETATM   21  C   UNL     1     -38.903 -55.177  15.172  1.00  0.00     0.156 C 
HETATM   22  C   UNL     1     -38.626 -55.448  16.672  1.00  0.00     0.136 C 
HETATM   23  C   UNL     1     -38.142 -54.192  17.396  1.00  0.00     0.041 C 
HETATM   24  O   UNL     1     -39.761 -56.036  17.350  1.00  0.00    -0.378 OA
HETATM   25  C   UNL     1     -40.974 -55.277  17.175  1.00  0.00     0.136 C 
HETATM   26  C   UNL     1     -41.291 -55.088  15.679  1.00  0.00     0.156 C 
HETATM   27  C   UNL     1     -42.105 -56.014  17.879  1.00  0.00     0.041 C 
ENDBRANCH   1  20
TORSDOF 4
ENDMDL
MODEL 3
REMARK VINA RESULT:      -6.2      1.303      2.159
REMARK  4 active torsions:
REMARK  status: ('A' for Active; 'I' for Inactive)
REMARK    1  A    between atoms: N_4  and  C_9 
REMARK    2  A    between atoms: C_12  and  N_13 
REMARK       I    between atoms: N_13  and  C_14 
REMARK       I    between atoms: C_14  and  N_16 
REMARK    3  A    between atoms: N_16  and  C_17 
REMARK    4  A    between atoms: C_17  and  C_18 
ROOT
HETATM    1  C   UNL     1     -42.817 -51.626  13.592  1.00  0.00     0.103 A 
HETATM    2  C   UNL     1     -43.544 -50.448  13.465  1.00  0.00     0.051 A 
HETATM    3  C   UNL     1     -43.123 -49.431  12.610  1.00  0.00     0.035 A 
HETATM    4  C   UNL     1     -41.942 -49.560  11.896  1.00  0.00     0.051 A 
HETATM    5  C   UNL     1     -41.255 -50.752  12.081  1.00  0.00     0.119 A 
HETATM    6  N   UNL     1     -41.664 -51.767  12.900  1.00  0.00    -0.350 N 
ATOM      7  HN  UNL     1     -41.108 -52.617  12.987  1.00  0.00     0.166 HD
ENDROOT
BRANCH   4   8
HETATM    8  N   UNL     1     -41.463 -48.557  11.018  1.00  0.00    -0.308 N 
HETATM    9  C   UNL     1     -40.668 -47.504  11.410  1.00  0.00     0.320 C 
HETATM   10  O   UNL     1     -40.161 -47.360  12.518  1.00  0.00    -0.247 OA
HETATM   11  N   UNL     1     -40.455 -46.582  10.401  1.00  0.00    -0.340 N 
HETATM   12  H   UNL     1     -41.256 -46.407   9.808  1.00  0.00     0.164 HD
HETATM   13  H   UNL     1     -41.524 -48.725  10.024  1.00  0.00     0.170 HD
BRANCH  11  14
HETATM   14  C   UNL     1     -39.708 -45.395  10.794  1.00  0.00     0.156 C 
BRANCH  14  15
HETATM   15  C   UNL     1     -40.541 -44.125  10.918  1.00  0.00     0.139 C 
HETATM   16  C   UNL     1     -40.637 -43.665  12.368  1.00  0.00     0.035 C 
HETATM   17  C   UNL     1     -42.052 -43.156  12.524  1.00  0.00     0.029 C 
HETATM   18  C   UNL     1     -42.696 -43.380  11.172  1.00  0.00     0.168 C 
HETATM   19  O   UNL     1     -41.895 -44.360  10.500  1.00  0.00    -0.384 OA
ENDBRANCH  14  15
ENDBRANCH  11  14
ENDBRANCH   4   8
BRANCH   1  20
HETATM   20  N   UNL     1     -43.220 -52.620  14.457  1.00  0.00    -0.362 N 
HETATM   21  C   UNL     1     -44.616 -52.693  14.908  1.00  0.00     0.156 C 
HETATM   22  C   UNL     1     -45.036 -54.182  15.003  1.00  0.00     0.136 C 
HETATM   23  C   UNL     1     -45.262 -54.797  13.622  1.00  0.00     0.041 C 
HETATM   24  O   UNL     1     -44.109 -54.973  15.782  1.00  0.00    -0.378 OA
HETATM   25  C   UNL     1     -42.746 -54.847  15.329  1.00  0.00     0.136 C 
HETATM   26  C   UNL     1     -42.305 -53.371  15.323  1.00  0.00     0.156 C 
HETATM   27  C   UNL     1     -41.858 -55.674  16.250  1.00  0.00     0.041 C 
ENDBRANCH   1  20
TORSDOF 4
ENDMDL
MODEL 4
REMARK VINA RESULT:      -6.1      2.162      9.554
REMARK  4 active torsions:
REMARK  status: ('A' for Active; 'I' for Inactive)
REMARK    1  A    between atoms: N_4  and  C_9 
REMARK    2  A    between atoms: C_12  and  N_13 
REMARK       I    between atoms: N_13  and  C_14 
REMARK       I    between atoms: C_14  and  N_16 
REMARK    3  A    between atoms: N_16  and  C_17 
REMARK    4  A    between atoms: C_17  and  C_18 
ROOT
HETATM    1  C   UNL     1     -41.821 -43.685  11.263  1.00  0.00     0.103 A 
HETATM    2  C   UNL     1     -40.521 -44.135  11.070  1.00  0.00     0.051 A 
HETATM    3  C   UNL     1     -40.259 -45.470  10.766  1.00  0.00     0.035 A 
HETATM    4  C   UNL     1     -41.294 -46.388  10.690  1.00  0.00     0.051 A 
HETATM    5  C   UNL     1     -42.566 -45.877  10.911  1.00  0.00     0.119 A 
HETATM    6  N   UNL     1     -42.842 -44.569  11.190  1.00  0.00    -0.350 N 
ATOM      7  HN  UNL     1     -43.804 -44.263  11.341  1.00  0.00     0.166 HD
ENDROOT
BRANCH   4   8
HETATM    8  N   UNL     1     -41.086 -47.756  10.391  1.00  0.00    -0.308 N 
HETATM    9  C   UNL     1     -40.807 -48.719  11.335  1.00  0.00     0.320 C 
HETATM   10  O   UNL     1     -40.833 -48.561  12.552  1.00  0.00    -0.247 OA
HETATM   11  N   UNL     1     -40.502 -49.948  10.780  1.00  0.00    -0.340 N 
HETATM   12  H   UNL     1     -39.949 -49.908   9.933  1.00  0.00     0.164 HD
HETATM   13  H   UNL     1     -41.358 -48.092   9.479  1.00  0.00     0.170 HD
BRANCH  11  14
HETATM   14  C   UNL     1     -40.096 -50.973  11.732  1.00  0.00     0.156 C 
BRANCH  14  15
HETATM   15  C   UNL     1     -41.027 -52.178  11.813  1.00  0.00     0.139 C 
HETATM   16  C   UNL     1     -42.256 -51.871  12.661  1.00  0.00     0.035 C 
HETATM   17  C   UNL     1     -42.525 -53.143  13.434  1.00  0.00     0.029 C 
HETATM   18  C   UNL     1     -41.423 -54.092  13.014  1.00  0.00     0.168 C 
HETATM   19  O   UNL     1     -40.377 -53.281  12.465  1.00  0.00    -0.384 OA
ENDBRANCH  14  15
ENDBRANCH  11  14
ENDBRANCH   4   8
BRANCH   1  20
HETATM   20  N   UNL     1     -42.078 -42.371  11.589  1.00  0.00    -0.362 N 
HETATM   21  C   UNL     1     -43.460 -41.886  11.692  1.00  0.00     0.156 C 
HETATM   22  C   UNL     1     -43.553 -40.877  12.864  1.00  0.00     0.136 C 
HETATM   23  C   UNL     1     -43.507 -41.579  14.222  1.00  0.00     0.041 C 
HETATM   24  O   UNL     1     -42.554 -39.834  12.782  1.00  0.00    -0.378 OA
HETATM   25  C   UNL     1     -41.215 -40.350  12.646  1.00  0.00     0.136 C 
HETATM   26  C   UNL     1     -41.108 -41.283  11.425  1.00  0.00     0.156 C 
HETATM   27  C   UNL     1     -40.259 -39.172  12.513  1.00  0.00     0.041 C 
ENDBRANCH   1  20
TORSDOF 4
ENDMDL
MODEL 5
REMARK VINA RESULT:      -6.1      1.892      8.991
REMARK  4 active torsions:
REMARK  status: ('A' for Active; 'I' for Inactive)
REMARK    1  A    between atoms: N_4  and  C_9 
REMARK    2  A    between atoms: C_12  and  N_13 
REMARK       I    between atoms: N_13  and  C_14 
REMARK       I    between atoms: C_14  and  N_16 
REMARK    3  A    between atoms: N_16  and  C_17 
REMARK    4  A    between atoms: C_17  and  C_18 
ROOT
HETATM    1  C   UNL     1     -40.488 -46.103  11.793  1.00  0.00     0.103 A 
HETATM    2  C   UNL     1     -39.691 -46.967  12.533  1.00  0.00     0.051 A 
HETATM    3  C   UNL     1     -39.718 -48.343  12.307  1.00  0.00     0.035 A 
HETATM    4  C   UNL     1     -40.577 -48.881  11.362  1.00  0.00     0.051 A 
HETATM    5  C   UNL     1     -41.359 -47.966  10.672  1.00  0.00     0.119 A 
HETATM    6  N   UNL     1     -41.331 -46.614  10.866  1.00  0.00    -0.350 N 
ATOM      7  HN  UNL     1     -41.934 -45.999  10.320  1.00  0.00     0.166 HD
ENDROOT
BRANCH   4   8
HETATM    8  N   UNL     1     -40.651 -50.270  11.096  1.00  0.00    -0.308 N 
HETATM    9  C   UNL     1     -41.391 -51.160  11.841  1.00  0.00     0.320 C 
HETATM   10  O   UNL     1     -42.179 -50.868  12.735  1.00  0.00    -0.247 OA
HETATM   11  N   UNL     1     -41.185 -52.477  11.471  1.00  0.00    -0.340 N 
HETATM   12  H   UNL     1     -40.230 -52.706  11.226  1.00  0.00     0.164 HD
HETATM   13  H   UNL     1     -40.323 -50.602  10.200  1.00  0.00     0.170 HD
BRANCH  11  14
HETATM   14  C   UNL     1     -41.863 -53.466  12.298  1.00  0.00     0.156 C 
BRANCH  14  15
HETATM   15  C   UNL     1     -40.963 -54.207  13.280  1.00  0.00     0.139 C 
HETATM   16  C   UNL     1     -41.350 -53.902  14.723  1.00  0.00     0.035 C 
HETATM   17  C   UNL     1     -40.037 -53.811  15.468  1.00  0.00     0.029 C 
HETATM   18  C   UNL     1     -38.976 -54.034  14.413  1.00  0.00     0.168 C 
HETATM   19  O   UNL     1     -39.600 -53.774  13.149  1.00  0.00    -0.384 OA
ENDBRANCH  14  15
ENDBRANCH  11  14
ENDBRANCH   4   8
BRANCH   1  20
HETATM   20  N   UNL     1     -40.480 -44.746  12.034  1.00  0.00    -0.362 N 
HETATM   21  C   UNL     1     -40.385 -43.793  10.921  1.00  0.00     0.156 C 
HETATM   22  C   UNL     1     -41.279 -42.566  11.231  1.00  0.00     0.136 C 
HETATM   23  C   UNL     1     -42.764 -42.890  11.064  1.00  0.00     0.041 C 
HETATM   24  O   UNL     1     -41.012 -41.998  12.534  1.00  0.00    -0.378 OA
HETATM   25  C   UNL     1     -41.081 -42.972  13.595  1.00  0.00     0.136 C 
HETATM   26  C   UNL     1     -40.122 -44.147  13.324  1.00  0.00     0.156 C 
HETATM   27  C   UNL     1     -40.730 -42.278  14.905  1.00  0.00     0.041 C 
ENDBRANCH   1  20
TORSDOF 4
ENDMDL
MODEL 6
REMARK VINA RESULT:      -5.9      1.629      8.945
REMARK  4 active torsions:
REMARK  status: ('A' for Active; 'I' for Inactive)
REMARK    1  A    between atoms: N_4  and  C_9 
REMARK    2  A    between atoms: C_12  and  N_13 
REMARK       I    between atoms: N_13  and  C_14 
REMARK       I    between atoms: C_14  and  N_16 
REMARK    3  A    between atoms: N_16  and  C_17 
REMARK    4  A    between atoms: C_17  and  C_18 
ROOT
HETATM    1  C   UNL     1     -41.580 -47.274  12.143  1.00  0.00     0.103 A 
HETATM    2  C   UNL     1     -42.878 -47.712  12.378  1.00  0.00     0.051 A 
HETATM    3  C   UNL     1     -43.186 -49.071  12.405  1.00  0.00     0.035 A 
HETATM    4  C   UNL     1     -42.204 -50.017  12.157  1.00  0.00     0.051 A 
HETATM    5  C   UNL     1     -40.934 -49.514  11.913  1.00  0.00     0.119 A 
HETATM    6  N   UNL     1     -40.611 -48.187  11.902  1.00  0.00    -0.350 N 
ATOM      7  HN  UNL     1     -39.654 -47.888  11.715  1.00  0.00     0.166 HD
ENDROOT
BRANCH   4   8
HETATM    8  N   UNL     1     -42.462 -51.410  12.166  1.00  0.00    -0.308 N 
HETATM    9  C   UNL     1     -42.448 -52.189  13.300  1.00  0.00     0.320 C 
HETATM   10  O   UNL     1     -42.349 -51.780  14.453  1.00  0.00    -0.247 OA
HETATM   11  N   UNL     1     -42.585 -53.539  13.031  1.00  0.00    -0.340 N 
HETATM   12  H   UNL     1     -42.101 -53.859  12.201  1.00  0.00     0.164 HD
HETATM   13  H   UNL     1     -42.882 -51.822  11.346  1.00  0.00     0.170 HD
BRANCH  11  14
HETATM   14  C   UNL     1     -42.471 -54.416  14.188  1.00  0.00     0.156 C 
BRANCH  14  15
HETATM   15  C   UNL     1     -43.799 -54.884  14.772  1.00  0.00     0.139 C 
HETATM   16  C   UNL     1     -44.898 -54.885  13.716  1.00  0.00     0.035 C 
HETATM   17  C   UNL     1     -46.137 -54.408  14.441  1.00  0.00     0.029 C 
HETATM   18  C   UNL     1     -45.676 -54.131  15.856  1.00  0.00     0.168 C 
HETATM   19  O   UNL     1     -44.251 -53.984  15.796  1.00  0.00    -0.384 OA
ENDBRANCH  14  15
ENDBRANCH  11  14
ENDBRANCH   4   8
BRANCH   1  20
HETATM   20  N   UNL     1     -41.282 -45.930  12.091  1.00  0.00    -0.362 N 
HETATM   21  C   UNL     1     -39.904 -45.465  12.302  1.00  0.00     0.156 C 
HETATM   22  C   UNL     1     -39.623 -44.277  11.348  1.00  0.00     0.136 C 
HETATM   23  C   UNL     1     -39.437 -44.741   9.903  1.00  0.00     0.041 C 
HETATM   24  O   UNL     1     -40.629 -43.241  11.438  1.00  0.00    -0.378 OA
HETATM   25  C   UNL     1     -41.968 -43.743  11.260  1.00  0.00     0.136 C 
HETATM   26  C   UNL     1     -42.273 -44.864  12.272  1.00  0.00     0.156 C 
HETATM   27  C   UNL     1     -42.941 -42.583  11.430  1.00  0.00     0.041 C 
ENDBRANCH   1  20
TORSDOF 4
ENDMDL
MODEL 7
REMARK VINA RESULT:      -5.8      2.036      9.447
REMARK  4 active torsions:
REMARK  status: ('A' for Active; 'I' for Inactive)
REMARK    1  A    between atoms: N_4  and  C_9 
REMARK    2  A    between atoms: C_12  and  N_13 
REMARK       I    between atoms: N_13  and  C_14 
REMARK       I    between atoms: C_14  and  N_16 
REMARK    3  A    between atoms: N_16  and  C_17 
REMARK    4  A    between atoms: C_17  and  C_18 
ROOT
HETATM    1  C   UNL     1     -41.173 -44.524  11.437  1.00  0.00     0.103 A 
HETATM    2  C   UNL     1     -42.112 -45.190  10.659  1.00  0.00     0.051 A 
HETATM    3  C   UNL     1     -42.020 -46.563  10.439  1.00  0.00     0.035 A 
HETATM    4  C   UNL     1     -40.962 -47.288  10.962  1.00  0.00     0.051 A 
HETATM    5  C   UNL     1     -40.050 -46.561  11.714  1.00  0.00     0.119 A 
HETATM    6  N   UNL     1     -40.135 -45.219  11.956  1.00  0.00    -0.350 N 
ATOM      7  HN  UNL     1     -39.427 -44.748  12.520  1.00  0.00     0.166 HD
ENDROOT
BRANCH   4   8
HETATM    8  N   UNL     1     -40.816 -48.683  10.766  1.00  0.00    -0.308 N 
HETATM    9  C   UNL     1     -41.454 -49.640  11.521  1.00  0.00     0.320 C 
HETATM   10  O   UNL     1     -42.323 -49.429  12.362  1.00  0.00    -0.247 OA
HETATM   11  N   UNL     1     -41.037 -50.926  11.230  1.00  0.00    -0.340 N 
HETATM   12  H   UNL     1     -40.047 -51.020  11.041  1.00  0.00     0.164 HD
HETATM   13  H   UNL     1     -40.395 -49.001   9.904  1.00  0.00     0.170 HD
BRANCH  11  14
HETATM   14  C   UNL     1     -41.605 -51.967  12.076  1.00  0.00     0.156 C 
BRANCH  14  15
HETATM   15  C   UNL     1     -40.624 -53.053  12.503  1.00  0.00     0.139 C 
HETATM   16  C   UNL     1     -41.296 -54.081  13.407  1.00  0.00     0.035 C 
HETATM   17  C   UNL     1     -40.252 -54.430  14.444  1.00  0.00     0.029 C 
HETATM   18  C   UNL     1     -39.059 -53.564  14.101  1.00  0.00     0.168 C 
HETATM   19  O   UNL     1     -39.555 -52.496  13.284  1.00  0.00    -0.384 OA
ENDBRANCH  14  15
ENDBRANCH  11  14
ENDBRANCH   4   8
BRANCH   1  20
HETATM   20  N   UNL     1     -41.249 -43.162  11.633  1.00  0.00    -0.362 N 
HETATM   21  C   UNL     1     -42.384 -42.396  11.102  1.00  0.00     0.156 C 
HETATM   22  C   UNL     1     -42.766 -41.292  12.120  1.00  0.00     0.136 C 
HETATM   23  C   UNL     1     -43.492 -41.869  13.336  1.00  0.00     0.041 C 
HETATM   24  O   UNL     1     -41.633 -40.489  12.522  1.00  0.00    -0.378 OA
HETATM   25  C   UNL     1     -40.528 -41.279  13.005  1.00  0.00     0.136 C 
HETATM   26  C   UNL     1     -40.094 -42.315  11.950  1.00  0.00     0.156 C 
HETATM   27  C   UNL     1     -39.379 -40.338  13.344  1.00  0.00     0.041 C 
ENDBRANCH   1  20
TORSDOF 4
ENDMDL
MODEL 8
REMARK VINA RESULT:      -5.7      1.709      9.151
REMARK  4 active torsions:
REMARK  status: ('A' for Active; 'I' for Inactive)
REMARK    1  A    between atoms: N_4  and  C_9 
REMARK    2  A    between atoms: C_12  and  N_13 
REMARK       I    between atoms: N_13  and  C_14 
REMARK       I    between atoms: C_14  and  N_16 
REMARK    3  A    between atoms: N_16  and  C_17 
REMARK    4  A    between atoms: C_17  and  C_18 
ROOT
HETATM    1  C   UNL     1     -41.250 -45.694  12.023  1.00  0.00     0.103 A 
HETATM    2  C   UNL     1     -42.474 -46.281  12.320  1.00  0.00     0.051 A 
HETATM    3  C   UNL     1     -42.682 -47.646  12.133  1.00  0.00     0.035 A 
HETATM    4  C   UNL     1     -41.678 -48.442  11.605  1.00  0.00     0.051 A 
HETATM    5  C   UNL     1     -40.488 -47.792  11.313  1.00  0.00     0.119 A 
HETATM    6  N   UNL     1     -40.260 -46.459  11.508  1.00  0.00    -0.350 N 
ATOM      7  HN  UNL     1     -39.358 -46.047  11.271  1.00  0.00     0.166 HD
ENDROOT
BRANCH   4   8
HETATM    8  N   UNL     1     -41.837 -49.833  11.388  1.00  0.00    -0.308 N 
HETATM    9  C   UNL     1     -41.322 -50.806  12.214  1.00  0.00     0.320 C 
HETATM   10  O   UNL     1     -40.783 -50.616  13.300  1.00  0.00    -0.247 OA
HETATM   11  N   UNL     1     -41.487 -52.084  11.711  1.00  0.00    -0.340 N 
HETATM   12  H   UNL     1     -41.366 -52.167  10.710  1.00  0.00     0.164 HD
HETATM   13  H   UNL     1     -42.533 -50.135  10.722  1.00  0.00     0.170 HD
BRANCH  11  14
HETATM   14  C   UNL     1     -40.865 -53.143  12.496  1.00  0.00     0.156 C 
BRANCH  14  15
HETATM   15  C   UNL     1     -41.826 -54.208  13.012  1.00  0.00     0.139 C 
HETATM   16  C   UNL     1     -43.275 -53.752  12.888  1.00  0.00     0.035 C 
HETATM   17  C   UNL     1     -43.955 -54.267  14.137  1.00  0.00     0.029 C 
HETATM   18  C   UNL     1     -42.858 -54.957  14.919  1.00  0.00     0.168 C 
HETATM   19  O   UNL     1     -41.618 -54.447  14.413  1.00  0.00    -0.384 OA
ENDBRANCH  14  15
ENDBRANCH  11  14
ENDBRANCH   4   8
BRANCH   1  20
HETATM   20  N   UNL     1     -41.053 -44.340  12.183  1.00  0.00    -0.362 N 
HETATM   21  C   UNL     1     -40.894 -43.467  11.013  1.00  0.00     0.156 C 
HETATM   22  C   UNL     1     -41.604 -42.118  11.292  1.00  0.00     0.136 C 
HETATM   23  C   UNL     1     -43.125 -42.250  11.212  1.00  0.00     0.041 C 
HETATM   24  O   UNL     1     -41.197 -41.523  12.546  1.00  0.00    -0.378 OA
HETATM   25  C   UNL     1     -41.335 -42.423  13.664  1.00  0.00     0.136 C 
HETATM   26  C   UNL     1     -40.552 -43.727  13.418  1.00  0.00     0.156 C 
HETATM   27  C   UNL     1     -40.827 -41.715  14.914  1.00  0.00     0.041 C 
ENDBRANCH   1  20
TORSDOF 4
ENDMDL
MODEL 9
REMARK VINA RESULT:      -5.6      1.918      2.160
REMARK  4 active torsions:
REMARK  status: ('A' for Active; 'I' for Inactive)
REMARK    1  A    between atoms: N_4  and  C_9 
REMARK    2  A    between atoms: C_12  and  N_13 
REMARK       I    between atoms: N_13  and  C_14 
REMARK       I    between atoms: C_14  and  N_16 
REMARK    3  A    between atoms: N_16  and  C_17 
REMARK    4  A    between atoms: C_17  and  C_18 
ROOT
HETATM    1  C   UNL     1     -42.039 -50.512  12.413  1.00  0.00     0.103 A 
HETATM    2  C   UNL     1     -42.279 -49.650  13.477  1.00  0.00     0.051 A 
HETATM    3  C   UNL     1     -42.164 -48.270  13.324  1.00  0.00     0.035 A 
HETATM    4  C   UNL     1     -41.766 -47.729  12.112  1.00  0.00     0.051 A 
HETATM    5  C   UNL     1     -41.524 -48.644  11.097  1.00  0.00     0.119 A 
HETATM    6  N   UNL     1     -41.652 -49.999  11.223  1.00  0.00    -0.350 N 
ATOM      7  HN  UNL     1     -41.458 -50.614  10.433  1.00  0.00     0.166 HD
ENDROOT
BRANCH   4   8
HETATM    8  N   UNL     1     -41.626 -46.335  11.903  1.00  0.00    -0.308 N 
HETATM    9  C   UNL     1     -40.549 -45.594  12.333  1.00  0.00     0.320 C 
HETATM   10  O   UNL     1     -39.519 -46.043  12.827  1.00  0.00    -0.247 OA
HETATM   11  N   UNL     1     -40.715 -44.235  12.136  1.00  0.00    -0.340 N 
HETATM   12  H   UNL     1     -41.652 -43.892  12.302  1.00  0.00     0.164 HD
HETATM   13  H   UNL     1     -42.232 -45.892  11.227  1.00  0.00     0.170 HD
BRANCH  11  14
HETATM   14  C   UNL     1     -39.649 -43.398  12.671  1.00  0.00     0.156 C 
BRANCH  14  15
HETATM   15  C   UNL     1     -40.083 -42.001  13.098  1.00  0.00     0.139 C 
HETATM   16  C   UNL     1     -40.856 -41.299  11.988  1.00  0.00     0.035 C 
HETATM   17  C   UNL     1     -40.406 -39.856  12.050  1.00  0.00     0.029 C 
HETATM   18  C   UNL     1     -39.380 -39.818  13.163  1.00  0.00     0.168 C 
HETATM   19  O   UNL     1     -38.941 -41.168  13.356  1.00  0.00    -0.384 OA
ENDBRANCH  14  15
ENDBRANCH  11  14
ENDBRANCH   4   8
BRANCH   1  20
HETATM   20  N   UNL     1     -42.128 -51.878  12.571  1.00  0.00    -0.362 N 
HETATM   21  C   UNL     1     -40.998 -52.744  12.212  1.00  0.00     0.156 C 
HETATM   22  C   UNL     1     -40.902 -53.899  13.240  1.00  0.00     0.136 C 
HETATM   23  C   UNL     1     -40.344 -53.421  14.581  1.00  0.00     0.041 C 
HETATM   24  O   UNL     1     -42.160 -54.592  13.417  1.00  0.00    -0.378 OA
HETATM   25  C   UNL     1     -43.250 -53.704  13.734  1.00  0.00     0.136 C 
HETATM   26  C   UNL     1     -43.396 -52.611  12.659  1.00  0.00     0.156 C 
HETATM   27  C   UNL     1     -44.525 -54.532  13.841  1.00  0.00     0.041 C 
ENDBRANCH   1  20
TORSDOF 4
ENDMDL
