MODEL 1
REMARK VINA RESULT:      -6.3      0.000      0.000
REMARK  5 active torsions:
REMARK  status: ('A' for Active; 'I' for Inactive)
REMARK    1  A    between atoms: N_1  and  C_7 
REMARK    2  A    between atoms: N_2  and  C_8 
REMARK    3  A    between atoms: C_7  and  C_11 
REMARK    4  A    between atoms: C_11  and  C_14 
REMARK    5  A    between atoms: C_11  and  O_15 
ROOT
HETATM    1  N   UNL     1     -41.571 -53.627  13.918  1.00  0.00    -0.261 N 
HETATM    2  N   UNL     1     -39.987 -51.935  13.529  1.00  0.00    -0.279 N 
HETATM    3  C   UNL     1     -41.306 -52.360  13.404  1.00  0.00     0.333 C 
HETATM    4  C   UNL     1     -40.845 -54.142  14.988  1.00  0.00     0.291 C 
HETATM    5  C   UNL     1     -39.555 -53.459  15.268  1.00  0.00     0.200 C 
HETATM    6  C   UNL     1     -39.157 -52.448  14.500  1.00  0.00     0.146 C 
HETATM    7  O   UNL     1     -42.173 -51.645  12.895  1.00  0.00    -0.246 OA
HETATM    8  O   UNL     1     -41.205 -55.084  15.683  1.00  0.00    -0.264 OA
HETATM    9  F   UNL     1     -38.791 -53.958  16.256  1.00  0.00    -0.199 F 
ENDROOT
BRANCH   1  10
HETATM   10  C   UNL     1     -42.826 -54.297  13.545  1.00  0.00     0.169 C 
BRANCH  10  11
HETATM   11  C   UNL     1     -44.043 -53.970  14.471  1.00  0.00     0.140 C 
BRANCH  11  12
HETATM   12  C   UNL     1     -45.405 -53.948  13.721  1.00  0.00     0.016 C 
HETATM   13  C   UNL     1     -45.550 -52.804  12.708  1.00  0.00     0.007 C 
HETATM   14  C   UNL     1     -45.647 -51.438  13.385  1.00  0.00     0.000 C 
HETATM   15  C   UNL     1     -46.783 -51.390  14.405  1.00  0.00     0.000 C 
HETATM   16  C   UNL     1     -46.729 -52.547  15.399  1.00  0.00     0.000 C 
HETATM   17  C   UNL     1     -46.613 -53.895  14.688  1.00  0.00     0.007 C 
ENDBRANCH  11  12
BRANCH  11  18
HETATM   18  O   UNL     1     -44.185 -54.919  15.531  1.00  0.00    -0.394 OA
HETATM   19  H   UNL     1     -43.580 -54.677  16.260  1.00  0.00     0.210 HD
ENDBRANCH  11  18
ENDBRANCH  10  11
ENDBRANCH   1  10
BRANCH   2  20
HETATM   20  C   UNL     1     -39.504 -50.994  12.535  1.00  0.00     0.232 C 
HETATM   21  O   UNL     1     -38.160 -51.334  12.136  1.00  0.00    -0.366 OA
HETATM   22  C   UNL     1     -37.513 -50.127  11.706  1.00  0.00     0.170 C 
HETATM   23  C   UNL     1     -38.509 -48.996  11.876  1.00  0.00     0.031 C 
HETATM   24  C   UNL     1     -39.441 -49.533  12.941  1.00  0.00     0.056 C 
ENDBRANCH   2  20
TORSDOF 5
ENDMDL
MODEL 2
REMARK VINA RESULT:      -6.1      1.825      6.337
REMARK  5 active torsions:
REMARK  status: ('A' for Active; 'I' for Inactive)
REMARK    1  A    between atoms: N_1  and  C_7 
REMARK    2  A    between atoms: N_2  and  C_8 
REMARK    3  A    between atoms: C_7  and  C_11 
REMARK    4  A    between atoms: C_11  and  C_14 
REMARK    5  A    between atoms: C_11  and  O_15 
ROOT
HETATM    1  N   UNL     1     -41.117 -52.878  12.933  1.00  0.00    -0.261 N 
HETATM    2  N   UNL     1     -42.939 -53.845  14.061  1.00  0.00    -0.279 N 
HETATM    3  C   UNL     1     -42.464 -53.232  12.905  1.00  0.00     0.333 C 
HETATM    4  C   UNL     1     -40.194 -53.596  13.686  1.00  0.00     0.291 C 
HETATM    5  C   UNL     1     -40.775 -54.471  14.737  1.00  0.00     0.200 C 
HETATM    6  C   UNL     1     -42.092 -54.506  14.921  1.00  0.00     0.146 C 
HETATM    7  O   UNL     1     -43.189 -53.047  11.924  1.00  0.00    -0.246 OA
HETATM    8  O   UNL     1     -38.980 -53.550  13.526  1.00  0.00    -0.264 OA
HETATM    9  F   UNL     1     -39.918 -55.141  15.530  1.00  0.00    -0.199 F 
ENDROOT
BRANCH   1  10
HETATM   10  C   UNL     1     -40.608 -51.943  11.918  1.00  0.00     0.169 C 
BRANCH  10  11
HETATM   11  C   UNL     1     -40.908 -50.436  12.204  1.00  0.00     0.140 C 
BRANCH  11  12
HETATM   12  C   UNL     1     -39.888 -49.465  11.546  1.00  0.00     0.016 C 
HETATM   13  C   UNL     1     -38.426 -49.919  11.648  1.00  0.00     0.007 C 
HETATM   14  C   UNL     1     -37.897 -49.861  13.080  1.00  0.00     0.000 C 
HETATM   15  C   UNL     1     -38.062 -48.471  13.689  1.00  0.00     0.000 C 
HETATM   16  C   UNL     1     -39.485 -47.936  13.555  1.00  0.00     0.000 C 
HETATM   17  C   UNL     1     -39.989 -48.028  12.115  1.00  0.00     0.007 C 
ENDBRANCH  11  12
BRANCH  11  18
HETATM   18  O   UNL     1     -42.199 -50.043  11.730  1.00  0.00    -0.394 OA
HETATM   19  H   UNL     1     -42.136 -49.820  10.780  1.00  0.00     0.210 HD
ENDBRANCH  11  18
ENDBRANCH  10  11
ENDBRANCH   1  10
BRANCH   2  20
HETATM   20  C   UNL     1     -44.349 -53.677  14.360  1.00  0.00     0.232 C 
HETATM   21  O   UNL     1     -44.538 -53.465  15.774  1.00  0.00    -0.366 OA
HETATM   22  C   UNL     1     -45.852 -53.933  16.115  1.00  0.00     0.170 C 
HETATM   23  C   UNL     1     -46.479 -54.478  14.846  1.00  0.00     0.031 C 
HETATM   24  C   UNL     1     -45.272 -54.827  14.003  1.00  0.00     0.056 C 
ENDBRANCH   2  20
TORSDOF 5
ENDMDL
MODEL 3
REMARK VINA RESULT:      -6.0      2.158      2.640
REMARK  5 active torsions:
REMARK  status: ('A' for Active; 'I' for Inactive)
REMARK    1  A    between atoms: N_1  and  C_7 
REMARK    2  A    between atoms: N_2  and  C_8 
REMARK    3  A    between atoms: C_7  and  C_11 
REMARK    4  A    between atoms: C_11  and  C_14 
REMARK    5  A    between atoms: C_11  and  O_15 
ROOT
HETATM    1  N   UNL     1     -41.675 -51.747  12.528  1.00  0.00    -0.261 N 
HETATM    2  N   UNL     1     -40.855 -49.566  12.843  1.00  0.00    -0.279 N 
HETATM    3  C   UNL     1     -41.957 -50.417  12.828  1.00  0.00     0.333 C 
HETATM    4  C   UNL     1     -40.447 -52.317  12.849  1.00  0.00     0.291 C 
HETATM    5  C   UNL     1     -39.356 -51.353  13.143  1.00  0.00     0.200 C 
HETATM    6  C   UNL     1     -39.584 -50.045  13.063  1.00  0.00     0.146 C 
HETATM    7  O   UNL     1     -43.093 -50.012  13.090  1.00  0.00    -0.246 OA
HETATM    8  O   UNL     1     -40.234 -53.523  12.906  1.00  0.00    -0.264 OA
HETATM    9  F   UNL     1     -38.135 -51.858  13.401  1.00  0.00    -0.199 F 
ENDROOT
BRANCH   1  10
HETATM   10  C   UNL     1     -42.782 -52.643  12.164  1.00  0.00     0.169 C 
BRANCH  10  11
HETATM   11  C   UNL     1     -43.588 -53.217  13.374  1.00  0.00     0.140 C 
BRANCH  11  12
HETATM   12  C   UNL     1     -45.046 -53.619  13.015  1.00  0.00     0.016 C 
HETATM   13  C   UNL     1     -45.939 -52.446  12.589  1.00  0.00     0.007 C 
HETATM   14  C   UNL     1     -46.248 -51.500  13.748  1.00  0.00     0.000 C 
HETATM   15  C   UNL     1     -46.873 -52.237  14.930  1.00  0.00     0.000 C 
HETATM   16  C   UNL     1     -46.061 -53.458  15.355  1.00  0.00     0.000 C 
HETATM   17  C   UNL     1     -45.754 -54.371  14.169  1.00  0.00     0.007 C 
ENDBRANCH  11  12
BRANCH  11  18
HETATM   18  O   UNL     1     -42.975 -54.385  13.927  1.00  0.00    -0.394 OA
HETATM   19  H   UNL     1     -42.107 -54.524  13.496  1.00  0.00     0.210 HD
ENDBRANCH  11  18
ENDBRANCH  10  11
ENDBRANCH   1  10
BRANCH   2  20
HETATM   20  C   UNL     1     -41.100 -48.171  12.527  1.00  0.00     0.232 C 
HETATM   21  O   UNL     1     -41.232 -47.997  11.102  1.00  0.00    -0.366 OA
HETATM   22  C   UNL     1     -40.833 -46.654  10.786  1.00  0.00     0.170 C 
HETATM   23  C   UNL     1     -40.416 -45.991  12.085  1.00  0.00     0.031 C 
HETATM   24  C   UNL     1     -40.041 -47.172  12.954  1.00  0.00     0.056 C 
ENDBRANCH   2  20
TORSDOF 5
ENDMDL
MODEL 4
REMARK VINA RESULT:      -5.9      2.632      4.702
REMARK  5 active torsions:
REMARK  status: ('A' for Active; 'I' for Inactive)
REMARK    1  A    between atoms: N_1  and  C_7 
REMARK    2  A    between atoms: N_2  and  C_8 
REMARK    3  A    between atoms: C_7  and  C_11 
REMARK    4  A    between atoms: C_11  and  C_14 
REMARK    5  A    between atoms: C_11  and  O_15 
ROOT
HETATM    1  N   UNL     1     -43.227 -54.020  13.824  1.00  0.00    -0.261 N 
HETATM    2  N   UNL     1     -41.781 -54.865  15.474  1.00  0.00    -0.279 N 
HETATM    3  C   UNL     1     -42.973 -55.009  14.772  1.00  0.00     0.333 C 
HETATM    4  C   UNL     1     -42.192 -53.359  13.172  1.00  0.00     0.291 C 
HETATM    5  C   UNL     1     -40.858 -53.475  13.816  1.00  0.00     0.200 C 
HETATM    6  C   UNL     1     -40.725 -54.152  14.952  1.00  0.00     0.146 C 
HETATM    7  O   UNL     1     -43.729 -55.965  14.966  1.00  0.00    -0.246 OA
HETATM    8  O   UNL     1     -42.320 -52.722  12.133  1.00  0.00    -0.264 OA
HETATM    9  F   UNL     1     -39.837 -52.804  13.252  1.00  0.00    -0.199 F 
ENDROOT
BRANCH   1  10
HETATM   10  C   UNL     1     -44.586 -53.894  13.276  1.00  0.00     0.169 C 
BRANCH  10  11
HETATM   11  C   UNL     1     -45.654 -53.363  14.286  1.00  0.00     0.140 C 
BRANCH  11  12
HETATM   12  C   UNL     1     -46.038 -51.874  14.058  1.00  0.00     0.016 C 
HETATM   13  C   UNL     1     -44.843 -50.912  14.018  1.00  0.00     0.007 C 
HETATM   14  C   UNL     1     -44.172 -50.762  15.382  1.00  0.00     0.000 C 
HETATM   15  C   UNL     1     -45.164 -50.327  16.458  1.00  0.00     0.000 C 
HETATM   16  C   UNL     1     -46.410 -51.210  16.498  1.00  0.00     0.000 C 
HETATM   17  C   UNL     1     -47.043 -51.353  15.114  1.00  0.00     0.007 C 
ENDBRANCH  11  12
BRANCH  11  18
HETATM   18  O   UNL     1     -46.875 -54.106  14.222  1.00  0.00    -0.394 OA
HETATM   19  H   UNL     1     -47.342 -54.027  15.078  1.00  0.00     0.210 HD
ENDBRANCH  11  18
ENDBRANCH  10  11
ENDBRANCH   1  10
BRANCH   2  20
HETATM   20  C   UNL     1     -41.736 -55.422  16.813  1.00  0.00     0.232 C 
HETATM   21  O   UNL     1     -41.225 -54.446  17.744  1.00  0.00    -0.366 OA
HETATM   22  C   UNL     1     -40.608 -55.157  18.828  1.00  0.00     0.170 C 
HETATM   23  C   UNL     1     -40.732 -56.638  18.525  1.00  0.00     0.031 C 
HETATM   24  C   UNL     1     -40.878 -56.656  17.018  1.00  0.00     0.056 C 
ENDBRANCH   2  20
TORSDOF 5
ENDMDL
MODEL 5
REMARK VINA RESULT:      -5.6      2.168      4.143
REMARK  5 active torsions:
REMARK  status: ('A' for Active; 'I' for Inactive)
REMARK    1  A    between atoms: N_1  and  C_7 
REMARK    2  A    between atoms: N_2  and  C_8 
REMARK    3  A    between atoms: C_7  and  C_11 
REMARK    4  A    between atoms: C_11  and  C_14 
REMARK    5  A    between atoms: C_11  and  O_15 
ROOT
HETATM    1  N   UNL     1     -41.387 -52.358  13.260  1.00  0.00    -0.261 N 
HETATM    2  N   UNL     1     -39.905 -53.634  14.565  1.00  0.00    -0.279 N 
HETATM    3  C   UNL     1     -40.762 -53.585  13.469  1.00  0.00     0.333 C 
HETATM    4  C   UNL     1     -40.781 -51.163  13.636  1.00  0.00     0.291 C 
HETATM    5  C   UNL     1     -39.663 -51.295  14.606  1.00  0.00     0.200 C 
HETATM    6  C   UNL     1     -39.324 -52.494  15.071  1.00  0.00     0.146 C 
HETATM    7  O   UNL     1     -40.926 -54.559  12.730  1.00  0.00    -0.246 OA
HETATM    8  O   UNL     1     -41.106 -50.058  13.219  1.00  0.00    -0.264 OA
HETATM    9  F   UNL     1     -39.085 -50.161  15.043  1.00  0.00    -0.199 F 
ENDROOT
BRANCH   1  10
HETATM   10  C   UNL     1     -42.542 -52.295  12.352  1.00  0.00     0.169 C 
BRANCH  10  11
HETATM   11  C   UNL     1     -43.928 -52.529  13.036  1.00  0.00     0.140 C 
BRANCH  11  12
HETATM   12  C   UNL     1     -44.740 -51.221  13.254  1.00  0.00     0.016 C 
HETATM   13  C   UNL     1     -44.345 -50.433  14.510  1.00  0.00     0.007 C 
HETATM   14  C   UNL     1     -44.738 -51.155  15.797  1.00  0.00     0.000 C 
HETATM   15  C   UNL     1     -46.228 -51.488  15.829  1.00  0.00     0.000 C 
HETATM   16  C   UNL     1     -46.694 -52.214  14.569  1.00  0.00     0.000 C 
HETATM   17  C   UNL     1     -46.267 -51.474  13.302  1.00  0.00     0.007 C 
ENDBRANCH  11  12
BRANCH  11  18
HETATM   18  O   UNL     1     -44.767 -53.400  12.274  1.00  0.00    -0.394 OA
HETATM   19  H   UNL     1     -44.267 -53.729  11.500  1.00  0.00     0.210 HD
ENDBRANCH  11  18
ENDBRANCH  10  11
ENDBRANCH   1  10
BRANCH   2  20
HETATM   20  C   UNL     1     -39.726 -54.927  15.200  1.00  0.00     0.232 C 
HETATM   21  O   UNL     1     -40.876 -55.249  16.009  1.00  0.00    -0.366 OA
HETATM   22  C   UNL     1     -40.439 -56.123  17.062  1.00  0.00     0.170 C 
HETATM   23  C   UNL     1     -38.945 -56.318  16.894  1.00  0.00     0.031 C 
HETATM   24  C   UNL     1     -38.533 -55.081  16.125  1.00  0.00     0.056 C 
ENDBRANCH   2  20
TORSDOF 5
ENDMDL
MODEL 6
REMARK VINA RESULT:      -5.5      2.582      3.467
REMARK  5 active torsions:
REMARK  status: ('A' for Active; 'I' for Inactive)
REMARK    1  A    between atoms: N_1  and  C_7 
REMARK    2  A    between atoms: N_2  and  C_8 
REMARK    3  A    between atoms: C_7  and  C_11 
REMARK    4  A    between atoms: C_11  and  C_14 
REMARK    5  A    between atoms: C_11  and  O_15 
ROOT
HETATM    1  N   UNL     1     -41.808 -51.234  12.944  1.00  0.00    -0.261 N 
HETATM    2  N   UNL     1     -39.868 -50.303  13.891  1.00  0.00    -0.279 N 
HETATM    3  C   UNL     1     -40.423 -51.290  13.081  1.00  0.00     0.333 C 
HETATM    4  C   UNL     1     -42.496 -50.027  13.023  1.00  0.00     0.291 C 
HETATM    5  C   UNL     1     -41.745 -48.907  13.646  1.00  0.00     0.200 C 
HETATM    6  C   UNL     1     -40.513 -49.106  14.106  1.00  0.00     0.146 C 
HETATM    7  O   UNL     1     -39.723 -52.131  12.511  1.00  0.00    -0.246 OA
HETATM    8  O   UNL     1     -43.637 -49.850  12.614  1.00  0.00    -0.264 OA
HETATM    9  F   UNL     1     -42.390 -47.736  13.797  1.00  0.00    -0.199 F 
ENDROOT
BRANCH   1  10
HETATM   10  C   UNL     1     -42.515 -52.401  12.396  1.00  0.00     0.169 C 
BRANCH  10  11
HETATM   11  C   UNL     1     -43.320 -53.233  13.446  1.00  0.00     0.140 C 
BRANCH  11  12
HETATM   12  C   UNL     1     -44.666 -53.787  12.899  1.00  0.00     0.016 C 
HETATM   13  C   UNL     1     -45.687 -52.706  12.518  1.00  0.00     0.007 C 
HETATM   14  C   UNL     1     -46.231 -51.965  13.738  1.00  0.00     0.000 C 
HETATM   15  C   UNL     1     -46.834 -52.925  14.762  1.00  0.00     0.000 C 
HETATM   16  C   UNL     1     -45.886 -54.064  15.128  1.00  0.00     0.000 C 
HETATM   17  C   UNL     1     -45.346 -54.769  13.884  1.00  0.00     0.007 C 
ENDBRANCH  11  12
BRANCH  11  18
HETATM   18  O   UNL     1     -42.584 -54.364  13.919  1.00  0.00    -0.394 OA
HETATM   19  H   UNL     1     -42.835 -55.150  13.394  1.00  0.00     0.210 HD
ENDBRANCH  11  18
ENDBRANCH  10  11
ENDBRANCH   1  10
BRANCH   2  20
HETATM   20  C   UNL     1     -38.626 -50.631  14.566  1.00  0.00     0.232 C 
HETATM   21  O   UNL     1     -38.854 -50.790  15.982  1.00  0.00    -0.366 OA
HETATM   22  C   UNL     1     -37.629 -50.473  16.661  1.00  0.00     0.170 C 
HETATM   23  C   UNL     1     -36.616 -50.080  15.602  1.00  0.00     0.031 C 
HETATM   24  C   UNL     1     -37.495 -49.626  14.455  1.00  0.00     0.056 C 
ENDBRANCH   2  20
TORSDOF 5
ENDMDL
MODEL 7
REMARK VINA RESULT:      -5.4      1.861      5.856
REMARK  5 active torsions:
REMARK  status: ('A' for Active; 'I' for Inactive)
REMARK    1  A    between atoms: N_1  and  C_7 
REMARK    2  A    between atoms: N_2  and  C_8 
REMARK    3  A    between atoms: C_7  and  C_11 
REMARK    4  A    between atoms: C_11  and  C_14 
REMARK    5  A    between atoms: C_11  and  O_15 
ROOT
HETATM    1  N   UNL     1     -42.083 -54.181  14.157  1.00  0.00    -0.261 N 
HETATM    2  N   UNL     1     -44.225 -54.006  15.109  1.00  0.00    -0.279 N 
HETATM    3  C   UNL     1     -43.462 -54.173  13.958  1.00  0.00     0.333 C 
HETATM    4  C   UNL     1     -41.526 -54.631  15.349  1.00  0.00     0.291 C 
HETATM    5  C   UNL     1     -42.464 -54.710  16.499  1.00  0.00     0.200 C 
HETATM    6  C   UNL     1     -43.731 -54.337  16.350  1.00  0.00     0.146 C 
HETATM    7  O   UNL     1     -43.983 -54.329  12.850  1.00  0.00    -0.246 OA
HETATM    8  O   UNL     1     -40.353 -54.958  15.488  1.00  0.00    -0.264 OA
HETATM    9  F   UNL     1     -41.956 -55.084  17.688  1.00  0.00    -0.199 F 
ENDROOT
BRANCH   1  10
HETATM   10  C   UNL     1     -41.197 -54.018  12.994  1.00  0.00     0.169 C 
BRANCH  10  11
HETATM   11  C   UNL     1     -41.117 -52.563  12.430  1.00  0.00     0.140 C 
BRANCH  11  12
HETATM   12  C   UNL     1     -39.777 -51.844  12.756  1.00  0.00     0.016 C 
HETATM   13  C   UNL     1     -39.479 -51.712  14.256  1.00  0.00     0.007 C 
HETATM   14  C   UNL     1     -40.428 -50.740  14.953  1.00  0.00     0.000 C 
HETATM   15  C   UNL     1     -40.420 -49.365  14.290  1.00  0.00     0.000 C 
HETATM   16  C   UNL     1     -40.643 -49.440  12.782  1.00  0.00     0.000 C 
HETATM   17  C   UNL     1     -39.691 -50.435  12.120  1.00  0.00     0.007 C 
ENDBRANCH  11  12
BRANCH  11  18
HETATM   18  O   UNL     1     -41.255 -52.526  11.007  1.00  0.00    -0.394 OA
HETATM   19  H   UNL     1     -41.013 -51.634  10.686  1.00  0.00     0.210 HD
ENDBRANCH  11  18
ENDBRANCH  10  11
ENDBRANCH   1  10
BRANCH   2  20
HETATM   20  C   UNL     1     -45.527 -53.384  14.948  1.00  0.00     0.232 C 
HETATM   21  O   UNL     1     -45.406 -52.157  14.199  1.00  0.00    -0.366 OA
HETATM   22  C   UNL     1     -46.484 -51.295  14.594  1.00  0.00     0.170 C 
HETATM   23  C   UNL     1     -47.283 -52.030  15.653  1.00  0.00     0.031 C 
HETATM   24  C   UNL     1     -46.271 -53.005  16.215  1.00  0.00     0.056 C 
ENDBRANCH   2  20
TORSDOF 5
ENDMDL
MODEL 8
REMARK VINA RESULT:      -5.3      3.490      5.576
REMARK  5 active torsions:
REMARK  status: ('A' for Active; 'I' for Inactive)
REMARK    1  A    between atoms: N_1  and  C_7 
REMARK    2  A    between atoms: N_2  and  C_8 
REMARK    3  A    between atoms: C_7  and  C_11 
REMARK    4  A    between atoms: C_11  and  C_14 
REMARK    5  A    between atoms: C_11  and  O_15 
ROOT
HETATM    1  N   UNL     1     -38.988 -49.411  12.527  1.00  0.00    -0.261 N 
HETATM    2  N   UNL     1     -37.521 -49.301  14.360  1.00  0.00    -0.279 N 
HETATM    3  C   UNL     1     -37.857 -49.920  13.160  1.00  0.00     0.333 C 
HETATM    4  C   UNL     1     -39.361 -48.078  12.671  1.00  0.00     0.291 C 
HETATM    5  C   UNL     1     -38.743 -47.366  13.819  1.00  0.00     0.200 C 
HETATM    6  C   UNL     1     -37.919 -48.013  14.637  1.00  0.00     0.146 C 
HETATM    7  O   UNL     1     -37.177 -50.836  12.689  1.00  0.00    -0.246 OA
HETATM    8  O   UNL     1     -40.133 -47.488  11.925  1.00  0.00    -0.264 OA
HETATM    9  F   UNL     1     -39.118 -46.091  14.032  1.00  0.00    -0.199 F 
ENDROOT
BRANCH   1  10
HETATM   10  C   UNL     1     -39.612 -50.193  11.449  1.00  0.00     0.169 C 
BRANCH  10  11
HETATM   11  C   UNL     1     -41.000 -50.815  11.808  1.00  0.00     0.140 C 
BRANCH  11  12
HETATM   12  C   UNL     1     -41.098 -51.305  13.280  1.00  0.00     0.016 C 
HETATM   13  C   UNL     1     -40.283 -52.570  13.582  1.00  0.00     0.007 C 
HETATM   14  C   UNL     1     -40.858 -53.808  12.897  1.00  0.00     0.000 C 
HETATM   15  C   UNL     1     -42.325 -54.027  13.258  1.00  0.00     0.000 C 
HETATM   16  C   UNL     1     -43.175 -52.776  13.044  1.00  0.00     0.000 C 
HETATM   17  C   UNL     1     -42.560 -51.554  13.725  1.00  0.00     0.007 C 
ENDBRANCH  11  12
BRANCH  11  18
HETATM   18  O   UNL     1     -42.072 -49.888  11.622  1.00  0.00    -0.394 OA
HETATM   19  H   UNL     1     -42.911 -50.311  11.894  1.00  0.00     0.210 HD
ENDBRANCH  11  18
ENDBRANCH  10  11
ENDBRANCH   1  10
BRANCH   2  20
HETATM   20  C   UNL     1     -36.812 -50.107  15.337  1.00  0.00     0.232 C 
HETATM   21  O   UNL     1     -37.748 -50.776  16.207  1.00  0.00    -0.366 OA
HETATM   22  C   UNL     1     -37.093 -51.003  17.464  1.00  0.00     0.170 C 
HETATM   23  C   UNL     1     -35.697 -50.419  17.356  1.00  0.00     0.031 C 
HETATM   24  C   UNL     1     -35.856 -49.382  16.265  1.00  0.00     0.056 C 
ENDBRANCH   2  20
TORSDOF 5
ENDMDL
MODEL 9
REMARK VINA RESULT:      -5.2      2.135      4.308
REMARK  5 active torsions:
REMARK  status: ('A' for Active; 'I' for Inactive)
REMARK    1  A    between atoms: N_1  and  C_7 
REMARK    2  A    between atoms: N_2  and  C_8 
REMARK    3  A    between atoms: C_7  and  C_11 
REMARK    4  A    between atoms: C_11  and  C_14 
REMARK    5  A    between atoms: C_11  and  O_15 
ROOT
HETATM    1  N   UNL     1     -41.533 -53.900  14.031  1.00  0.00    -0.261 N 
HETATM    2  N   UNL     1     -40.323 -53.946  16.046  1.00  0.00    -0.279 N 
HETATM    3  C   UNL     1     -41.340 -54.499  15.274  1.00  0.00     0.333 C 
HETATM    4  C   UNL     1     -40.483 -53.297  13.346  1.00  0.00     0.291 C 
HETATM    5  C   UNL     1     -39.286 -52.982  14.168  1.00  0.00     0.200 C 
HETATM    6  C   UNL     1     -39.283 -53.252  15.470  1.00  0.00     0.146 C 
HETATM    7  O   UNL     1     -41.998 -55.467  15.664  1.00  0.00    -0.246 OA
HETATM    8  O   UNL     1     -40.494 -53.034  12.149  1.00  0.00    -0.264 OA
HETATM    9  F   UNL     1     -38.267 -52.345  13.561  1.00  0.00    -0.199 F 
ENDROOT
BRANCH   1  10
HETATM   10  C   UNL     1     -42.774 -54.181  13.292  1.00  0.00     0.169 C 
BRANCH  10  11
HETATM   11  C   UNL     1     -43.777 -52.985  13.215  1.00  0.00     0.140 C 
BRANCH  11  12
HETATM   12  C   UNL     1     -44.099 -52.355  14.599  1.00  0.00     0.016 C 
HETATM   13  C   UNL     1     -44.764 -53.317  15.593  1.00  0.00     0.007 C 
HETATM   14  C   UNL     1     -46.187 -53.686  15.181  1.00  0.00     0.000 C 
HETATM   15  C   UNL     1     -47.059 -52.448  14.980  1.00  0.00     0.000 C 
HETATM   16  C   UNL     1     -46.414 -51.421  14.052  1.00  0.00     0.000 C 
HETATM   17  C   UNL     1     -44.985 -51.091  14.482  1.00  0.00     0.007 C 
ENDBRANCH  11  12
BRANCH  11  18
HETATM   18  O   UNL     1     -43.287 -51.921  12.395  1.00  0.00    -0.394 OA
HETATM   19  H   UNL     1     -42.969 -51.196  12.969  1.00  0.00     0.210 HD
ENDBRANCH  11  18
ENDBRANCH  10  11
ENDBRANCH   1  10
BRANCH   2  20
HETATM   20  C   UNL     1     -40.458 -54.058  17.487  1.00  0.00     0.232 C 
HETATM   21  O   UNL     1     -41.384 -53.069  17.980  1.00  0.00    -0.366 OA
HETATM   22  C   UNL     1     -41.026 -52.773  19.339  1.00  0.00     0.170 C 
HETATM   23  C   UNL     1     -39.807 -53.610  19.675  1.00  0.00     0.031 C 
HETATM   24  C   UNL     1     -39.200 -53.873  18.313  1.00  0.00     0.056 C 
ENDBRANCH   2  20
TORSDOF 5
ENDMDL
