MODEL 1
REMARK VINA RESULT:      -5.3      0.000      0.000
REMARK  4 active torsions:
REMARK  status: ('A' for Active; 'I' for Inactive)
REMARK    1  A    between atoms: C_2  and  C_3 
REMARK    2  A    between atoms: C_3  and  O_4 
REMARK    3  A    between atoms: C_3  and  C_5 
REMARK    4  A    between atoms: C_5  and  N_6 
ROOT
HETATM    1  N   UNL     1     -44.576 -54.201  13.520  1.00  0.00    -0.271 N 
HETATM    2  N   UNL     1     -44.665 -53.557  12.341  1.00  0.00    -0.019 NA
HETATM    3  N   UNL     1     -43.435 -53.244  11.959  1.00  0.00    -0.282 N 
ATOM      4  HN  UNL     1     -43.180 -52.769  11.093  1.00  0.00     0.184 HD
HETATM    5  C   UNL     1     -42.569 -53.670  12.926  1.00  0.00     0.075 A 
HETATM    6  C   UNL     1     -41.173 -53.583  12.996  1.00  0.00     0.058 A 
HETATM    7  C   UNL     1     -40.526 -54.098  14.126  1.00  0.00     0.058 A 
HETATM    8 CL   UNL     1     -38.802 -53.972  14.172  1.00  0.00    -0.082 Cl
HETATM    9  C   UNL     1     -41.260 -54.688  15.167  1.00  0.00     0.058 A 
HETATM   10 CL   UNL     1     -40.495 -55.318  16.586  1.00  0.00    -0.082 Cl
HETATM   11  C   UNL     1     -42.659 -54.793  15.100  1.00  0.00     0.058 A 
HETATM   12  C   UNL     1     -43.279 -54.272  13.960  1.00  0.00     0.078 A 
ENDROOT
BRANCH   1  13
HETATM   13  C   UNL     1     -45.762 -54.763  14.118  1.00  0.00     0.178 C 
BRANCH  13  14
HETATM   14  C   UNL     1     -46.777 -53.709  14.583  1.00  0.00     0.137 C 
BRANCH  14  15
HETATM   15  C   UNL     1     -46.234 -52.816  15.709  1.00  0.00     0.029 C 
HETATM   16  C   UNL     1     -46.219 -51.342  15.326  1.00  0.00     0.007 C 
ENDBRANCH  14  15
BRANCH  14  17
HETATM   17  O   UNL     1     -47.148 -52.898  13.462  1.00  0.00    -0.394 OA
HETATM   18  H   UNL     1     -46.469 -52.215  13.326  1.00  0.00     0.210 HD
ENDBRANCH  14  17
ENDBRANCH  13  14
ENDBRANCH   1  13
TORSDOF 4
ENDMDL
MODEL 2
REMARK VINA RESULT:      -5.2      4.363      5.028
REMARK  4 active torsions:
REMARK  status: ('A' for Active; 'I' for Inactive)
REMARK    1  A    between atoms: C_2  and  C_3 
REMARK    2  A    between atoms: C_3  and  O_4 
REMARK    3  A    between atoms: C_3  and  C_5 
REMARK    4  A    between atoms: C_5  and  N_6 
ROOT
HETATM    1  N   UNL     1     -42.692 -51.741  12.896  1.00  0.00    -0.271 N 
HETATM    2  N   UNL     1     -41.899 -52.574  12.197  1.00  0.00    -0.019 NA
HETATM    3  N   UNL     1     -41.059 -51.834  11.489  1.00  0.00    -0.282 N 
ATOM      4  HN  UNL     1     -40.323 -52.183  10.876  1.00  0.00     0.184 HD
HETATM    5  C   UNL     1     -41.350 -50.520  11.725  1.00  0.00     0.075 A 
HETATM    6  C   UNL     1     -40.756 -49.354  11.226  1.00  0.00     0.058 A 
HETATM    7  C   UNL     1     -41.269 -48.115  11.629  1.00  0.00     0.058 A 
HETATM    8 CL   UNL     1     -40.505 -46.701  10.990  1.00  0.00    -0.082 Cl
HETATM    9  C   UNL     1     -42.357 -48.042  12.513  1.00  0.00     0.058 A 
HETATM   10 CL   UNL     1     -43.028 -46.528  13.017  1.00  0.00    -0.082 Cl
HETATM   11  C   UNL     1     -42.951 -49.203  13.031  1.00  0.00     0.058 A 
HETATM   12  C   UNL     1     -42.418 -50.427  12.612  1.00  0.00     0.078 A 
ENDROOT
BRANCH   1  13
HETATM   13  C   UNL     1     -43.632 -52.280  13.847  1.00  0.00     0.178 C 
BRANCH  13  14
HETATM   14  C   UNL     1     -44.990 -52.646  13.232  1.00  0.00     0.137 C 
BRANCH  14  15
HETATM   15  C   UNL     1     -45.994 -51.484  13.270  1.00  0.00     0.029 C 
HETATM   16  C   UNL     1     -46.743 -51.406  14.594  1.00  0.00     0.007 C 
ENDBRANCH  14  15
BRANCH  14  17
HETATM   17  O   UNL     1     -44.787 -53.063  11.876  1.00  0.00    -0.394 OA
HETATM   18  H   UNL     1     -45.298 -52.482  11.287  1.00  0.00     0.210 HD
ENDBRANCH  14  17
ENDBRANCH  13  14
ENDBRANCH   1  13
TORSDOF 4
ENDMDL
MODEL 3
REMARK VINA RESULT:      -5.2      4.438      5.765
REMARK  4 active torsions:
REMARK  status: ('A' for Active; 'I' for Inactive)
REMARK    1  A    between atoms: C_2  and  C_3 
REMARK    2  A    between atoms: C_3  and  O_4 
REMARK    3  A    between atoms: C_3  and  C_5 
REMARK    4  A    between atoms: C_5  and  N_6 
ROOT
HETATM    1  N   UNL     1     -40.959 -51.453  12.709  1.00  0.00    -0.271 N 
HETATM    2  N   UNL     1     -40.182 -52.466  12.285  1.00  0.00    -0.019 NA
HETATM    3  N   UNL     1     -40.907 -53.575  12.322  1.00  0.00    -0.282 N 
ATOM      4  HN  UNL     1     -40.596 -54.504  12.040  1.00  0.00     0.184 HD
HETATM    5  C   UNL     1     -42.144 -53.255  12.806  1.00  0.00     0.075 A 
HETATM    6  C   UNL     1     -43.267 -54.062  13.032  1.00  0.00     0.058 A 
HETATM    7  C   UNL     1     -44.423 -53.469  13.554  1.00  0.00     0.058 A 
HETATM    8 CL   UNL     1     -45.787 -54.500  13.817  1.00  0.00    -0.082 Cl
HETATM    9  C   UNL     1     -44.457 -52.097  13.847  1.00  0.00     0.058 A 
HETATM   10 CL   UNL     1     -45.862 -51.336  14.512  1.00  0.00    -0.082 Cl
HETATM   11  C   UNL     1     -43.342 -51.277  13.611  1.00  0.00     0.058 A 
HETATM   12  C   UNL     1     -42.201 -51.894  13.088  1.00  0.00     0.078 A 
ENDROOT
BRANCH   1  13
HETATM   13  C   UNL     1     -40.459 -50.101  12.662  1.00  0.00     0.178 C 
BRANCH  13  14
HETATM   14  C   UNL     1     -40.879 -49.332  11.402  1.00  0.00     0.137 C 
BRANCH  14  15
HETATM   15  C   UNL     1     -40.365 -47.885  11.388  1.00  0.00     0.029 C 
HETATM   16  C   UNL     1     -41.345 -46.925  10.727  1.00  0.00     0.007 C 
ENDBRANCH  14  15
BRANCH  14  17
HETATM   17  O   UNL     1     -40.388 -50.028  10.249  1.00  0.00    -0.394 OA
HETATM   18  H   UNL     1     -40.954 -49.817   9.488  1.00  0.00     0.210 HD
ENDBRANCH  14  17
ENDBRANCH  13  14
ENDBRANCH   1  13
TORSDOF 4
ENDMDL
MODEL 4
REMARK VINA RESULT:      -5.2      4.315      5.411
REMARK  4 active torsions:
REMARK  status: ('A' for Active; 'I' for Inactive)
REMARK    1  A    between atoms: C_2  and  C_3 
REMARK    2  A    between atoms: C_3  and  O_4 
REMARK    3  A    between atoms: C_3  and  C_5 
REMARK    4  A    between atoms: C_5  and  N_6 
ROOT
HETATM    1  N   UNL     1     -40.813 -51.521  12.622  1.00  0.00    -0.271 N 
HETATM    2  N   UNL     1     -41.238 -52.344  11.646  1.00  0.00    -0.019 NA
HETATM    3  N   UNL     1     -40.914 -53.581  11.992  1.00  0.00    -0.282 N 
ATOM      4  HN  UNL     1     -41.123 -54.426  11.461  1.00  0.00     0.184 HD
HETATM    5  C   UNL     1     -40.251 -53.527  13.185  1.00  0.00     0.075 A 
HETATM    6  C   UNL     1     -39.708 -54.553  13.969  1.00  0.00     0.058 A 
HETATM    7  C   UNL     1     -39.058 -54.212  15.162  1.00  0.00     0.058 A 
HETATM    8 CL   UNL     1     -38.404 -55.509  16.101  1.00  0.00    -0.082 Cl
HETATM    9  C   UNL     1     -38.952 -52.871  15.564  1.00  0.00     0.058 A 
HETATM   10 CL   UNL     1     -38.140 -52.413  17.022  1.00  0.00    -0.082 Cl
HETATM   11  C   UNL     1     -39.505 -51.837  14.793  1.00  0.00     0.058 A 
HETATM   12  C   UNL     1     -40.148 -52.205  13.607  1.00  0.00     0.078 A 
ENDROOT
BRANCH   1  13
HETATM   13  C   UNL     1     -41.137 -50.116  12.562  1.00  0.00     0.178 C 
BRANCH  13  14
HETATM   14  C   UNL     1     -40.289 -49.330  11.553  1.00  0.00     0.137 C 
BRANCH  14  15
HETATM   15  C   UNL     1     -38.866 -49.051  12.059  1.00  0.00     0.029 C 
HETATM   16  C   UNL     1     -37.827 -49.947  11.398  1.00  0.00     0.007 C 
ENDBRANCH  14  15
BRANCH  14  17
HETATM   17  O   UNL     1     -40.227 -50.069  10.326  1.00  0.00    -0.394 OA
HETATM   18  H   UNL     1     -39.405 -50.589  10.312  1.00  0.00     0.210 HD
ENDBRANCH  14  17
ENDBRANCH  13  14
ENDBRANCH   1  13
TORSDOF 4
ENDMDL
MODEL 5
REMARK VINA RESULT:      -5.1      6.740      7.924
REMARK  4 active torsions:
REMARK  status: ('A' for Active; 'I' for Inactive)
REMARK    1  A    between atoms: C_2  and  C_3 
REMARK    2  A    between atoms: C_3  and  O_4 
REMARK    3  A    between atoms: C_3  and  C_5 
REMARK    4  A    between atoms: C_5  and  N_6 
ROOT
HETATM    1  N   UNL     1     -41.306 -47.419  11.389  1.00  0.00    -0.271 N 
HETATM    2  N   UNL     1     -41.812 -48.188  10.408  1.00  0.00    -0.019 NA
HETATM    3  N   UNL     1     -41.110 -49.311  10.372  1.00  0.00    -0.282 N 
ATOM      4  HN  UNL     1     -41.271 -50.099   9.745  1.00  0.00     0.184 HD
HETATM    5  C   UNL     1     -40.132 -49.229  11.322  1.00  0.00     0.075 A 
HETATM    6  C   UNL     1     -39.138 -50.148  11.684  1.00  0.00     0.058 A 
HETATM    7  C   UNL     1     -38.241 -49.799  12.701  1.00  0.00     0.058 A 
HETATM    8 CL   UNL     1     -37.031 -50.962  13.118  1.00  0.00    -0.082 Cl
HETATM    9  C   UNL     1     -38.333 -48.554  13.343  1.00  0.00     0.058 A 
HETATM   10 CL   UNL     1     -37.230 -48.082  14.591  1.00  0.00    -0.082 Cl
HETATM   11  C   UNL     1     -39.334 -47.632  12.999  1.00  0.00     0.058 A 
HETATM   12  C   UNL     1     -40.217 -48.007  11.980  1.00  0.00     0.078 A 
ENDROOT
BRANCH   1  13
HETATM   13  C   UNL     1     -41.955 -46.177  11.730  1.00  0.00     0.178 C 
BRANCH  13  14
HETATM   14  C   UNL     1     -41.673 -45.040  10.738  1.00  0.00     0.137 C 
BRANCH  14  15
HETATM   15  C   UNL     1     -40.291 -44.403  10.941  1.00  0.00     0.029 C 
HETATM   16  C   UNL     1     -39.301 -44.802   9.855  1.00  0.00     0.007 C 
ENDBRANCH  14  15
BRANCH  14  17
HETATM   17  O   UNL     1     -41.775 -45.554   9.404  1.00  0.00    -0.394 OA
HETATM   18  H   UNL     1     -42.594 -45.220   8.999  1.00  0.00     0.210 HD
ENDBRANCH  14  17
ENDBRANCH  13  14
ENDBRANCH   1  13
TORSDOF 4
ENDMDL
MODEL 6
REMARK VINA RESULT:      -5.0      2.492      3.446
REMARK  4 active torsions:
REMARK  status: ('A' for Active; 'I' for Inactive)
REMARK    1  A    between atoms: C_2  and  C_3 
REMARK    2  A    between atoms: C_3  and  O_4 
REMARK    3  A    between atoms: C_3  and  C_5 
REMARK    4  A    between atoms: C_5  and  N_6 
ROOT
HETATM    1  N   UNL     1     -42.781 -53.404  12.997  1.00  0.00    -0.271 N 
HETATM    2  N   UNL     1     -42.595 -54.427  13.852  1.00  0.00    -0.019 NA
HETATM    3  N   UNL     1     -41.377 -54.311  14.361  1.00  0.00    -0.282 N 
ATOM      4  HN  UNL     1     -40.956 -54.929  15.055  1.00  0.00     0.184 HD
HETATM    5  C   UNL     1     -40.783 -53.220  13.794  1.00  0.00     0.075 A 
HETATM    6  C   UNL     1     -39.509 -52.673  13.994  1.00  0.00     0.058 A 
HETATM    7  C   UNL     1     -39.144 -51.538  13.260  1.00  0.00     0.058 A 
HETATM    8 CL   UNL     1     -37.564 -50.892  13.540  1.00  0.00    -0.082 Cl
HETATM    9  C   UNL     1     -40.035 -50.961  12.340  1.00  0.00     0.058 A 
HETATM   10 CL   UNL     1     -39.610 -49.570  11.402  1.00  0.00    -0.082 Cl
HETATM   11  C   UNL     1     -41.318 -51.493  12.141  1.00  0.00     0.058 A 
HETATM   12  C   UNL     1     -41.657 -52.626  12.889  1.00  0.00     0.078 A 
ENDROOT
BRANCH   1  13
HETATM   13  C   UNL     1     -44.071 -53.214  12.381  1.00  0.00     0.178 C 
BRANCH  13  14
HETATM   14  C   UNL     1     -45.248 -53.374  13.353  1.00  0.00     0.137 C 
BRANCH  14  15
HETATM   15  C   UNL     1     -46.386 -52.380  13.079  1.00  0.00     0.029 C 
HETATM   16  C   UNL     1     -46.612 -51.420  14.239  1.00  0.00     0.007 C 
ENDBRANCH  14  15
BRANCH  14  17
HETATM   17  O   UNL     1     -45.746 -54.715  13.261  1.00  0.00    -0.394 OA
HETATM   18  H   UNL     1     -44.998 -55.334  13.303  1.00  0.00     0.210 HD
ENDBRANCH  14  17
ENDBRANCH  13  14
ENDBRANCH   1  13
TORSDOF 4
ENDMDL
MODEL 7
REMARK VINA RESULT:      -4.9      8.894      9.804
REMARK  4 active torsions:
REMARK  status: ('A' for Active; 'I' for Inactive)
REMARK    1  A    between atoms: C_2  and  C_3 
REMARK    2  A    between atoms: C_3  and  O_4 
REMARK    3  A    between atoms: C_3  and  C_5 
REMARK    4  A    between atoms: C_5  and  N_6 
ROOT
HETATM    1  N   UNL     1     -42.304 -46.764  10.641  1.00  0.00    -0.271 N 
HETATM    2  N   UNL     1     -41.194 -47.484  10.394  1.00  0.00    -0.019 NA
HETATM    3  N   UNL     1     -40.149 -46.748  10.742  1.00  0.00    -0.282 N 
ATOM      4  HN  UNL     1     -39.171 -47.033  10.690  1.00  0.00     0.184 HD
HETATM    5  C   UNL     1     -40.610 -45.540  11.183  1.00  0.00     0.075 A 
HETATM    6  C   UNL     1     -39.914 -44.423  11.662  1.00  0.00     0.058 A 
HETATM    7  C   UNL     1     -40.645 -43.291  12.042  1.00  0.00     0.058 A 
HETATM    8 CL   UNL     1     -39.747 -41.934  12.630  1.00  0.00    -0.082 Cl
HETATM    9  C   UNL     1     -42.045 -43.274  11.944  1.00  0.00     0.058 A 
HETATM   10 CL   UNL     1     -42.979 -41.885  12.387  1.00  0.00    -0.082 Cl
HETATM   11  C   UNL     1     -42.754 -44.393  11.479  1.00  0.00     0.058 A 
HETATM   12  C   UNL     1     -41.999 -45.510  11.107  1.00  0.00     0.078 A 
ENDROOT
BRANCH   1  13
HETATM   13  C   UNL     1     -43.601 -47.367  10.463  1.00  0.00     0.178 C 
BRANCH  13  14
HETATM   14  C   UNL     1     -44.129 -47.280   9.024  1.00  0.00     0.137 C 
BRANCH  14  15
HETATM   15  C   UNL     1     -45.361 -46.371   8.895  1.00  0.00     0.029 C 
HETATM   16  C   UNL     1     -46.666 -47.124   9.118  1.00  0.00     0.007 C 
ENDBRANCH  14  15
BRANCH  14  17
HETATM   17  O   UNL     1     -43.082 -46.795   8.175  1.00  0.00    -0.394 OA
HETATM   18  H   UNL     1     -43.044 -45.826   8.241  1.00  0.00     0.210 HD
ENDBRANCH  14  17
ENDBRANCH  13  14
ENDBRANCH   1  13
TORSDOF 4
ENDMDL
MODEL 8
REMARK VINA RESULT:      -4.9      5.949      6.826
REMARK  4 active torsions:
REMARK  status: ('A' for Active; 'I' for Inactive)
REMARK    1  A    between atoms: C_2  and  C_3 
REMARK    2  A    between atoms: C_3  and  O_4 
REMARK    3  A    between atoms: C_3  and  C_5 
REMARK    4  A    between atoms: C_5  and  N_6 
ROOT
HETATM    1  N   UNL     1     -41.844 -47.838  11.004  1.00  0.00    -0.271 N 
HETATM    2  N   UNL     1     -41.150 -46.715  10.742  1.00  0.00    -0.019 NA
HETATM    3  N   UNL     1     -39.873 -46.960  10.999  1.00  0.00    -0.282 N 
ATOM      4  HN  UNL     1     -39.101 -46.305  10.877  1.00  0.00     0.184 HD
HETATM    5  C   UNL     1     -39.772 -48.243  11.457  1.00  0.00     0.075 A 
HETATM    6  C   UNL     1     -38.649 -48.977  11.859  1.00  0.00     0.058 A 
HETATM    7  C   UNL     1     -38.833 -50.292  12.305  1.00  0.00     0.058 A 
HETATM    8 CL   UNL     1     -37.421 -51.164  12.790  1.00  0.00    -0.082 Cl
HETATM    9  C   UNL     1     -40.116 -50.862  12.350  1.00  0.00     0.058 A 
HETATM   10 CL   UNL     1     -40.382 -52.477  12.913  1.00  0.00    -0.082 Cl
HETATM   11  C   UNL     1     -41.246 -50.140  11.936  1.00  0.00     0.058 A 
HETATM   12  C   UNL     1     -41.033 -48.829  11.494  1.00  0.00     0.078 A 
ENDROOT
BRANCH   1  13
HETATM   13  C   UNL     1     -43.252 -47.894  10.700  1.00  0.00     0.178 C 
BRANCH  13  14
HETATM   14  C   UNL     1     -43.650 -47.078   9.462  1.00  0.00     0.137 C 
BRANCH  14  15
HETATM   15  C   UNL     1     -44.876 -47.653   8.739  1.00  0.00     0.029 C 
HETATM   16  C   UNL     1     -46.157 -46.902   9.079  1.00  0.00     0.007 C 
ENDBRANCH  14  15
BRANCH  14  17
HETATM   17  O   UNL     1     -43.916 -45.728   9.863  1.00  0.00    -0.394 OA
HETATM   18  H   UNL     1     -43.473 -45.558  10.712  1.00  0.00     0.210 HD
ENDBRANCH  14  17
ENDBRANCH  13  14
ENDBRANCH   1  13
TORSDOF 4
ENDMDL
MODEL 9
REMARK VINA RESULT:      -4.8      3.612      5.437
REMARK  4 active torsions:
REMARK  status: ('A' for Active; 'I' for Inactive)
REMARK    1  A    between atoms: C_2  and  C_3 
REMARK    2  A    between atoms: C_3  and  O_4 
REMARK    3  A    between atoms: C_3  and  C_5 
REMARK    4  A    between atoms: C_5  and  N_6 
ROOT
HETATM    1  N   UNL     1     -43.766 -53.298  13.467  1.00  0.00    -0.271 N 
HETATM    2  N   UNL     1     -44.502 -54.180  12.766  1.00  0.00    -0.019 NA
HETATM    3  N   UNL     1     -45.764 -54.045  13.145  1.00  0.00    -0.282 N 
ATOM      4  HN  UNL     1     -46.560 -54.564  12.775  1.00  0.00     0.184 HD
HETATM    5  C   UNL     1     -45.814 -53.087  14.118  1.00  0.00     0.075 A 
HETATM    6  C   UNL     1     -46.904 -52.577  14.835  1.00  0.00     0.058 A 
HETATM    7  C   UNL     1     -46.667 -51.591  15.801  1.00  0.00     0.058 A 
HETATM    8 CL   UNL     1     -48.040 -50.987  16.662  1.00  0.00    -0.082 Cl
HETATM    9  C   UNL     1     -45.366 -51.125  16.048  1.00  0.00     0.058 A 
HETATM   10 CL   UNL     1     -45.036 -49.922  17.247  1.00  0.00    -0.082 Cl
HETATM   11  C   UNL     1     -44.269 -51.619  15.325  1.00  0.00     0.058 A 
HETATM   12  C   UNL     1     -44.534 -52.602  14.365  1.00  0.00     0.078 A 
ENDROOT
BRANCH   1  13
HETATM   13  C   UNL     1     -42.363 -53.146  13.173  1.00  0.00     0.178 C 
BRANCH  13  14
HETATM   14  C   UNL     1     -42.066 -52.063  12.126  1.00  0.00     0.137 C 
BRANCH  14  15
HETATM   15  C   UNL     1     -41.282 -50.875  12.703  1.00  0.00     0.029 C 
HETATM   16  C   UNL     1     -40.735 -49.957  11.618  1.00  0.00     0.007 C 
ENDBRANCH  14  15
BRANCH  14  17
HETATM   17  O   UNL     1     -41.325 -52.651  11.049  1.00  0.00    -0.394 OA
HETATM   18  H   UNL     1     -41.708 -52.357  10.205  1.00  0.00     0.210 HD
ENDBRANCH  14  17
ENDBRANCH  13  14
ENDBRANCH   1  13
TORSDOF 4
ENDMDL
