MODEL 1
REMARK VINA RESULT:      -6.0      0.000      0.000
REMARK  2 active torsions:
REMARK  status: ('A' for Active; 'I' for Inactive)
REMARK    1  A    between atoms: C_4  and  N_5 
REMARK       I    between atoms: N_5  and  C_6 
REMARK       I    between atoms: C_6  and  N_8 
REMARK    2  A    between atoms: N_8  and  C_9 
ROOT
HETATM    1  N   UNL     1     -41.800 -48.435   9.535  1.00  0.00    -0.293 N 
HETATM    2  C   UNL     1     -41.302 -48.889  10.790  1.00  0.00     0.322 C 
HETATM    3  O   UNL     1     -41.810 -48.565  11.848  1.00  0.00    -0.247 OA
HETATM    4  N   UNL     1     -40.200 -49.694  10.682  1.00  0.00    -0.338 N 
HETATM    5  H   UNL     1     -41.370 -48.757   8.686  1.00  0.00     0.172 HD
HETATM    6  H   UNL     1     -39.895 -50.089   9.807  1.00  0.00     0.164 HD
ENDROOT
BRANCH   1   7
HETATM    7  C   UNL     1     -42.857 -47.514   9.464  1.00  0.00     0.127 A 
HETATM    8  C   UNL     1     -44.143 -47.751   9.030  1.00  0.00     0.076 A 
HETATM    9  C   UNL     1     -44.838 -46.533   9.149  1.00  0.00     0.025 A 
HETATM   10  C   UNL     1     -46.256 -46.282   8.797  1.00  0.00     0.070 C 
HETATM   11  N   UNL     1     -44.050 -45.572   9.636  1.00  0.00    -0.302 N 
HETATM   12  N   UNL     1     -42.858 -46.182   9.827  1.00  0.00    -0.281 N 
ATOM     13  HN  UNL     1     -44.293 -44.599   9.822  1.00  0.00     0.186 HD
HETATM   14  C   UNL     1     -41.789 -45.386  10.370  1.00  0.00     0.179 C 
ENDBRANCH   1   7
BRANCH   4  15
HETATM   15  C   UNL     1     -39.614 -50.133  11.931  1.00  0.00     0.086 C 
HETATM   16  C   UNL     1     -38.098 -50.250  11.968  1.00  0.00     0.025 C 
HETATM   17  C   UNL     1     -37.833 -51.108  13.218  1.00  0.00     0.002 C 
HETATM   18  C   UNL     1     -39.178 -51.735  13.602  1.00  0.00     0.002 C 
HETATM   19  C   UNL     1     -40.065 -51.520  12.383  1.00  0.00     0.025 C 
ENDBRANCH   4  15
TORSDOF 2
ENDMDL
MODEL 2
REMARK VINA RESULT:      -5.9      1.401      6.861
REMARK  2 active torsions:
REMARK  status: ('A' for Active; 'I' for Inactive)
REMARK    1  A    between atoms: C_4  and  N_5 
REMARK       I    between atoms: N_5  and  C_6 
REMARK       I    between atoms: C_6  and  N_8 
REMARK    2  A    between atoms: N_8  and  C_9 
ROOT
HETATM    1  N   UNL     1     -40.751 -49.452  10.358  1.00  0.00    -0.293 N 
HETATM    2  C   UNL     1     -41.819 -48.531  10.560  1.00  0.00     0.322 C 
HETATM    3  O   UNL     1     -42.131 -48.128  11.666  1.00  0.00    -0.247 OA
HETATM    4  N   UNL     1     -42.459 -48.173   9.404  1.00  0.00    -0.338 N 
HETATM    5  H   UNL     1     -40.508 -49.730   9.424  1.00  0.00     0.172 HD
HETATM    6  H   UNL     1     -42.090 -48.377   8.489  1.00  0.00     0.164 HD
ENDROOT
BRANCH   1   7
HETATM    7  C   UNL     1     -40.059 -50.010  11.444  1.00  0.00     0.127 A 
HETATM    8  C   UNL     1     -38.925 -49.517  12.053  1.00  0.00     0.076 A 
HETATM    9  C   UNL     1     -38.607 -50.408  13.093  1.00  0.00     0.025 A 
HETATM   10  C   UNL     1     -37.464 -50.308  14.031  1.00  0.00     0.070 C 
HETATM   11  N   UNL     1     -39.485 -51.412  13.156  1.00  0.00    -0.302 N 
HETATM   12  N   UNL     1     -40.359 -51.153  12.156  1.00  0.00    -0.281 N 
ATOM     13  HN  UNL     1     -39.495 -52.195  13.808  1.00  0.00     0.186 HD
HETATM   14  C   UNL     1     -41.453 -52.073  11.980  1.00  0.00     0.179 C 
ENDBRANCH   1   7
BRANCH   4  15
HETATM   15  C   UNL     1     -43.594 -47.289   9.558  1.00  0.00     0.086 C 
HETATM   16  C   UNL     1     -44.948 -47.836   9.132  1.00  0.00     0.025 C 
HETATM   17  C   UNL     1     -45.825 -46.577   9.017  1.00  0.00     0.002 C 
HETATM   18  C   UNL     1     -44.865 -45.383   9.010  1.00  0.00     0.002 C 
HETATM   19  C   UNL     1     -43.494 -45.993   8.757  1.00  0.00     0.025 C 
ENDBRANCH   4  15
TORSDOF 2
ENDMDL
MODEL 3
REMARK VINA RESULT:      -5.8      3.097      4.783
REMARK  2 active torsions:
REMARK  status: ('A' for Active; 'I' for Inactive)
REMARK    1  A    between atoms: C_4  and  N_5 
REMARK       I    between atoms: N_5  and  C_6 
REMARK       I    between atoms: C_6  and  N_8 
REMARK    2  A    between atoms: N_8  and  C_9 
ROOT
HETATM    1  N   UNL     1     -41.072 -50.880  11.209  1.00  0.00    -0.293 N 
HETATM    2  C   UNL     1     -41.901 -51.403  12.243  1.00  0.00     0.322 C 
HETATM    3  O   UNL     1     -42.394 -50.695  13.103  1.00  0.00    -0.247 OA
HETATM    4  N   UNL     1     -42.063 -52.761  12.181  1.00  0.00    -0.338 N 
HETATM    5  H   UNL     1     -40.716 -51.497  10.502  1.00  0.00     0.172 HD
HETATM    6  H   UNL     1     -41.795 -53.307  11.378  1.00  0.00     0.164 HD
ENDROOT
BRANCH   1   7
HETATM    7  C   UNL     1     -40.710 -49.524  11.185  1.00  0.00     0.127 A 
HETATM    8  C   UNL     1     -41.475 -48.463  10.751  1.00  0.00     0.076 A 
HETATM    9  C   UNL     1     -40.695 -47.306  10.926  1.00  0.00     0.025 A 
HETATM   10  C   UNL     1     -41.083 -45.914  10.597  1.00  0.00     0.070 C 
HETATM   11  N   UNL     1     -39.501 -47.601  11.448  1.00  0.00    -0.302 N 
HETATM   12  N   UNL     1     -39.529 -48.945  11.604  1.00  0.00    -0.281 N 
ATOM     13  HN  UNL     1     -38.742 -46.960  11.676  1.00  0.00     0.186 HD
HETATM   14  C   UNL     1     -38.362 -49.568  12.171  1.00  0.00     0.179 C 
ENDBRANCH   1   7
BRANCH   4  15
HETATM   15  C   UNL     1     -42.845 -53.353  13.245  1.00  0.00     0.086 C 
HETATM   16  C   UNL     1     -42.151 -54.405  14.096  1.00  0.00     0.025 C 
HETATM   17  C   UNL     1     -43.313 -55.113  14.814  1.00  0.00     0.002 C 
HETATM   18  C   UNL     1     -44.590 -54.701  14.073  1.00  0.00     0.002 C 
HETATM   19  C   UNL     1     -44.098 -54.085  12.771  1.00  0.00     0.025 C 
ENDBRANCH   4  15
TORSDOF 2
ENDMDL
MODEL 4
REMARK VINA RESULT:      -5.6      1.585      2.156
REMARK  2 active torsions:
REMARK  status: ('A' for Active; 'I' for Inactive)
REMARK    1  A    between atoms: C_4  and  N_5 
REMARK       I    between atoms: N_5  and  C_6 
REMARK       I    between atoms: C_6  and  N_8 
REMARK    2  A    between atoms: N_8  and  C_9 
ROOT
HETATM    1  N   UNL     1     -40.938 -49.301  10.434  1.00  0.00    -0.293 N 
HETATM    2  C   UNL     1     -41.172 -50.091  11.597  1.00  0.00     0.322 C 
HETATM    3  O   UNL     1     -41.981 -49.771  12.449  1.00  0.00    -0.247 OA
HETATM    4  N   UNL     1     -40.389 -51.213  11.663  1.00  0.00    -0.338 N 
HETATM    5  H   UNL     1     -40.285 -49.623   9.741  1.00  0.00     0.172 HD
HETATM    6  H   UNL     1     -39.853 -51.552  10.881  1.00  0.00     0.164 HD
ENDROOT
BRANCH   1   7
HETATM    7  C   UNL     1     -41.573 -48.062  10.259  1.00  0.00     0.127 A 
HETATM    8  C   UNL     1     -42.735 -47.811   9.563  1.00  0.00     0.076 A 
HETATM    9  C   UNL     1     -42.980 -46.430   9.673  1.00  0.00     0.025 A 
HETATM   10  C   UNL     1     -44.113 -45.678   9.084  1.00  0.00     0.070 C 
HETATM   11  N   UNL     1     -42.036 -45.828  10.402  1.00  0.00    -0.302 N 
HETATM   12  N   UNL     1     -41.197 -46.829  10.753  1.00  0.00    -0.281 N 
ATOM     13  HN  UNL     1     -41.965 -44.839  10.639  1.00  0.00     0.186 HD
HETATM   14  C   UNL     1     -40.065 -46.485  11.573  1.00  0.00     0.179 C 
ENDBRANCH   1   7
BRANCH   4  15
HETATM   15  C   UNL     1     -40.540 -52.018  12.856  1.00  0.00     0.086 C 
HETATM   16  C   UNL     1     -39.316 -52.149  13.750  1.00  0.00     0.025 C 
HETATM   17  C   UNL     1     -39.653 -53.352  14.648  1.00  0.00     0.002 C 
HETATM   18  C   UNL     1     -40.842 -54.060  13.990  1.00  0.00     0.002 C 
HETATM   19  C   UNL     1     -40.911 -53.475  12.587  1.00  0.00     0.025 C 
ENDBRANCH   4  15
TORSDOF 2
ENDMDL
MODEL 5
REMARK VINA RESULT:      -5.6      3.876      6.545
REMARK  2 active torsions:
REMARK  status: ('A' for Active; 'I' for Inactive)
REMARK    1  A    between atoms: C_4  and  N_5 
REMARK       I    between atoms: N_5  and  C_6 
REMARK       I    between atoms: C_6  and  N_8 
REMARK    2  A    between atoms: N_8  and  C_9 
ROOT
HETATM    1  N   UNL     1     -42.210 -52.370  11.808  1.00  0.00    -0.293 N 
HETATM    2  C   UNL     1     -41.981 -51.016  12.188  1.00  0.00     0.322 C 
HETATM    3  O   UNL     1     -42.304 -50.582  13.279  1.00  0.00    -0.247 OA
HETATM    4  N   UNL     1     -41.391 -50.264  11.207  1.00  0.00    -0.338 N 
HETATM    5  H   UNL     1     -41.895 -52.691  10.909  1.00  0.00     0.172 HD
HETATM    6  H   UNL     1     -40.978 -50.669  10.382  1.00  0.00     0.164 HD
ENDROOT
BRANCH   1   7
HETATM    7  C   UNL     1     -42.904 -53.252  12.649  1.00  0.00     0.127 A 
HETATM    8  C   UNL     1     -44.236 -53.597  12.580  1.00  0.00     0.076 A 
HETATM    9  C   UNL     1     -44.470 -54.513  13.622  1.00  0.00     0.025 A 
HETATM   10  C   UNL     1     -45.757 -55.166  13.960  1.00  0.00     0.070 C 
HETATM   11  N   UNL     1     -43.354 -54.749  14.317  1.00  0.00    -0.302 N 
HETATM   12  N   UNL     1     -42.416 -53.984  13.713  1.00  0.00    -0.281 N 
ATOM     13  HN  UNL     1     -43.237 -55.365  15.121  1.00  0.00     0.186 HD
HETATM   14  C   UNL     1     -41.079 -54.039  14.241  1.00  0.00     0.179 C 
ENDBRANCH   1   7
BRANCH   4  15
HETATM   15  C   UNL     1     -41.193 -48.864  11.517  1.00  0.00     0.086 C 
HETATM   16  C   UNL     1     -41.647 -47.862  10.466  1.00  0.00     0.025 C 
HETATM   17  C   UNL     1     -40.941 -46.560  10.882  1.00  0.00     0.002 C 
HETATM   18  C   UNL     1     -39.857 -46.960  11.889  1.00  0.00     0.002 C 
HETATM   19  C   UNL     1     -39.736 -48.471  11.743  1.00  0.00     0.025 C 
ENDBRANCH   4  15
TORSDOF 2
ENDMDL
MODEL 6
REMARK VINA RESULT:      -5.6      4.133      6.195
REMARK  2 active torsions:
REMARK  status: ('A' for Active; 'I' for Inactive)
REMARK    1  A    between atoms: C_4  and  N_5 
REMARK       I    between atoms: N_5  and  C_6 
REMARK       I    between atoms: C_6  and  N_8 
REMARK    2  A    between atoms: N_8  and  C_9 
ROOT
HETATM    1  N   UNL     1     -42.241 -51.087  11.896  1.00  0.00    -0.293 N 
HETATM    2  C   UNL     1     -43.079 -50.869  13.028  1.00  0.00     0.322 C 
HETATM    3  O   UNL     1     -42.828 -50.027  13.871  1.00  0.00    -0.247 OA
HETATM    4  N   UNL     1     -44.163 -51.705  13.076  1.00  0.00    -0.338 N 
HETATM    5  H   UNL     1     -42.508 -51.770  11.208  1.00  0.00     0.172 HD
HETATM    6  H   UNL     1     -44.449 -52.274  12.296  1.00  0.00     0.164 HD
ENDROOT
BRANCH   1   7
HETATM    7  C   UNL     1     -41.030 -50.395  11.746  1.00  0.00     0.127 A 
HETATM    8  C   UNL     1     -39.774 -50.818  12.124  1.00  0.00     0.076 A 
HETATM    9  C   UNL     1     -38.879 -49.794  11.764  1.00  0.00     0.025 A 
HETATM   10  C   UNL     1     -37.412 -49.782  11.973  1.00  0.00     0.070 C 
HETATM   11  N   UNL     1     -39.518 -48.775  11.182  1.00  0.00    -0.302 N 
HETATM   12  N   UNL     1     -40.816 -49.157  11.174  1.00  0.00    -0.281 N 
ATOM     13  HN  UNL     1     -39.118 -47.908  10.826  1.00  0.00     0.186 HD
HETATM   14  C   UNL     1     -41.767 -48.251  10.583  1.00  0.00     0.179 C 
ENDBRANCH   1   7
BRANCH   4  15
HETATM   15  C   UNL     1     -45.013 -51.569  14.239  1.00  0.00     0.086 C 
HETATM   16  C   UNL     1     -44.998 -52.720  15.233  1.00  0.00     0.025 C 
HETATM   17  C   UNL     1     -46.260 -52.481  16.081  1.00  0.00     0.002 C 
HETATM   18  C   UNL     1     -47.107 -51.462  15.312  1.00  0.00     0.002 C 
HETATM   19  C   UNL     1     -46.499 -51.430  13.917  1.00  0.00     0.025 C 
ENDBRANCH   4  15
TORSDOF 2
ENDMDL
MODEL 7
REMARK VINA RESULT:      -5.6      2.037      3.467
REMARK  2 active torsions:
REMARK  status: ('A' for Active; 'I' for Inactive)
REMARK    1  A    between atoms: C_4  and  N_5 
REMARK       I    between atoms: N_5  and  C_6 
REMARK       I    between atoms: C_6  and  N_8 
REMARK    2  A    between atoms: N_8  and  C_9 
ROOT
HETATM    1  N   UNL     1     -41.027 -49.107  10.569  1.00  0.00    -0.293 N 
HETATM    2  C   UNL     1     -41.493 -49.940  11.626  1.00  0.00     0.322 C 
HETATM    3  O   UNL     1     -42.092 -49.496  12.589  1.00  0.00    -0.247 OA
HETATM    4  N   UNL     1     -41.183 -51.263  11.459  1.00  0.00    -0.338 N 
HETATM    5  H   UNL     1     -40.567 -49.523   9.778  1.00  0.00     0.172 HD
HETATM    6  H   UNL     1     -40.841 -51.639  10.589  1.00  0.00     0.164 HD
ENDROOT
BRANCH   1   7
HETATM    7  C   UNL     1     -41.161 -47.712  10.631  1.00  0.00     0.127 A 
HETATM    8  C   UNL     1     -40.229 -46.802  11.081  1.00  0.00     0.076 A 
HETATM    9  C   UNL     1     -40.810 -45.529  10.944  1.00  0.00     0.025 A 
HETATM   10  C   UNL     1     -40.196 -44.228  11.303  1.00  0.00     0.070 C 
HETATM   11  N   UNL     1     -42.041 -45.611  10.432  1.00  0.00    -0.302 N 
HETATM   12  N   UNL     1     -42.235 -46.936  10.242  1.00  0.00    -0.281 N 
ATOM     13  HN  UNL     1     -42.686 -44.848  10.229  1.00  0.00     0.186 HD
HETATM   14  C   UNL     1     -43.494 -47.344   9.675  1.00  0.00     0.179 C 
ENDBRANCH   1   7
BRANCH   4  15
HETATM   15  C   UNL     1     -41.577 -52.145  12.536  1.00  0.00     0.086 C 
HETATM   16  C   UNL     1     -40.665 -53.330  12.816  1.00  0.00     0.025 C 
HETATM   17  C   UNL     1     -41.537 -54.262  13.675  1.00  0.00     0.002 C 
HETATM   18  C   UNL     1     -42.977 -53.759  13.527  1.00  0.00     0.002 C 
HETATM   19  C   UNL     1     -42.935 -52.814  12.335  1.00  0.00     0.025 C 
ENDBRANCH   4  15
TORSDOF 2
ENDMDL
MODEL 8
REMARK VINA RESULT:      -5.3      3.975      5.493
REMARK  2 active torsions:
REMARK  status: ('A' for Active; 'I' for Inactive)
REMARK    1  A    between atoms: C_4  and  N_5 
REMARK       I    between atoms: N_5  and  C_6 
REMARK       I    between atoms: C_6  and  N_8 
REMARK    2  A    between atoms: N_8  and  C_9 
ROOT
HETATM    1  N   UNL     1     -42.249 -50.026  11.722  1.00  0.00    -0.293 N 
HETATM    2  C   UNL     1     -43.176 -49.945  12.802  1.00  0.00     0.322 C 
HETATM    3  O   UNL     1     -43.227 -48.982  13.545  1.00  0.00    -0.247 OA
HETATM    4  N   UNL     1     -43.970 -51.054  12.926  1.00  0.00    -0.338 N 
HETATM    5  H   UNL     1     -42.267 -50.826  11.115  1.00  0.00     0.172 HD
HETATM    6  H   UNL     1     -44.035 -51.762  12.213  1.00  0.00     0.164 HD
ENDROOT
BRANCH   1   7
HETATM    7  C   UNL     1     -41.286 -49.027  11.517  1.00  0.00     0.127 A 
HETATM    8  C   UNL     1     -41.503 -47.728  11.111  1.00  0.00     0.076 A 
HETATM    9  C   UNL     1     -40.242 -47.107  11.055  1.00  0.00     0.025 A 
HETATM   10  C   UNL     1     -39.957 -45.707  10.662  1.00  0.00     0.070 C 
HETATM   11  N   UNL     1     -39.270 -47.953  11.409  1.00  0.00    -0.302 N 
HETATM   12  N   UNL     1     -39.918 -49.106  11.691  1.00  0.00    -0.281 N 
ATOM     13  HN  UNL     1     -38.269 -47.770  11.457  1.00  0.00     0.186 HD
HETATM   14  C   UNL     1     -39.120 -50.222  12.126  1.00  0.00     0.179 C 
ENDBRANCH   1   7
BRANCH   4  15
HETATM   15  C   UNL     1     -44.886 -51.052  14.046  1.00  0.00     0.086 C 
HETATM   16  C   UNL     1     -44.572 -52.011  15.185  1.00  0.00     0.025 C 
HETATM   17  C   UNL     1     -45.893 -52.079  15.972  1.00  0.00     0.002 C 
HETATM   18  C   UNL     1     -46.968 -51.479  15.061  1.00  0.00     0.002 C 
HETATM   19  C   UNL     1     -46.321 -51.426  13.684  1.00  0.00     0.025 C 
ENDBRANCH   4  15
TORSDOF 2
ENDMDL
MODEL 9
REMARK VINA RESULT:      -5.3      3.329      4.544
REMARK  2 active torsions:
REMARK  status: ('A' for Active; 'I' for Inactive)
REMARK    1  A    between atoms: C_4  and  N_5 
REMARK       I    between atoms: N_5  and  C_6 
REMARK       I    between atoms: C_6  and  N_8 
REMARK    2  A    between atoms: N_8  and  C_9 
ROOT
HETATM    1  N   UNL     1     -41.964 -49.315  11.230  1.00  0.00    -0.293 N 
HETATM    2  C   UNL     1     -42.861 -49.527  12.317  1.00  0.00     0.322 C 
HETATM    3  O   UNL     1     -43.407 -48.608  12.899  1.00  0.00    -0.247 OA
HETATM    4  N   UNL     1     -43.023 -50.847  12.644  1.00  0.00    -0.338 N 
HETATM    5  H   UNL     1     -41.564 -50.107  10.758  1.00  0.00     0.172 HD
HETATM    6  H   UNL     1     -42.704 -51.599  12.055  1.00  0.00     0.164 HD
ENDROOT
BRANCH   1   7
HETATM    7  C   UNL     1     -41.598 -48.020  10.834  1.00  0.00     0.127 A 
HETATM    8  C   UNL     1     -40.506 -47.295  11.258  1.00  0.00     0.076 A 
HETATM    9  C   UNL     1     -40.553 -46.062  10.581  1.00  0.00     0.025 A 
HETATM   10  C   UNL     1     -39.594 -44.940  10.710  1.00  0.00     0.070 C 
HETATM   11  N   UNL     1     -41.608 -45.999   9.765  1.00  0.00    -0.302 N 
HETATM   12  N   UNL     1     -42.226 -47.192   9.925  1.00  0.00    -0.281 N 
ATOM     13  HN  UNL     1     -41.885 -45.227   9.160  1.00  0.00     0.186 HD
HETATM   14  C   UNL     1     -43.413 -47.431   9.147  1.00  0.00     0.179 C 
ENDBRANCH   1   7
BRANCH   4  15
HETATM   15  C   UNL     1     -43.874 -51.116  13.783  1.00  0.00     0.086 C 
HETATM   16  C   UNL     1     -43.575 -52.379  14.575  1.00  0.00     0.025 C 
HETATM   17  C   UNL     1     -44.852 -52.595  15.405  1.00  0.00     0.002 C 
HETATM   18  C   UNL     1     -45.926 -51.695  14.785  1.00  0.00     0.002 C 
HETATM   19  C   UNL     1     -45.351 -51.284  13.436  1.00  0.00     0.025 C 
ENDBRANCH   4  15
TORSDOF 2
ENDMDL
