MODEL 1
REMARK VINA RESULT:      -6.8      0.000      0.000
REMARK  3 active torsions:
REMARK  status: ('A' for Active; 'I' for Inactive)
REMARK    1  A    between atoms: C_5  and  N_8 
REMARK    2  A    between atoms: C_11  and  N_14 
REMARK       I    between atoms: N_14  and  C_15 
REMARK       I    between atoms: C_15  and  N_17 
REMARK    3  A    between atoms: N_17  and  C_18 
ROOT
HETATM    1  N   UNL     1     -40.568 -49.369  10.935  1.00  0.00    -0.338 N 
HETATM    2  C   UNL     1     -41.784 -48.729  10.833  1.00  0.00     0.322 C 
HETATM    3  O   UNL     1     -42.651 -48.816  11.695  1.00  0.00    -0.247 OA
HETATM    4  N   UNL     1     -41.896 -48.051   9.643  1.00  0.00    -0.295 N 
HETATM    5  H   UNL     1     -39.799 -48.872  10.506  1.00  0.00     0.164 HD
HETATM    6  H   UNL     1     -41.498 -48.532   8.850  1.00  0.00     0.172 HD
ENDROOT
BRANCH   1   7
HETATM    7  C   UNL     1     -40.282 -50.198  12.104  1.00  0.00     0.089 C 
HETATM    8  C   UNL     1     -40.744 -49.529  13.406  1.00  0.00     0.055 C 
HETATM    9  C   UNL     1     -39.777 -48.429  13.843  1.00  0.00     0.275 C 
HETATM   10  N   UNL     1     -38.383 -48.891  13.982  1.00  0.00     0.093 N 
HETATM   11  C   UNL     1     -37.939 -49.418  12.679  1.00  0.00     0.275 C 
HETATM   12  C   UNL     1     -38.798 -50.571  12.160  1.00  0.00     0.055 C 
BRANCH  10  13
HETATM   13  C   UNL     1     -38.163 -49.817  15.130  1.00  0.00     0.226 C 
HETATM   14  C   UNL     1     -38.853 -49.347  16.432  1.00  0.00     0.066 C 
HETATM   15  C   UNL     1     -38.194 -48.096  17.015  1.00  0.00     0.274 C 
HETATM   16  N   UNL     1     -36.755 -48.252  17.279  1.00  0.00     0.084 N 
HETATM   17  C   UNL     1     -36.495 -49.089  18.447  1.00  0.00     0.309 C 
HETATM   18  C   UNL     1     -36.059 -48.739  16.078  1.00  0.00     0.274 C 
HETATM   19  C   UNL     1     -36.672 -50.013  15.489  1.00  0.00     0.066 C 
ENDBRANCH  10  13
ENDBRANCH   1   7
BRANCH   4  20
HETATM   20  C   UNL     1     -43.084 -47.390   9.313  1.00  0.00     0.109 A 
HETATM   21  C   UNL     1     -43.148 -46.005   9.253  1.00  0.00     0.049 A 
HETATM   22  C   UNL     1     -44.374 -45.408   8.991  1.00  0.00     0.006 A 
HETATM   23  C   UNL     1     -45.494 -46.213   8.828  1.00  0.00     0.025 A 
HETATM   24  C   UNL     1     -45.344 -47.595   8.894  1.00  0.00     0.007 A 
HETATM   25  C   UNL     1     -46.539 -48.496   8.839  1.00  0.00     0.068 C 
HETATM   26  N   UNL     1     -44.143 -48.193   9.082  1.00  0.00    -0.346 N 
ATOM     27  HN  UNL     1     -44.044 -49.208   9.051  1.00  0.00     0.167 HD
ENDBRANCH   4  20
TORSDOF 3
ENDMDL
MODEL 2
REMARK VINA RESULT:      -6.7      3.369      4.082
REMARK  3 active torsions:
REMARK  status: ('A' for Active; 'I' for Inactive)
REMARK    1  A    between atoms: C_5  and  N_8 
REMARK    2  A    between atoms: C_11  and  N_14 
REMARK       I    between atoms: N_14  and  C_15 
REMARK       I    between atoms: C_15  and  N_17 
REMARK    3  A    between atoms: N_17  and  C_18 
ROOT
HETATM    1  N   UNL     1     -41.571 -49.576  12.295  1.00  0.00    -0.338 N 
HETATM    2  C   UNL     1     -42.422 -48.570  11.892  1.00  0.00     0.322 C 
HETATM    3  O   UNL     1     -43.043 -47.871  12.685  1.00  0.00    -0.247 OA
HETATM    4  N   UNL     1     -42.508 -48.504  10.522  1.00  0.00    -0.295 N 
HETATM    5  H   UNL     1     -40.780 -49.723  11.682  1.00  0.00     0.164 HD
HETATM    6  H   UNL     1     -42.517 -49.402  10.062  1.00  0.00     0.172 HD
ENDROOT
BRANCH   1   7
HETATM    7  C   UNL     1     -41.395 -49.846  13.721  1.00  0.00     0.089 C 
HETATM    8  C   UNL     1     -39.951 -50.244  14.052  1.00  0.00     0.055 C 
HETATM    9  C   UNL     1     -39.662 -51.691  13.654  1.00  0.00     0.275 C 
HETATM   10  N   UNL     1     -40.600 -52.663  14.248  1.00  0.00     0.093 N 
HETATM   11  C   UNL     1     -41.964 -52.315  13.809  1.00  0.00     0.275 C 
HETATM   12  C   UNL     1     -42.393 -50.902  14.204  1.00  0.00     0.055 C 
BRANCH  10  13
HETATM   13  C   UNL     1     -40.449 -52.828  15.722  1.00  0.00     0.226 C 
HETATM   14  C   UNL     1     -39.054 -53.354  16.136  1.00  0.00     0.066 C 
HETATM   15  C   UNL     1     -38.840 -54.810  15.717  1.00  0.00     0.274 C 
HETATM   16  N   UNL     1     -39.860 -55.733  16.236  1.00  0.00     0.084 N 
HETATM   17  C   UNL     1     -39.700 -55.987  17.666  1.00  0.00     0.309 C 
HETATM   18  C   UNL     1     -41.210 -55.252  15.903  1.00  0.00     0.274 C 
HETATM   19  C   UNL     1     -41.471 -53.808  16.342  1.00  0.00     0.066 C 
ENDBRANCH  10  13
ENDBRANCH   1   7
BRANCH   4  20
HETATM   20  C   UNL     1     -43.374 -47.593   9.909  1.00  0.00     0.109 A 
HETATM   21  C   UNL     1     -42.955 -46.315   9.566  1.00  0.00     0.049 A 
HETATM   22  C   UNL     1     -43.882 -45.434   9.026  1.00  0.00     0.006 A 
HETATM   23  C   UNL     1     -45.199 -45.850   8.877  1.00  0.00     0.025 A 
HETATM   24  C   UNL     1     -45.537 -47.151   9.237  1.00  0.00     0.007 A 
HETATM   25  C   UNL     1     -46.964 -47.607   9.202  1.00  0.00     0.068 C 
HETATM   26  N   UNL     1     -44.629 -48.043   9.702  1.00  0.00    -0.346 N 
ATOM     27  HN  UNL     1     -44.884 -49.013   9.888  1.00  0.00     0.167 HD
ENDBRANCH   4  20
TORSDOF 3
ENDMDL
MODEL 3
REMARK VINA RESULT:      -6.6      4.926      6.643
REMARK  3 active torsions:
REMARK  status: ('A' for Active; 'I' for Inactive)
REMARK    1  A    between atoms: C_5  and  N_8 
REMARK    2  A    between atoms: C_11  and  N_14 
REMARK       I    between atoms: N_14  and  C_15 
REMARK       I    between atoms: C_15  and  N_17 
REMARK    3  A    between atoms: N_17  and  C_18 
ROOT
HETATM    1  N   UNL     1     -43.287 -49.365  12.139  1.00  0.00    -0.338 N 
HETATM    2  C   UNL     1     -43.827 -50.221  13.072  1.00  0.00     0.322 C 
HETATM    3  O   UNL     1     -43.273 -50.476  14.135  1.00  0.00    -0.247 OA
HETATM    4  N   UNL     1     -45.008 -50.767  12.628  1.00  0.00    -0.295 N 
HETATM    5  H   UNL     1     -43.971 -48.846  11.604  1.00  0.00     0.164 HD
HETATM    6  H   UNL     1     -45.015 -51.002  11.647  1.00  0.00     0.172 HD
ENDROOT
BRANCH   1   7
HETATM    7  C   UNL     1     -41.995 -48.731  12.400  1.00  0.00     0.089 C 
HETATM    8  C   UNL     1     -42.062 -47.769  13.593  1.00  0.00     0.055 C 
HETATM    9  C   UNL     1     -42.729 -46.448  13.211  1.00  0.00     0.275 C 
HETATM   10  N   UNL     1     -42.093 -45.779  12.060  1.00  0.00     0.093 N 
HETATM   11  C   UNL     1     -42.156 -46.691  10.903  1.00  0.00     0.275 C 
HETATM   12  C   UNL     1     -41.465 -48.033  11.144  1.00  0.00     0.055 C 
BRANCH  10  13
HETATM   13  C   UNL     1     -40.734 -45.239  12.348  1.00  0.00     0.226 C 
HETATM   14  C   UNL     1     -40.649 -44.491  13.699  1.00  0.00     0.066 C 
HETATM   15  C   UNL     1     -41.422 -43.171  13.677  1.00  0.00     0.274 C 
HETATM   16  N   UNL     1     -40.999 -42.254  12.609  1.00  0.00     0.084 N 
HETATM   17  C   UNL     1     -39.704 -41.639  12.889  1.00  0.00     0.309 C 
HETATM   18  C   UNL     1     -41.022 -42.934  11.304  1.00  0.00     0.274 C 
HETATM   19  C   UNL     1     -40.226 -44.242  11.281  1.00  0.00     0.066 C 
ENDBRANCH  10  13
ENDBRANCH   1   7
BRANCH   4  20
HETATM   20  C   UNL     1     -45.685 -51.717  13.400  1.00  0.00     0.109 A 
HETATM   21  C   UNL     1     -46.621 -51.342  14.353  1.00  0.00     0.049 A 
HETATM   22  C   UNL     1     -47.204 -52.329  15.137  1.00  0.00     0.006 A 
HETATM   23  C   UNL     1     -46.809 -53.649  14.961  1.00  0.00     0.025 A 
HETATM   24  C   UNL     1     -45.870 -53.944  13.977  1.00  0.00     0.007 A 
HETATM   25  C   UNL     1     -45.331 -55.334  13.829  1.00  0.00     0.068 C 
HETATM   26  N   UNL     1     -45.343 -53.001  13.160  1.00  0.00    -0.346 N 
ATOM     27  HN  UNL     1     -44.714 -53.250  12.397  1.00  0.00     0.167 HD
ENDBRANCH   4  20
TORSDOF 3
ENDMDL
MODEL 4
REMARK VINA RESULT:      -6.6      3.638      4.088
REMARK  3 active torsions:
REMARK  status: ('A' for Active; 'I' for Inactive)
REMARK    1  A    between atoms: C_5  and  N_8 
REMARK    2  A    between atoms: C_11  and  N_14 
REMARK       I    between atoms: N_14  and  C_15 
REMARK       I    between atoms: C_15  and  N_17 
REMARK    3  A    between atoms: N_17  and  C_18 
ROOT
HETATM    1  N   UNL     1     -41.233 -51.164  12.404  1.00  0.00    -0.338 N 
HETATM    2  C   UNL     1     -41.850 -49.959  12.150  1.00  0.00     0.322 C 
HETATM    3  O   UNL     1     -42.762 -49.523  12.843  1.00  0.00    -0.247 OA
HETATM    4  N   UNL     1     -41.348 -49.367  11.015  1.00  0.00    -0.295 N 
HETATM    5  H   UNL     1     -40.254 -51.192  12.151  1.00  0.00     0.164 HD
HETATM    6  H   UNL     1     -41.144 -50.011  10.265  1.00  0.00     0.172 HD
ENDROOT
BRANCH   1   7
HETATM    7  C   UNL     1     -41.674 -51.978  13.535  1.00  0.00     0.089 C 
HETATM    8  C   UNL     1     -41.142 -51.438  14.869  1.00  0.00     0.055 C 
HETATM    9  C   UNL     1     -39.671 -51.797  15.073  1.00  0.00     0.275 C 
HETATM   10  N   UNL     1     -39.399 -53.244  14.973  1.00  0.00     0.093 N 
HETATM   11  C   UNL     1     -39.816 -53.699  13.634  1.00  0.00     0.275 C 
HETATM   12  C   UNL     1     -41.293 -53.447  13.332  1.00  0.00     0.055 C 
BRANCH  10  13
HETATM   13  C   UNL     1     -39.958 -54.045  16.099  1.00  0.00     0.226 C 
HETATM   14  C   UNL     1     -39.502 -53.542  17.489  1.00  0.00     0.066 C 
HETATM   15  C   UNL     1     -38.014 -53.801  17.736  1.00  0.00     0.274 C 
HETATM   16  N   UNL     1     -37.628 -55.214  17.601  1.00  0.00     0.084 N 
HETATM   17  C   UNL     1     -38.087 -56.023  18.727  1.00  0.00     0.309 C 
HETATM   18  C   UNL     1     -38.078 -55.751  16.308  1.00  0.00     0.274 C 
HETATM   19  C   UNL     1     -39.572 -55.541  16.044  1.00  0.00     0.066 C 
ENDBRANCH  10  13
ENDBRANCH   1   7
BRANCH   4  20
HETATM   20  C   UNL     1     -41.888 -48.167  10.543  1.00  0.00     0.109 A 
HETATM   21  C   UNL     1     -41.222 -46.960  10.704  1.00  0.00     0.049 A 
HETATM   22  C   UNL     1     -41.845 -45.795  10.278  1.00  0.00     0.006 A 
HETATM   23  C   UNL     1     -43.121 -45.873   9.735  1.00  0.00     0.025 A 
HETATM   24  C   UNL     1     -43.718 -47.123   9.599  1.00  0.00     0.007 A 
HETATM   25  C   UNL     1     -45.134 -47.245   9.127  1.00  0.00     0.068 C 
HETATM   26  N   UNL     1     -43.095 -48.274   9.949  1.00  0.00    -0.346 N 
ATOM     27  HN  UNL     1     -43.521 -49.184   9.770  1.00  0.00     0.167 HD
ENDBRANCH   4  20
TORSDOF 3
ENDMDL
MODEL 5
REMARK VINA RESULT:      -6.5      4.146      7.324
REMARK  3 active torsions:
REMARK  status: ('A' for Active; 'I' for Inactive)
REMARK    1  A    between atoms: C_5  and  N_8 
REMARK    2  A    between atoms: C_11  and  N_14 
REMARK       I    between atoms: N_14  and  C_15 
REMARK       I    between atoms: C_15  and  N_17 
REMARK    3  A    between atoms: N_17  and  C_18 
ROOT
HETATM    1  N   UNL     1     -41.120 -48.566  11.661  1.00  0.00    -0.338 N 
HETATM    2  C   UNL     1     -41.166 -49.721  12.410  1.00  0.00     0.322 C 
HETATM    3  O   UNL     1     -40.640 -49.817  13.513  1.00  0.00    -0.247 OA
HETATM    4  N   UNL     1     -41.818 -50.728  11.739  1.00  0.00    -0.295 N 
HETATM    5  H   UNL     1     -41.937 -48.410  11.085  1.00  0.00     0.164 HD
HETATM    6  H   UNL     1     -41.625 -50.762  10.749  1.00  0.00     0.172 HD
ENDROOT
BRANCH   1   7
HETATM    7  C   UNL     1     -40.411 -47.397  12.178  1.00  0.00     0.089 C 
HETATM    8  C   UNL     1     -41.184 -46.716  13.315  1.00  0.00     0.055 C 
HETATM    9  C   UNL     1     -42.347 -45.881  12.781  1.00  0.00     0.275 C 
HETATM   10  N   UNL     1     -41.940 -44.877  11.779  1.00  0.00     0.093 N 
HETATM   11  C   UNL     1     -41.307 -45.584  10.650  1.00  0.00     0.275 C 
HETATM   12  C   UNL     1     -40.087 -46.412  11.051  1.00  0.00     0.055 C 
BRANCH  10  13
HETATM   13  C   UNL     1     -41.130 -43.757  12.338  1.00  0.00     0.226 C 
HETATM   14  C   UNL     1     -41.810 -43.053  13.536  1.00  0.00     0.066 C 
HETATM   15  C   UNL     1     -43.046 -42.257  13.112  1.00  0.00     0.274 C 
HETATM   16  N   UNL     1     -42.776 -41.253  12.072  1.00  0.00     0.084 N 
HETATM   17  C   UNL     1     -42.053 -40.096  12.595  1.00  0.00     0.309 C 
HETATM   18  C   UNL     1     -42.090 -41.867  10.925  1.00  0.00     0.274 C 
HETATM   19  C   UNL     1     -40.827 -42.642  11.311  1.00  0.00     0.066 C 
ENDBRANCH  10  13
ENDBRANCH   1   7
BRANCH   4  20
HETATM   20  C   UNL     1     -41.914 -52.007  12.298  1.00  0.00     0.109 A 
HETATM   21  C   UNL     1     -43.144 -52.619  12.496  1.00  0.00     0.049 A 
HETATM   22  C   UNL     1     -43.175 -53.858  13.122  1.00  0.00     0.006 A 
HETATM   23  C   UNL     1     -41.983 -54.425  13.554  1.00  0.00     0.025 A 
HETATM   24  C   UNL     1     -40.791 -53.750  13.310  1.00  0.00     0.007 A 
HETATM   25  C   UNL     1     -39.495 -54.266  13.858  1.00  0.00     0.068 C 
HETATM   26  N   UNL     1     -40.738 -52.573  12.641  1.00  0.00    -0.346 N 
ATOM     27  HN  UNL     1     -39.848 -52.134  12.407  1.00  0.00     0.167 HD
ENDBRANCH   4  20
TORSDOF 3
ENDMDL
MODEL 6
REMARK VINA RESULT:      -6.3      4.462      7.185
REMARK  3 active torsions:
REMARK  status: ('A' for Active; 'I' for Inactive)
REMARK    1  A    between atoms: C_5  and  N_8 
REMARK    2  A    between atoms: C_11  and  N_14 
REMARK       I    between atoms: N_14  and  C_15 
REMARK       I    between atoms: C_15  and  N_17 
REMARK    3  A    between atoms: N_17  and  C_18 
ROOT
HETATM    1  N   UNL     1     -42.449 -49.685  12.506  1.00  0.00    -0.338 N 
HETATM    2  C   UNL     1     -43.000 -50.738  13.202  1.00  0.00     0.322 C 
HETATM    3  O   UNL     1     -44.059 -50.646  13.813  1.00  0.00    -0.247 OA
HETATM    4  N   UNL     1     -42.192 -51.849  13.155  1.00  0.00    -0.295 N 
HETATM    5  H   UNL     1     -41.928 -49.957  11.683  1.00  0.00     0.164 HD
HETATM    6  H   UNL     1     -41.205 -51.648  13.219  1.00  0.00     0.172 HD
ENDROOT
BRANCH   1   7
HETATM    7  C   UNL     1     -43.131 -48.392  12.491  1.00  0.00     0.089 C 
HETATM    8  C   UNL     1     -42.851 -47.614  11.198  1.00  0.00     0.055 C 
HETATM    9  C   UNL     1     -41.461 -46.978  11.217  1.00  0.00     0.275 C 
HETATM   10  N   UNL     1     -41.227 -46.110  12.387  1.00  0.00     0.093 N 
HETATM   11  C   UNL     1     -41.390 -46.924  13.605  1.00  0.00     0.275 C 
HETATM   12  C   UNL     1     -42.770 -47.569  13.731  1.00  0.00     0.055 C 
BRANCH  10  13
HETATM   13  C   UNL     1     -42.023 -44.849  12.376  1.00  0.00     0.226 C 
HETATM   14  C   UNL     1     -41.784 -43.990  11.111  1.00  0.00     0.066 C 
HETATM   15  C   UNL     1     -40.382 -43.379  11.086  1.00  0.00     0.274 C 
HETATM   16  N   UNL     1     -40.068 -42.565  12.270  1.00  0.00     0.084 N 
HETATM   17  C   UNL     1     -40.767 -41.282  12.260  1.00  0.00     0.309 C 
HETATM   18  C   UNL     1     -40.320 -43.327  13.503  1.00  0.00     0.274 C 
HETATM   19  C   UNL     1     -41.729 -43.922  13.577  1.00  0.00     0.066 C 
ENDBRANCH  10  13
ENDBRANCH   1   7
BRANCH   4  20
HETATM   20  C   UNL     1     -42.538 -53.008  13.858  1.00  0.00     0.109 A 
HETATM   21  C   UNL     1     -41.628 -53.651  14.685  1.00  0.00     0.049 A 
HETATM   22  C   UNL     1     -42.011 -54.837  15.297  1.00  0.00     0.006 A 
HETATM   23  C   UNL     1     -43.274 -55.352  15.038  1.00  0.00     0.025 A 
HETATM   24  C   UNL     1     -44.131 -54.641  14.202  1.00  0.00     0.007 A 
HETATM   25  C   UNL     1     -45.457 -55.214  13.803  1.00  0.00     0.068 C 
HETATM   26  N   UNL     1     -43.796 -53.450  13.652  1.00  0.00    -0.346 N 
ATOM     27  HN  UNL     1     -44.466 -52.910  13.105  1.00  0.00     0.167 HD
ENDBRANCH   4  20
TORSDOF 3
ENDMDL
MODEL 7
REMARK VINA RESULT:      -6.1      4.576      5.142
REMARK  3 active torsions:
REMARK  status: ('A' for Active; 'I' for Inactive)
REMARK    1  A    between atoms: C_5  and  N_8 
REMARK    2  A    between atoms: C_11  and  N_14 
REMARK       I    between atoms: N_14  and  C_15 
REMARK       I    between atoms: C_15  and  N_17 
REMARK    3  A    between atoms: N_17  and  C_18 
ROOT
HETATM    1  N   UNL     1     -41.834 -51.745  13.305  1.00  0.00    -0.338 N 
HETATM    2  C   UNL     1     -41.571 -50.758  12.381  1.00  0.00     0.322 C 
HETATM    3  O   UNL     1     -40.691 -50.861  11.535  1.00  0.00    -0.247 OA
HETATM    4  N   UNL     1     -42.376 -49.660  12.577  1.00  0.00    -0.295 N 
HETATM    5  H   UNL     1     -42.805 -51.812  13.579  1.00  0.00     0.164 HD
HETATM    6  H   UNL     1     -42.538 -49.430  13.545  1.00  0.00     0.172 HD
ENDROOT
BRANCH   1   7
HETATM    7  C   UNL     1     -41.035 -52.969  13.303  1.00  0.00     0.089 C 
HETATM    8  C   UNL     1     -41.830 -54.171  13.830  1.00  0.00     0.055 C 
HETATM    9  C   UNL     1     -41.941 -54.144  15.355  1.00  0.00     0.275 C 
HETATM   10  N   UNL     1     -40.635 -54.066  16.038  1.00  0.00     0.093 N 
HETATM   11  C   UNL     1     -39.954 -52.836  15.591  1.00  0.00     0.275 C 
HETATM   12  C   UNL     1     -39.731 -52.773  14.081  1.00  0.00     0.055 C 
BRANCH  10  13
HETATM   13  C   UNL     1     -39.814 -55.304  15.919  1.00  0.00     0.226 C 
HETATM   14  C   UNL     1     -40.439 -56.521  16.642  1.00  0.00     0.066 C 
HETATM   15  C   UNL     1     -40.406 -56.366  18.164  1.00  0.00     0.274 C 
HETATM   16  N   UNL     1     -39.058 -56.141  18.708  1.00  0.00     0.084 N 
HETATM   17  C   UNL     1     -38.243 -57.353  18.686  1.00  0.00     0.309 C 
HETATM   18  C   UNL     1     -38.404 -55.016  18.021  1.00  0.00     0.274 C 
HETATM   19  C   UNL     1     -38.387 -55.158  16.496  1.00  0.00     0.066 C 
ENDBRANCH  10  13
ENDBRANCH   1   7
BRANCH   4  20
HETATM   20  C   UNL     1     -42.221 -48.518  11.785  1.00  0.00     0.109 A 
HETATM   21  C   UNL     1     -41.569 -47.389  12.263  1.00  0.00     0.049 A 
HETATM   22  C   UNL     1     -41.512 -46.263  11.453  1.00  0.00     0.006 A 
HETATM   23  C   UNL     1     -42.133 -46.293  10.211  1.00  0.00     0.025 A 
HETATM   24  C   UNL     1     -42.759 -47.467   9.802  1.00  0.00     0.007 A 
HETATM   25  C   UNL     1     -43.539 -47.510   8.523  1.00  0.00     0.068 C 
HETATM   26  N   UNL     1     -42.764 -48.595  10.552  1.00  0.00    -0.346 N 
ATOM     27  HN  UNL     1     -43.163 -49.465  10.201  1.00  0.00     0.167 HD
ENDBRANCH   4  20
TORSDOF 3
ENDMDL
MODEL 8
REMARK VINA RESULT:      -5.9     14.390     16.586
REMARK  3 active torsions:
REMARK  status: ('A' for Active; 'I' for Inactive)
REMARK    1  A    between atoms: C_5  and  N_8 
REMARK    2  A    between atoms: C_11  and  N_14 
REMARK       I    between atoms: N_14  and  C_15 
REMARK       I    between atoms: C_15  and  N_17 
REMARK    3  A    between atoms: N_17  and  C_18 
ROOT
HETATM    1  N   UNL     1     -50.564 -48.742  -0.395  1.00  0.00    -0.338 N 
HETATM    2  C   UNL     1     -50.664 -50.114  -0.324  1.00  0.00     0.322 C 
HETATM    3  O   UNL     1     -49.856 -50.806   0.285  1.00  0.00    -0.247 OA
HETATM    4  N   UNL     1     -51.731 -50.578  -1.056  1.00  0.00    -0.295 N 
HETATM    5  H   UNL     1     -51.453 -48.261  -0.444  1.00  0.00     0.164 HD
HETATM    6  H   UNL     1     -51.880 -50.093  -1.928  1.00  0.00     0.172 HD
ENDROOT
BRANCH   1   7
HETATM    7  C   UNL     1     -49.452 -48.062   0.267  1.00  0.00     0.089 C 
HETATM    8  C   UNL     1     -49.791 -47.690   1.717  1.00  0.00     0.055 C 
HETATM    9  C   UNL     1     -50.695 -46.460   1.783  1.00  0.00     0.275 C 
HETATM   10  N   UNL     1     -50.143 -45.286   1.079  1.00  0.00     0.093 N 
HETATM   11  C   UNL     1     -49.943 -45.649  -0.336  1.00  0.00     0.275 C 
HETATM   12  C   UNL     1     -49.003 -46.838  -0.536  1.00  0.00     0.055 C 
BRANCH  10  13
HETATM   13  C   UNL     1     -48.947 -44.690   1.739  1.00  0.00     0.226 C 
HETATM   14  C   UNL     1     -49.163 -44.400   3.243  1.00  0.00     0.066 C 
HETATM   15  C   UNL     1     -50.150 -43.253   3.473  1.00  0.00     0.274 C 
HETATM   16  N   UNL     1     -49.768 -42.000   2.805  1.00  0.00     0.084 N 
HETATM   17  C   UNL     1     -48.647 -41.338   3.469  1.00  0.00     0.309 C 
HETATM   18  C   UNL     1     -49.510 -42.233   1.376  1.00  0.00     0.274 C 
HETATM   19  C   UNL     1     -48.498 -43.351   1.111  1.00  0.00     0.066 C 
ENDBRANCH  10  13
ENDBRANCH   1   7
BRANCH   4  20
HETATM   20  C   UNL     1     -51.969 -51.951  -1.171  1.00  0.00     0.109 A 
HETATM   21  C   UNL     1     -53.128 -52.529  -0.673  1.00  0.00     0.049 A 
HETATM   22  C   UNL     1     -53.270 -53.908  -0.754  1.00  0.00     0.006 A 
HETATM   23  C   UNL     1     -52.239 -54.661  -1.302  1.00  0.00     0.025 A 
HETATM   24  C   UNL     1     -51.112 -54.004  -1.787  1.00  0.00     0.007 A 
HETATM   25  C   UNL     1     -49.929 -54.780  -2.280  1.00  0.00     0.068 C 
HETATM   26  N   UNL     1     -50.989 -52.655  -1.775  1.00  0.00    -0.346 N 
ATOM     27  HN  UNL     1     -50.189 -52.191  -2.205  1.00  0.00     0.167 HD
ENDBRANCH   4  20
TORSDOF 3
ENDMDL
MODEL 9
REMARK VINA RESULT:      -5.9      4.262      5.913
REMARK  3 active torsions:
REMARK  status: ('A' for Active; 'I' for Inactive)
REMARK    1  A    between atoms: C_5  and  N_8 
REMARK    2  A    between atoms: C_11  and  N_14 
REMARK       I    between atoms: N_14  and  C_15 
REMARK       I    between atoms: C_15  and  N_17 
REMARK    3  A    between atoms: N_17  and  C_18 
ROOT
HETATM    1  N   UNL     1     -41.543 -45.946  11.578  1.00  0.00    -0.338 N 
HETATM    2  C   UNL     1     -41.092 -44.660  11.374  1.00  0.00     0.322 C 
HETATM    3  O   UNL     1     -40.013 -44.413  10.849  1.00  0.00    -0.247 OA
HETATM    4  N   UNL     1     -41.975 -43.733  11.876  1.00  0.00    -0.295 N 
HETATM    5  H   UNL     1     -42.547 -46.049  11.521  1.00  0.00     0.164 HD
HETATM    6  H   UNL     1     -42.403 -43.998  12.750  1.00  0.00     0.172 HD
ENDROOT
BRANCH   1   7
HETATM    7  C   UNL     1     -40.712 -47.077  11.170  1.00  0.00     0.089 C 
HETATM    8  C   UNL     1     -41.557 -48.254  10.666  1.00  0.00     0.055 C 
HETATM    9  C   UNL     1     -42.189 -49.026  11.824  1.00  0.00     0.275 C 
HETATM   10  N   UNL     1     -41.209 -49.500  12.820  1.00  0.00     0.093 N 
HETATM   11  C   UNL     1     -40.501 -48.328  13.365  1.00  0.00     0.275 C 
HETATM   12  C   UNL     1     -39.774 -47.503  12.303  1.00  0.00     0.055 C 
BRANCH  10  13
HETATM   13  C   UNL     1     -40.316 -50.585  12.322  1.00  0.00     0.226 C 
HETATM   14  C   UNL     1     -41.085 -51.854  11.884  1.00  0.00     0.066 C 
HETATM   15  C   UNL     1     -41.704 -52.592  13.074  1.00  0.00     0.274 C 
HETATM   16  N   UNL     1     -40.731 -52.969  14.110  1.00  0.00     0.084 N 
HETATM   17  C   UNL     1     -39.885 -54.085  13.694  1.00  0.00     0.309 C 
HETATM   18  C   UNL     1     -39.943 -51.800  14.530  1.00  0.00     0.274 C 
HETATM   19  C   UNL     1     -39.279 -51.059  13.366  1.00  0.00     0.066 C 
ENDBRANCH  10  13
ENDBRANCH   1   7
BRANCH   4  20
HETATM   20  C   UNL     1     -41.671 -42.369  11.831  1.00  0.00     0.109 A 
HETATM   21  C   UNL     1     -42.329 -41.510  10.962  1.00  0.00     0.049 A 
HETATM   22  C   UNL     1     -41.931 -40.180  10.915  1.00  0.00     0.006 A 
HETATM   23  C   UNL     1     -40.873 -39.765  11.714  1.00  0.00     0.025 A 
HETATM   24  C   UNL     1     -40.272 -40.687  12.565  1.00  0.00     0.007 A 
HETATM   25  C   UNL     1     -39.057 -40.314  13.358  1.00  0.00     0.068 C 
HETATM   26  N   UNL     1     -40.693 -41.970  12.671  1.00  0.00    -0.346 N 
ATOM     27  HN  UNL     1     -40.288 -42.608  13.356  1.00  0.00     0.167 HD
ENDBRANCH   4  20
TORSDOF 3
ENDMDL
