MODEL 1
REMARK VINA RESULT:      -6.7      0.000      0.000
REMARK  6 active torsions:
REMARK  status: ('A' for Active; 'I' for Inactive)
REMARK    1  A    between atoms: C_2  and  C_3 
REMARK       I    between atoms: C_2  and  N_19 
REMARK    2  A    between atoms: C_3  and  N_4 
REMARK    3  A    between atoms: C_7  and  C_8 
REMARK    4  A    between atoms: C_8  and  N_9 
REMARK    5  A    between atoms: N_13  and  C_14 
REMARK    6  A    between atoms: N_19  and  C_20 
ROOT
HETATM    1  N   UNL     1     -38.457 -50.784  13.517  1.00  0.00    -0.256 N 
HETATM    2  C   UNL     1     -37.689 -50.973  12.374  1.00  0.00     0.273 C 
HETATM    3  O   UNL     1     -36.940 -51.928  12.199  1.00  0.00    -0.266 OA
HETATM    4  C   UNL     1     -37.770 -49.903  11.356  1.00  0.00     0.110 C 
HETATM    5  C   UNL     1     -38.584 -48.867  11.567  1.00  0.00     0.123 C 
HETATM    6  N   UNL     1     -39.317 -48.735  12.722  1.00  0.00    -0.303 N 
HETATM    7  C   UNL     1     -39.190 -49.627  13.790  1.00  0.00     0.332 C 
HETATM    8  O   UNL     1     -39.687 -49.412  14.898  1.00  0.00    -0.246 OA
ENDROOT
BRANCH   1   9
HETATM    9  C   UNL     1     -38.372 -51.772  14.583  1.00  0.00     0.239 C 
BRANCH   9  10
HETATM   10  C   UNL     1     -39.334 -52.937  14.328  1.00  0.00     0.236 C 
HETATM   11  O   UNL     1     -38.950 -54.092  14.174  1.00  0.00    -0.272 OA
HETATM   12  N   UNL     1     -40.658 -52.549  14.218  1.00  0.00    -0.355 N 
HETATM   13  H   UNL     1     -40.805 -51.585  13.916  1.00  0.00     0.162 HD
BRANCH  12  14
HETATM   14  C   UNL     1     -41.736 -53.495  13.934  1.00  0.00     0.084 C 
HETATM   15  C   UNL     1     -42.887 -52.794  13.193  1.00  0.00     0.025 C 
HETATM   16  C   UNL     1     -43.826 -53.788  12.511  1.00  0.00     0.002 C 
HETATM   17  C   UNL     1     -44.950 -54.344  13.381  1.00  0.00     0.000 C 
HETATM   18  C   UNL     1     -44.635 -54.618  14.849  1.00  0.00     0.000 C 
HETATM   19  C   UNL     1     -43.257 -55.213  15.116  1.00  0.00     0.002 C 
HETATM   20  C   UNL     1     -42.167 -54.151  15.251  1.00  0.00     0.025 C 
ENDBRANCH  12  14
ENDBRANCH   9  10
ENDBRANCH   1   9
BRANCH   4  21
HETATM   21  C   UNL     1     -36.941 -49.982  10.084  1.00  0.00    -0.030 C 
BRANCH  21  22
HETATM   22  N   UNL     1     -36.254 -50.047   9.029  1.00  0.00    -0.365 N 
ATOM     23  HN2 UNL     1     -36.774 -50.046   9.907  1.00  0.00     0.165 HD
ATOM     24  HN1 UNL     1     -35.699 -50.098   8.175  1.00  0.00     0.165 HD
ENDBRANCH  21  22
ENDBRANCH   4  21
BRANCH   6  25
HETATM   25  C   UNL     1     -40.166 -47.572  12.855  1.00  0.00     0.094 A 
HETATM   26  C   UNL     1     -40.085 -46.426  11.873  1.00  0.00     0.028 A 
HETATM   27  C   UNL     1     -39.619 -46.230  13.281  1.00  0.00     0.028 A 
ENDBRANCH   6  25
TORSDOF 6
ENDMDL
MODEL 2
REMARK VINA RESULT:      -6.4      2.895      4.419
REMARK  6 active torsions:
REMARK  status: ('A' for Active; 'I' for Inactive)
REMARK    1  A    between atoms: C_2  and  C_3 
REMARK       I    between atoms: C_2  and  N_19 
REMARK    2  A    between atoms: C_3  and  N_4 
REMARK    3  A    between atoms: C_7  and  C_8 
REMARK    4  A    between atoms: C_8  and  N_9 
REMARK    5  A    between atoms: N_13  and  C_14 
REMARK    6  A    between atoms: N_19  and  C_20 
ROOT
HETATM    1  N   UNL     1     -40.890 -48.074  11.430  1.00  0.00    -0.256 N 
HETATM    2  C   UNL     1     -41.928 -47.602  10.635  1.00  0.00     0.273 C 
HETATM    3  O   UNL     1     -42.544 -48.291   9.829  1.00  0.00    -0.266 OA
HETATM    4  C   UNL     1     -42.238 -46.162  10.765  1.00  0.00     0.110 C 
HETATM    5  C   UNL     1     -41.552 -45.426  11.641  1.00  0.00     0.123 C 
HETATM    6  N   UNL     1     -40.532 -45.952  12.398  1.00  0.00    -0.303 N 
HETATM    7  C   UNL     1     -40.084 -47.265  12.235  1.00  0.00     0.332 C 
HETATM    8  O   UNL     1     -39.050 -47.685  12.760  1.00  0.00    -0.246 OA
ENDROOT
BRANCH   1   9
HETATM    9  C   UNL     1     -40.496 -49.470  11.304  1.00  0.00     0.239 C 
BRANCH   9  10
HETATM   10  C   UNL     1     -41.153 -50.326  12.391  1.00  0.00     0.236 C 
HETATM   11  O   UNL     1     -40.564 -50.668  13.411  1.00  0.00    -0.272 OA
HETATM   12  N   UNL     1     -42.440 -50.730  12.077  1.00  0.00    -0.355 N 
HETATM   13  H   UNL     1     -42.648 -50.782  11.078  1.00  0.00     0.162 HD
BRANCH  12  14
HETATM   14  C   UNL     1     -43.234 -51.586  12.955  1.00  0.00     0.084 C 
HETATM   15  C   UNL     1     -43.473 -52.956  12.300  1.00  0.00     0.025 C 
HETATM   16  C   UNL     1     -43.916 -54.013  13.311  1.00  0.00     0.002 C 
HETATM   17  C   UNL     1     -45.415 -54.075  13.593  1.00  0.00     0.000 C 
HETATM   18  C   UNL     1     -46.182 -52.756  13.620  1.00  0.00     0.000 C 
HETATM   19  C   UNL     1     -45.449 -51.593  14.280  1.00  0.00     0.002 C 
HETATM   20  C   UNL     1     -44.528 -50.847  13.316  1.00  0.00     0.025 C 
ENDBRANCH  12  14
ENDBRANCH   9  10
ENDBRANCH   1   9
BRANCH   4  21
HETATM   21  C   UNL     1     -43.325 -45.527   9.913  1.00  0.00    -0.030 C 
BRANCH  21  22
HETATM   22  N   UNL     1     -44.227 -44.998   9.208  1.00  0.00    -0.365 N 
ATOM     23  HN2 UNL     1     -43.456 -45.419   9.726  1.00  0.00     0.165 HD
ATOM     24  HN1 UNL     1     -44.957 -44.570   8.637  1.00  0.00     0.165 HD
ENDBRANCH  21  22
ENDBRANCH   4  21
BRANCH   6  25
HETATM   25  C   UNL     1     -39.847 -45.069  13.316  1.00  0.00     0.094 A 
HETATM   26  C   UNL     1     -40.046 -43.572  13.259  1.00  0.00     0.028 A 
HETATM   27  C   UNL     1     -38.728 -44.160  12.864  1.00  0.00     0.028 A 
ENDBRANCH   6  25
TORSDOF 6
ENDMDL
MODEL 3
REMARK VINA RESULT:      -6.4      3.610      7.364
REMARK  6 active torsions:
REMARK  status: ('A' for Active; 'I' for Inactive)
REMARK    1  A    between atoms: C_2  and  C_3 
REMARK       I    between atoms: C_2  and  N_19 
REMARK    2  A    between atoms: C_3  and  N_4 
REMARK    3  A    between atoms: C_7  and  C_8 
REMARK    4  A    between atoms: C_8  and  N_9 
REMARK    5  A    between atoms: N_13  and  C_14 
REMARK    6  A    between atoms: N_19  and  C_20 
ROOT
HETATM    1  N   UNL     1     -44.252 -53.018  14.835  1.00  0.00    -0.256 N 
HETATM    2  C   UNL     1     -44.735 -52.733  13.563  1.00  0.00     0.273 C 
HETATM    3  O   UNL     1     -44.107 -52.932  12.528  1.00  0.00    -0.266 OA
HETATM    4  C   UNL     1     -46.071 -52.102  13.505  1.00  0.00     0.110 C 
HETATM    5  C   UNL     1     -46.737 -51.886  14.641  1.00  0.00     0.123 C 
HETATM    6  N   UNL     1     -46.203 -52.187  15.872  1.00  0.00    -0.303 N 
HETATM    7  C   UNL     1     -44.895 -52.654  16.021  1.00  0.00     0.332 C 
HETATM    8  O   UNL     1     -44.341 -52.738  17.119  1.00  0.00    -0.246 OA
ENDROOT
BRANCH   1   9
HETATM    9  C   UNL     1     -42.917 -53.584  14.962  1.00  0.00     0.239 C 
BRANCH   9  10
HETATM   10  C   UNL     1     -41.849 -52.486  14.915  1.00  0.00     0.236 C 
HETATM   11  O   UNL     1     -41.609 -51.755  15.870  1.00  0.00    -0.272 OA
HETATM   12  N   UNL     1     -41.241 -52.356  13.678  1.00  0.00    -0.355 N 
HETATM   13  H   UNL     1     -41.800 -52.671  12.883  1.00  0.00     0.162 HD
BRANCH  12  14
HETATM   14  C   UNL     1     -40.224 -51.343  13.402  1.00  0.00     0.084 C 
HETATM   15  C   UNL     1     -40.313 -50.875  11.940  1.00  0.00     0.025 C 
HETATM   16  C   UNL     1     -39.583 -49.552  11.710  1.00  0.00     0.002 C 
HETATM   17  C   UNL     1     -38.091 -49.661  11.408  1.00  0.00     0.000 C 
HETATM   18  C   UNL     1     -37.302 -50.745  12.136  1.00  0.00     0.000 C 
HETATM   19  C   UNL     1     -37.681 -50.952  13.599  1.00  0.00     0.002 C 
HETATM   20  C   UNL     1     -38.853 -51.915  13.779  1.00  0.00     0.025 C 
ENDBRANCH  12  14
ENDBRANCH   9  10
ENDBRANCH   1   9
BRANCH   4  21
HETATM   21  C   UNL     1     -46.681 -51.706  12.170  1.00  0.00    -0.030 C 
BRANCH  21  22
HETATM   22  N   UNL     1     -47.187 -51.380  11.062  1.00  0.00    -0.365 N 
ATOM     23  HN2 UNL     1     -46.811 -51.703  11.954  1.00  0.00     0.165 HD
ATOM     24  HN1 UNL     1     -47.596 -51.115  10.166  1.00  0.00     0.165 HD
ENDBRANCH  21  22
ENDBRANCH   4  21
BRANCH   6  25
HETATM   25  C   UNL     1     -47.004 -51.910  17.042  1.00  0.00     0.094 A 
HETATM   26  C   UNL     1     -48.206 -50.996  16.971  1.00  0.00     0.028 A 
HETATM   27  C   UNL     1     -46.986 -50.559  17.720  1.00  0.00     0.028 A 
ENDBRANCH   6  25
TORSDOF 6
ENDMDL
MODEL 4
REMARK VINA RESULT:      -6.3      2.640      7.751
REMARK  6 active torsions:
REMARK  status: ('A' for Active; 'I' for Inactive)
REMARK    1  A    between atoms: C_2  and  C_3 
REMARK       I    between atoms: C_2  and  N_19 
REMARK    2  A    between atoms: C_3  and  N_4 
REMARK    3  A    between atoms: C_7  and  C_8 
REMARK    4  A    between atoms: C_8  and  N_9 
REMARK    5  A    between atoms: N_13  and  C_14 
REMARK    6  A    between atoms: N_19  and  C_20 
ROOT
HETATM    1  N   UNL     1     -42.170 -53.442  12.986  1.00  0.00    -0.256 N 
HETATM    2  C   UNL     1     -43.542 -53.668  12.991  1.00  0.00     0.273 C 
HETATM    3  O   UNL     1     -44.321 -53.191  12.173  1.00  0.00    -0.266 OA
HETATM    4  C   UNL     1     -44.056 -54.497  14.102  1.00  0.00     0.110 C 
HETATM    5  C   UNL     1     -43.195 -55.002  14.988  1.00  0.00     0.123 C 
HETATM    6  N   UNL     1     -41.847 -54.738  14.931  1.00  0.00    -0.303 N 
HETATM    7  C   UNL     1     -41.301 -53.852  13.998  1.00  0.00     0.332 C 
HETATM    8  O   UNL     1     -40.134 -53.457  14.062  1.00  0.00    -0.246 OA
ENDROOT
BRANCH   1   9
HETATM    9  C   UNL     1     -41.611 -52.582  11.952  1.00  0.00     0.239 C 
BRANCH   9  10
HETATM   10  C   UNL     1     -41.689 -51.108  12.364  1.00  0.00     0.236 C 
HETATM   11  O   UNL     1     -42.040 -50.750  13.483  1.00  0.00    -0.272 OA
HETATM   12  N   UNL     1     -41.395 -50.229  11.335  1.00  0.00    -0.355 N 
HETATM   13  H   UNL     1     -41.562 -50.589  10.394  1.00  0.00     0.162 HD
BRANCH  12  14
HETATM   14  C   UNL     1     -41.449 -48.777  11.499  1.00  0.00     0.084 C 
HETATM   15  C   UNL     1     -42.131 -48.124  10.286  1.00  0.00     0.025 C 
HETATM   16  C   UNL     1     -42.589 -46.695  10.580  1.00  0.00     0.002 C 
HETATM   17  C   UNL     1     -41.542 -45.605  10.366  1.00  0.00     0.000 C 
HETATM   18  C   UNL     1     -40.098 -45.935  10.729  1.00  0.00     0.000 C 
HETATM   19  C   UNL     1     -39.920 -46.760  11.999  1.00  0.00     0.002 C 
HETATM   20  C   UNL     1     -40.027 -48.263  11.752  1.00  0.00     0.025 C 
ENDBRANCH  12  14
ENDBRANCH   9  10
ENDBRANCH   1   9
BRANCH   4  21
HETATM   21  C   UNL     1     -45.544 -54.775  14.234  1.00  0.00    -0.030 C 
BRANCH  21  22
HETATM   22  N   UNL     1     -46.780 -55.004  14.343  1.00  0.00    -0.365 N 
ATOM     23  HN2 UNL     1     -45.796 -54.769  14.212  1.00  0.00     0.165 HD
ATOM     24  HN1 UNL     1     -47.779 -55.190  14.431  1.00  0.00     0.165 HD
ENDBRANCH  21  22
ENDBRANCH   4  21
BRANCH   6  25
HETATM   25  C   UNL     1     -40.999 -55.329  15.942  1.00  0.00     0.094 A 
HETATM   26  C   UNL     1     -41.584 -56.089  17.109  1.00  0.00     0.028 A 
HETATM   27  C   UNL     1     -40.919 -54.770  17.343  1.00  0.00     0.028 A 
ENDBRANCH   6  25
TORSDOF 6
ENDMDL
MODEL 5
REMARK VINA RESULT:      -6.3      1.717      1.990
REMARK  6 active torsions:
REMARK  status: ('A' for Active; 'I' for Inactive)
REMARK    1  A    between atoms: C_2  and  C_3 
REMARK       I    between atoms: C_2  and  N_19 
REMARK    2  A    between atoms: C_3  and  N_4 
REMARK    3  A    between atoms: C_7  and  C_8 
REMARK    4  A    between atoms: C_8  and  N_9 
REMARK    5  A    between atoms: N_13  and  C_14 
REMARK    6  A    between atoms: N_19  and  C_20 
ROOT
HETATM    1  N   UNL     1     -39.478 -50.366  14.176  1.00  0.00    -0.256 N 
HETATM    2  C   UNL     1     -38.730 -50.740  13.065  1.00  0.00     0.273 C 
HETATM    3  O   UNL     1     -38.287 -51.868  12.883  1.00  0.00    -0.266 OA
HETATM    4  C   UNL     1     -38.430 -49.663  12.097  1.00  0.00     0.110 C 
HETATM    5  C   UNL     1     -38.913 -48.439  12.316  1.00  0.00     0.123 C 
HETATM    6  N   UNL     1     -39.646 -48.131  13.438  1.00  0.00    -0.303 N 
HETATM    7  C   UNL     1     -39.854 -49.053  14.467  1.00  0.00     0.332 C 
HETATM    8  O   UNL     1     -40.333 -48.734  15.558  1.00  0.00    -0.246 OA
ENDROOT
BRANCH   1   9
HETATM    9  C   UNL     1     -39.755 -51.368  15.197  1.00  0.00     0.239 C 
BRANCH   9  10
HETATM   10  C   UNL     1     -41.002 -52.183  14.840  1.00  0.00     0.236 C 
HETATM   11  O   UNL     1     -40.949 -53.364  14.511  1.00  0.00    -0.272 OA
HETATM   12  N   UNL     1     -42.172 -51.443  14.857  1.00  0.00    -0.355 N 
HETATM   13  H   UNL     1     -42.056 -50.442  14.696  1.00  0.00     0.162 HD
BRANCH  12  14
HETATM   14  C   UNL     1     -43.471 -52.015  14.508  1.00  0.00     0.084 C 
HETATM   15  C   UNL     1     -43.637 -52.085  12.981  1.00  0.00     0.025 C 
HETATM   16  C   UNL     1     -44.758 -53.036  12.562  1.00  0.00     0.002 C 
HETATM   17  C   UNL     1     -46.159 -52.432  12.518  1.00  0.00     0.000 C 
HETATM   18  C   UNL     1     -46.516 -51.402  13.585  1.00  0.00     0.000 C 
HETATM   19  C   UNL     1     -45.989 -51.707  14.983  1.00  0.00     0.002 C 
HETATM   20  C   UNL     1     -44.565 -51.199  15.205  1.00  0.00     0.025 C 
ENDBRANCH  12  14
ENDBRANCH   9  10
ENDBRANCH   1   9
BRANCH   4  21
HETATM   21  C   UNL     1     -37.583 -49.946  10.867  1.00  0.00    -0.030 C 
BRANCH  21  22
HETATM   22  N   UNL     1     -36.881 -50.179   9.845  1.00  0.00    -0.365 N 
ATOM     23  HN2 UNL     1     -37.394 -49.965  10.701  1.00  0.00     0.165 HD
ATOM     24  HN1 UNL     1     -36.314 -50.368   9.018  1.00  0.00     0.165 HD
ENDBRANCH  21  22
ENDBRANCH   4  21
BRANCH   6  25
HETATM   25  C   UNL     1     -40.120 -46.773  13.584  1.00  0.00     0.094 A 
HETATM   26  C   UNL     1     -39.655 -45.676  12.655  1.00  0.00     0.028 A 
HETATM   27  C   UNL     1     -39.226 -45.665  14.088  1.00  0.00     0.028 A 
ENDBRANCH   6  25
TORSDOF 6
ENDMDL
MODEL 6
REMARK VINA RESULT:      -6.1      2.276      3.548
REMARK  6 active torsions:
REMARK  status: ('A' for Active; 'I' for Inactive)
REMARK    1  A    between atoms: C_2  and  C_3 
REMARK       I    between atoms: C_2  and  N_19 
REMARK    2  A    between atoms: C_3  and  N_4 
REMARK    3  A    between atoms: C_7  and  C_8 
REMARK    4  A    between atoms: C_8  and  N_9 
REMARK    5  A    between atoms: N_13  and  C_14 
REMARK    6  A    between atoms: N_19  and  C_20 
ROOT
HETATM    1  N   UNL     1     -40.072 -51.012  12.310  1.00  0.00    -0.256 N 
HETATM    2  C   UNL     1     -40.397 -49.773  11.769  1.00  0.00     0.273 C 
HETATM    3  O   UNL     1     -41.285 -49.596  10.942  1.00  0.00    -0.266 OA
HETATM    4  C   UNL     1     -39.558 -48.637  12.205  1.00  0.00     0.110 C 
HETATM    5  C   UNL     1     -38.590 -48.850  13.099  1.00  0.00     0.123 C 
HETATM    6  N   UNL     1     -38.315 -50.102  13.596  1.00  0.00    -0.303 N 
HETATM    7  C   UNL     1     -38.967 -51.247  13.131  1.00  0.00     0.332 C 
HETATM    8  O   UNL     1     -38.595 -52.386  13.420  1.00  0.00    -0.246 OA
ENDROOT
BRANCH   1   9
HETATM    9  C   UNL     1     -40.823 -52.181  11.873  1.00  0.00     0.239 C 
BRANCH   9  10
HETATM   10  C   UNL     1     -42.095 -52.359  12.707  1.00  0.00     0.236 C 
HETATM   11  O   UNL     1     -42.108 -52.241  13.928  1.00  0.00    -0.272 OA
HETATM   12  N   UNL     1     -43.199 -52.733  11.961  1.00  0.00    -0.355 N 
HETATM   13  H   UNL     1     -42.990 -53.225  11.091  1.00  0.00     0.162 HD
BRANCH  12  14
HETATM   14  C   UNL     1     -44.505 -52.997  12.563  1.00  0.00     0.084 C 
HETATM   15  C   UNL     1     -44.986 -51.775  13.362  1.00  0.00     0.025 C 
HETATM   16  C   UNL     1     -46.486 -51.825  13.652  1.00  0.00     0.002 C 
HETATM   17  C   UNL     1     -46.894 -52.595  14.905  1.00  0.00     0.000 C 
HETATM   18  C   UNL     1     -46.101 -53.852  15.250  1.00  0.00     0.000 C 
HETATM   19  C   UNL     1     -45.711 -54.719  14.058  1.00  0.00     0.002 C 
HETATM   20  C   UNL     1     -44.405 -54.276  13.402  1.00  0.00     0.025 C 
ENDBRANCH  12  14
ENDBRANCH   9  10
ENDBRANCH   1   9
BRANCH   4  21
HETATM   21  C   UNL     1     -39.794 -47.243  11.646  1.00  0.00    -0.030 C 
BRANCH  21  22
HETATM   22  N   UNL     1     -39.989 -46.088  11.181  1.00  0.00    -0.365 N 
ATOM     23  HN2 UNL     1     -39.824 -46.994  11.618  1.00  0.00     0.165 HD
ATOM     24  HN1 UNL     1     -40.147 -45.153  10.803  1.00  0.00     0.165 HD
ENDBRANCH  21  22
ENDBRANCH   4  21
BRANCH   6  25
HETATM   25  C   UNL     1     -37.243 -50.227  14.558  1.00  0.00     0.094 A 
HETATM   26  C   UNL     1     -37.528 -50.448  16.025  1.00  0.00     0.028 A 
HETATM   27  C   UNL     1     -36.950 -49.145  15.571  1.00  0.00     0.028 A 
ENDBRANCH   6  25
TORSDOF 6
ENDMDL
MODEL 7
REMARK VINA RESULT:      -6.1      2.180      2.998
REMARK  6 active torsions:
REMARK  status: ('A' for Active; 'I' for Inactive)
REMARK    1  A    between atoms: C_2  and  C_3 
REMARK       I    between atoms: C_2  and  N_19 
REMARK    2  A    between atoms: C_3  and  N_4 
REMARK    3  A    between atoms: C_7  and  C_8 
REMARK    4  A    between atoms: C_8  and  N_9 
REMARK    5  A    between atoms: N_13  and  C_14 
REMARK    6  A    between atoms: N_19  and  C_20 
ROOT
HETATM    1  N   UNL     1     -40.094 -51.153  12.451  1.00  0.00    -0.256 N 
HETATM    2  C   UNL     1     -39.024 -51.316  13.323  1.00  0.00     0.273 C 
HETATM    3  O   UNL     1     -38.622 -52.403  13.724  1.00  0.00    -0.266 OA
HETATM    4  C   UNL     1     -38.397 -50.070  13.815  1.00  0.00     0.110 C 
HETATM    5  C   UNL     1     -38.852 -48.896  13.375  1.00  0.00     0.123 C 
HETATM    6  N   UNL     1     -39.919 -48.800  12.513  1.00  0.00    -0.303 N 
HETATM    7  C   UNL     1     -40.654 -49.919  12.113  1.00  0.00     0.332 C 
HETATM    8  O   UNL     1     -41.724 -49.828  11.506  1.00  0.00    -0.246 OA
ENDROOT
BRANCH   1   9
HETATM    9  C   UNL     1     -40.794 -52.340  11.979  1.00  0.00     0.239 C 
BRANCH   9  10
HETATM   10  C   UNL     1     -42.071 -52.582  12.790  1.00  0.00     0.236 C 
HETATM   11  O   UNL     1     -42.069 -52.692  14.011  1.00  0.00    -0.272 OA
HETATM   12  N   UNL     1     -43.203 -52.734  12.008  1.00  0.00    -0.355 N 
HETATM   13  H   UNL     1     -43.034 -53.068  11.058  1.00  0.00     0.162 HD
BRANCH  12  14
HETATM   14  C   UNL     1     -44.521 -53.013  12.575  1.00  0.00     0.084 C 
HETATM   15  C   UNL     1     -44.995 -51.836  13.442  1.00  0.00     0.025 C 
HETATM   16  C   UNL     1     -46.499 -51.881  13.709  1.00  0.00     0.002 C 
HETATM   17  C   UNL     1     -46.937 -52.720  14.906  1.00  0.00     0.000 C 
HETATM   18  C   UNL     1     -46.168 -54.009  15.181  1.00  0.00     0.000 C 
HETATM   19  C   UNL     1     -45.774 -54.807  13.943  1.00  0.00     0.002 C 
HETATM   20  C   UNL     1     -44.452 -54.344  13.333  1.00  0.00     0.025 C 
ENDBRANCH  12  14
ENDBRANCH   9  10
ENDBRANCH   1   9
BRANCH   4  21
HETATM   21  C   UNL     1     -37.246 -50.125  14.807  1.00  0.00    -0.030 C 
BRANCH  21  22
HETATM   22  N   UNL     1     -36.292 -50.169  15.630  1.00  0.00    -0.365 N 
ATOM     23  HN2 UNL     1     -37.053 -50.199  14.952  1.00  0.00     0.165 HD
ATOM     24  HN1 UNL     1     -35.519 -50.203  16.296  1.00  0.00     0.165 HD
ENDBRANCH  21  22
ENDBRANCH   4  21
BRANCH   6  25
HETATM   25  C   UNL     1     -40.338 -47.480  12.100  1.00  0.00     0.094 A 
HETATM   26  C   UNL     1     -39.793 -46.240  12.769  1.00  0.00     0.028 A 
HETATM   27  C   UNL     1     -41.228 -46.618  12.965  1.00  0.00     0.028 A 
ENDBRANCH   6  25
TORSDOF 6
ENDMDL
MODEL 8
REMARK VINA RESULT:      -6.0      3.938      6.621
REMARK  6 active torsions:
REMARK  status: ('A' for Active; 'I' for Inactive)
REMARK    1  A    between atoms: C_2  and  C_3 
REMARK       I    between atoms: C_2  and  N_19 
REMARK    2  A    between atoms: C_3  and  N_4 
REMARK    3  A    between atoms: C_7  and  C_8 
REMARK    4  A    between atoms: C_8  and  N_9 
REMARK    5  A    between atoms: N_13  and  C_14 
REMARK    6  A    between atoms: N_19  and  C_20 
ROOT
HETATM    1  N   UNL     1     -43.669 -54.454  13.973  1.00  0.00    -0.256 N 
HETATM    2  C   UNL     1     -43.306 -53.519  13.010  1.00  0.00     0.273 C 
HETATM    3  O   UNL     1     -44.019 -53.191  12.067  1.00  0.00    -0.266 OA
HETATM    4  C   UNL     1     -41.947 -52.951  13.140  1.00  0.00     0.110 C 
HETATM    5  C   UNL     1     -41.182 -53.325  14.168  1.00  0.00     0.123 C 
HETATM    6  N   UNL     1     -41.597 -54.259  15.088  1.00  0.00    -0.303 N 
HETATM    7  C   UNL     1     -42.808 -54.945  14.957  1.00  0.00     0.332 C 
HETATM    8  O   UNL     1     -43.098 -55.918  15.658  1.00  0.00    -0.246 OA
ENDROOT
BRANCH   1   9
HETATM    9  C   UNL     1     -44.972 -55.095  13.865  1.00  0.00     0.239 C 
BRANCH   9  10
HETATM   10  C   UNL     1     -45.975 -54.466  14.837  1.00  0.00     0.236 C 
HETATM   11  O   UNL     1     -47.182 -54.677  14.771  1.00  0.00    -0.272 OA
HETATM   12  N   UNL     1     -45.397 -53.591  15.740  1.00  0.00    -0.355 N 
HETATM   13  H   UNL     1     -44.524 -53.160  15.431  1.00  0.00     0.162 HD
BRANCH  12  14
HETATM   14  C   UNL     1     -46.178 -52.851  16.730  1.00  0.00     0.084 C 
HETATM   15  C   UNL     1     -46.882 -51.653  16.073  1.00  0.00     0.025 C 
HETATM   16  C   UNL     1     -48.019 -51.105  16.936  1.00  0.00     0.002 C 
HETATM   17  C   UNL     1     -47.617 -50.077  17.989  1.00  0.00     0.000 C 
HETATM   18  C   UNL     1     -46.277 -50.274  18.692  1.00  0.00     0.000 C 
HETATM   19  C   UNL     1     -45.932 -51.719  19.036  1.00  0.00     0.002 C 
HETATM   20  C   UNL     1     -45.250 -52.457  17.886  1.00  0.00     0.025 C 
ENDBRANCH  12  14
ENDBRANCH   9  10
ENDBRANCH   1   9
BRANCH   4  21
HETATM   21  C   UNL     1     -41.427 -51.952  12.120  1.00  0.00    -0.030 C 
BRANCH  21  22
HETATM   22  N   UNL     1     -40.997 -51.123  11.273  1.00  0.00    -0.365 N 
ATOM     23  HN2 UNL     1     -41.367 -51.741  11.994  1.00  0.00     0.165 HD
ATOM     24  HN1 UNL     1     -40.649 -50.453  10.587  1.00  0.00     0.165 HD
ENDBRANCH  21  22
ENDBRANCH   4  21
BRANCH   6  25
HETATM   25  C   UNL     1     -40.691 -54.599  16.161  1.00  0.00     0.094 A 
HETATM   26  C   UNL     1     -39.281 -54.057  16.199  1.00  0.00     0.028 A 
HETATM   27  C   UNL     1     -39.508 -55.514  15.948  1.00  0.00     0.028 A 
ENDBRANCH   6  25
TORSDOF 6
ENDMDL
MODEL 9
REMARK VINA RESULT:      -6.0      2.783      7.199
REMARK  6 active torsions:
REMARK  status: ('A' for Active; 'I' for Inactive)
REMARK    1  A    between atoms: C_2  and  C_3 
REMARK       I    between atoms: C_2  and  N_19 
REMARK    2  A    between atoms: C_3  and  N_4 
REMARK    3  A    between atoms: C_7  and  C_8 
REMARK    4  A    between atoms: C_8  and  N_9 
REMARK    5  A    between atoms: N_13  and  C_14 
REMARK    6  A    between atoms: N_19  and  C_20 
ROOT
HETATM    1  N   UNL     1     -41.861 -53.375  13.026  1.00  0.00    -0.256 N 
HETATM    2  C   UNL     1     -41.071 -54.072  13.934  1.00  0.00     0.273 C 
HETATM    3  O   UNL     1     -39.866 -54.253  13.799  1.00  0.00    -0.266 OA
HETATM    4  C   UNL     1     -41.780 -54.658  15.091  1.00  0.00     0.110 C 
HETATM    5  C   UNL     1     -43.093 -54.458  15.218  1.00  0.00     0.123 C 
HETATM    6  N   UNL     1     -43.822 -53.761  14.282  1.00  0.00    -0.303 N 
HETATM    7  C   UNL     1     -43.254 -53.296  13.093  1.00  0.00     0.332 C 
HETATM    8  O   UNL     1     -43.931 -52.850  12.164  1.00  0.00    -0.246 OA
ENDROOT
BRANCH   1   9
HETATM    9  C   UNL     1     -41.231 -52.826  11.834  1.00  0.00     0.239 C 
BRANCH   9  10
HETATM   10  C   UNL     1     -40.808 -51.371  12.058  1.00  0.00     0.236 C 
HETATM   11  O   UNL     1     -39.699 -51.060  12.478  1.00  0.00    -0.272 OA
HETATM   12  N   UNL     1     -41.818 -50.456  11.809  1.00  0.00    -0.355 N 
HETATM   13  H   UNL     1     -42.767 -50.818  11.911  1.00  0.00     0.162 HD
BRANCH  12  14
HETATM   14  C   UNL     1     -41.642 -49.017  11.999  1.00  0.00     0.084 C 
HETATM   15  C   UNL     1     -42.754 -48.453  12.899  1.00  0.00     0.025 C 
HETATM   16  C   UNL     1     -42.398 -47.080  13.468  1.00  0.00     0.002 C 
HETATM   17  C   UNL     1     -42.740 -45.885  12.582  1.00  0.00     0.000 C 
HETATM   18  C   UNL     1     -42.567 -46.053  11.076  1.00  0.00     0.000 C 
HETATM   19  C   UNL     1     -41.334 -46.840  10.648  1.00  0.00     0.002 C 
HETATM   20  C   UNL     1     -41.572 -48.349  10.621  1.00  0.00     0.025 C 
ENDBRANCH  12  14
ENDBRANCH   9  10
ENDBRANCH   1   9
BRANCH   4  21
HETATM   21  C   UNL     1     -41.025 -55.478  16.125  1.00  0.00    -0.030 C 
BRANCH  21  22
HETATM   22  N   UNL     1     -40.398 -56.156  16.983  1.00  0.00    -0.365 N 
ATOM     23  HN2 UNL     1     -40.962 -55.623  16.322  1.00  0.00     0.165 HD
ATOM     24  HN1 UNL     1     -39.889 -56.705  17.676  1.00  0.00     0.165 HD
ENDBRANCH  21  22
ENDBRANCH   4  21
BRANCH   6  25
HETATM   25  C   UNL     1     -45.240 -53.603  14.510  1.00  0.00     0.094 A 
HETATM   26  C   UNL     1     -45.906 -54.180  15.738  1.00  0.00     0.028 A 
HETATM   27  C   UNL     1     -46.201 -54.763  14.393  1.00  0.00     0.028 A 
ENDBRANCH   6  25
TORSDOF 6
ENDMDL
