MODEL 1
REMARK VINA RESULT:      -5.9      0.000      0.000
REMARK  6 active torsions:
REMARK  status: ('A' for Active; 'I' for Inactive)
REMARK    1  A    between atoms: C_2  and  O_3 
REMARK    2  A    between atoms: O_3  and  C_4 
REMARK    3  A    between atoms: C_4  and  C_6 
REMARK    4  A    between atoms: C_9  and  C_10 
REMARK    5  A    between atoms: C_10  and  C_11 
REMARK       I    between atoms: C_11  and  N_13 
REMARK    6  A    between atoms: N_13  and  C_14 
ROOT
HETATM    1  C   UNL     1     -43.640 -53.312  13.243  1.00  0.00     0.080 A 
HETATM    2  N   UNL     1     -43.066 -52.487  12.388  1.00  0.00    -0.354 N 
ATOM      3  HN  UNL     1     -43.567 -51.898  11.722  1.00  0.00     0.166 HD
HETATM    4  C   UNL     1     -41.686 -52.533  12.519  1.00  0.00     0.025 A 
HETATM    5  C   UNL     1     -41.229 -53.438  13.459  1.00  0.00     0.077 A 
HETATM    6  S   UNL     1     -42.548 -54.230  14.210  1.00  0.00    -0.084 SA
ENDROOT
BRANCH   4   7
HETATM    7  C   UNL     1     -40.861 -51.611  11.688  1.00  0.00     0.160 C 
BRANCH   7   8
HETATM    8  C   UNL     1     -41.154 -50.157  12.005  1.00  0.00     0.224 C 
HETATM    9  O   UNL     1     -40.806 -49.644  13.064  1.00  0.00    -0.273 OA
HETATM   10  N   UNL     1     -41.821 -49.468  11.014  1.00  0.00    -0.350 N 
HETATM   11  H   UNL     1     -41.898 -49.910  10.105  1.00  0.00     0.163 HD
BRANCH  10  12
HETATM   12  C   UNL     1     -42.193 -48.053  11.143  1.00  0.00     0.052 C 
HETATM   13  C   UNL     1     -42.969 -47.815  12.450  1.00  0.00     0.041 C 
HETATM   14  C   UNL     1     -43.041 -47.598   9.956  1.00  0.00     0.059 C 
HETATM   15  C   UNL     1     -42.659 -46.144   9.736  1.00  0.00     0.170 C 
HETATM   16  O   UNL     1     -41.498 -45.862  10.521  1.00  0.00    -0.389 OA
HETATM   17  C   UNL     1     -40.995 -47.103  11.036  1.00  0.00     0.198 C 
ENDBRANCH  10  12
ENDBRANCH   7   8
ENDBRANCH   4   7
BRANCH   1  18
HETATM   18  C   UNL     1     -45.133 -53.508  13.399  1.00  0.00     0.174 C 
HETATM   19  C   UNL     1     -45.452 -54.982  13.651  1.00  0.00     0.046 C 
BRANCH  18  20
HETATM   20  O   UNL     1     -45.737 -53.033  12.187  1.00  0.00    -0.380 OA
BRANCH  20  21
HETATM   21  C   UNL     1     -46.591 -51.907  12.369  1.00  0.00     0.164 C 
HETATM   22  C   UNL     1     -47.381 -51.683  11.094  1.00  0.00     0.033 C 
ENDBRANCH  20  21
ENDBRANCH  18  20
ENDBRANCH   1  18
TORSDOF 6
ENDMDL
MODEL 2
REMARK VINA RESULT:      -5.8      1.712      2.390
REMARK  6 active torsions:
REMARK  status: ('A' for Active; 'I' for Inactive)
REMARK    1  A    between atoms: C_2  and  O_3 
REMARK    2  A    between atoms: O_3  and  C_4 
REMARK    3  A    between atoms: C_4  and  C_6 
REMARK    4  A    between atoms: C_9  and  C_10 
REMARK    5  A    between atoms: C_10  and  C_11 
REMARK       I    between atoms: C_11  and  N_13 
REMARK    6  A    between atoms: N_13  and  C_14 
ROOT
HETATM    1  C   UNL     1     -42.063 -52.265  12.987  1.00  0.00     0.080 A 
HETATM    2  N   UNL     1     -41.948 -51.312  12.081  1.00  0.00    -0.354 N 
ATOM      3  HN  UNL     1     -42.724 -50.924  11.544  1.00  0.00     0.166 HD
HETATM    4  C   UNL     1     -40.625 -50.912  11.961  1.00  0.00     0.025 A 
HETATM    5  C   UNL     1     -39.740 -51.610  12.761  1.00  0.00     0.077 A 
HETATM    6  S   UNL     1     -40.578 -52.772  13.699  1.00  0.00    -0.084 SA
ENDROOT
BRANCH   4   7
HETATM    7  C   UNL     1     -40.304 -49.787  11.039  1.00  0.00     0.160 C 
BRANCH   7   8
HETATM    8  C   UNL     1     -41.399 -48.738  11.032  1.00  0.00     0.224 C 
HETATM    9  O   UNL     1     -41.819 -48.235  12.070  1.00  0.00    -0.273 OA
HETATM   10  N   UNL     1     -41.866 -48.392   9.782  1.00  0.00    -0.350 N 
HETATM   11  H   UNL     1     -41.336 -48.710   8.978  1.00  0.00     0.163 HD
BRANCH  10  12
HETATM   12  C   UNL     1     -42.926 -47.396   9.578  1.00  0.00     0.052 C 
HETATM   13  C   UNL     1     -42.410 -45.982   9.896  1.00  0.00     0.041 C 
HETATM   14  C   UNL     1     -44.143 -47.704  10.450  1.00  0.00     0.059 C 
HETATM   15  C   UNL     1     -45.338 -47.250   9.630  1.00  0.00     0.170 C 
HETATM   16  O   UNL     1     -44.891 -46.978   8.300  1.00  0.00    -0.389 OA
HETATM   17  C   UNL     1     -43.544 -47.451   8.176  1.00  0.00     0.198 C 
ENDBRANCH  10  12
ENDBRANCH   7   8
ENDBRANCH   4   7
BRANCH   1  18
HETATM   18  C   UNL     1     -43.361 -52.927  13.399  1.00  0.00     0.174 C 
HETATM   19  C   UNL     1     -43.089 -54.311  13.988  1.00  0.00     0.046 C 
BRANCH  18  20
HETATM   20  O   UNL     1     -44.175 -53.002  12.219  1.00  0.00    -0.380 OA
BRANCH  20  21
HETATM   21  C   UNL     1     -45.556 -52.739  12.450  1.00  0.00     0.164 C 
HETATM   22  C   UNL     1     -45.677 -51.515  13.336  1.00  0.00     0.033 C 
ENDBRANCH  20  21
ENDBRANCH  18  20
ENDBRANCH   1  18
TORSDOF 6
ENDMDL
MODEL 3
REMARK VINA RESULT:      -5.8      2.846      6.313
REMARK  6 active torsions:
REMARK  status: ('A' for Active; 'I' for Inactive)
REMARK    1  A    between atoms: C_2  and  O_3 
REMARK    2  A    between atoms: O_3  and  C_4 
REMARK    3  A    between atoms: C_4  and  C_6 
REMARK    4  A    between atoms: C_9  and  C_10 
REMARK    5  A    between atoms: C_10  and  C_11 
REMARK       I    between atoms: C_11  and  N_13 
REMARK    6  A    between atoms: N_13  and  C_14 
ROOT
HETATM    1  C   UNL     1     -42.512 -47.175   9.661  1.00  0.00     0.080 A 
HETATM    2  N   UNL     1     -42.167 -48.415   9.952  1.00  0.00    -0.354 N 
ATOM      3  HN  UNL     1     -42.577 -49.247   9.528  1.00  0.00     0.166 HD
HETATM    4  C   UNL     1     -41.168 -48.429  10.914  1.00  0.00     0.025 A 
HETATM    5  C   UNL     1     -40.797 -47.180  11.375  1.00  0.00     0.077 A 
HETATM    6  S   UNL     1     -41.696 -45.962  10.575  1.00  0.00    -0.084 SA
ENDROOT
BRANCH   4   7
HETATM    7  C   UNL     1     -40.589 -49.741  11.319  1.00  0.00     0.160 C 
BRANCH   7   8
HETATM    8  C   UNL     1     -41.581 -50.571  12.111  1.00  0.00     0.224 C 
HETATM    9  O   UNL     1     -42.640 -50.100  12.517  1.00  0.00    -0.273 OA
HETATM   10  N   UNL     1     -41.207 -51.881  12.323  1.00  0.00    -0.350 N 
HETATM   11  H   UNL     1     -40.416 -52.235  11.795  1.00  0.00     0.163 HD
BRANCH  10  12
HETATM   12  C   UNL     1     -42.037 -52.833  13.072  1.00  0.00     0.052 C 
HETATM   13  C   UNL     1     -41.367 -54.217  13.117  1.00  0.00     0.041 C 
HETATM   14  C   UNL     1     -43.427 -52.959  12.447  1.00  0.00     0.059 C 
HETATM   15  C   UNL     1     -44.362 -53.203  13.618  1.00  0.00     0.170 C 
HETATM   16  O   UNL     1     -43.642 -52.953  14.827  1.00  0.00    -0.389 OA
HETATM   17  C   UNL     1     -42.388 -52.348  14.482  1.00  0.00     0.198 C 
ENDBRANCH  10  12
ENDBRANCH   7   8
ENDBRANCH   4   7
BRANCH   1  18
HETATM   18  C   UNL     1     -43.555 -46.775   8.639  1.00  0.00     0.174 C 
HETATM   19  C   UNL     1     -44.176 -45.429   9.012  1.00  0.00     0.046 C 
BRANCH  18  20
HETATM   20  O   UNL     1     -44.533 -47.826   8.620  1.00  0.00    -0.380 OA
BRANCH  20  21
HETATM   21  C   UNL     1     -45.797 -47.449   9.158  1.00  0.00     0.164 C 
HETATM   22  C   UNL     1     -46.799 -48.548   8.863  1.00  0.00     0.033 C 
ENDBRANCH  20  21
ENDBRANCH  18  20
ENDBRANCH   1  18
TORSDOF 6
ENDMDL
MODEL 4
REMARK VINA RESULT:      -5.7      2.213      6.529
REMARK  6 active torsions:
REMARK  status: ('A' for Active; 'I' for Inactive)
REMARK    1  A    between atoms: C_2  and  O_3 
REMARK    2  A    between atoms: O_3  and  C_4 
REMARK    3  A    between atoms: C_4  and  C_6 
REMARK    4  A    between atoms: C_9  and  C_10 
REMARK    5  A    between atoms: C_10  and  C_11 
REMARK       I    between atoms: C_11  and  N_13 
REMARK    6  A    between atoms: N_13  and  C_14 
ROOT
HETATM    1  C   UNL     1     -41.251 -48.640  11.154  1.00  0.00     0.080 A 
HETATM    2  N   UNL     1     -41.901 -49.779  11.306  1.00  0.00    -0.354 N 
ATOM      3  HN  UNL     1     -42.859 -49.947  10.997  1.00  0.00     0.166 HD
HETATM    4  C   UNL     1     -41.100 -50.715  11.943  1.00  0.00     0.025 A 
HETATM    5  C   UNL     1     -39.851 -50.249  12.307  1.00  0.00     0.077 A 
HETATM    6  S   UNL     1     -39.663 -48.617  11.825  1.00  0.00    -0.084 SA
ENDROOT
BRANCH   4   7
HETATM    7  C   UNL     1     -41.634 -52.093  12.135  1.00  0.00     0.160 C 
BRANCH   7   8
HETATM    8  C   UNL     1     -42.951 -52.084  12.887  1.00  0.00     0.224 C 
HETATM    9  O   UNL     1     -43.345 -51.090  13.489  1.00  0.00    -0.273 OA
HETATM   10  N   UNL     1     -43.664 -53.263  12.828  1.00  0.00    -0.350 N 
HETATM   11  H   UNL     1     -43.361 -53.961  12.157  1.00  0.00     0.163 HD
BRANCH  10  12
HETATM   12  C   UNL     1     -44.959 -53.443  13.497  1.00  0.00     0.052 C 
HETATM   13  C   UNL     1     -46.052 -52.626  12.787  1.00  0.00     0.041 C 
HETATM   14  C   UNL     1     -44.881 -53.025  14.965  1.00  0.00     0.059 C 
HETATM   15  C   UNL     1     -45.833 -53.960  15.689  1.00  0.00     0.170 C 
HETATM   16  O   UNL     1     -46.206 -55.006  14.790  1.00  0.00    -0.389 OA
HETATM   17  C   UNL     1     -45.371 -54.913  13.627  1.00  0.00     0.198 C 
ENDBRANCH  10  12
ENDBRANCH   7   8
ENDBRANCH   4   7
BRANCH   1  18
HETATM   18  C   UNL     1     -41.804 -47.402  10.481  1.00  0.00     0.174 C 
HETATM   19  C   UNL     1     -42.579 -46.552  11.488  1.00  0.00     0.046 C 
BRANCH  18  20
HETATM   20  O   UNL     1     -42.644 -47.858   9.411  1.00  0.00    -0.380 OA
BRANCH  20  21
HETATM   21  C   UNL     1     -43.582 -46.886   8.958  1.00  0.00     0.164 C 
HETATM   22  C   UNL     1     -44.940 -47.546   8.821  1.00  0.00     0.033 C 
ENDBRANCH  20  21
ENDBRANCH  18  20
ENDBRANCH   1  18
TORSDOF 6
ENDMDL
MODEL 5
REMARK VINA RESULT:      -5.4      1.919      2.535
REMARK  6 active torsions:
REMARK  status: ('A' for Active; 'I' for Inactive)
REMARK    1  A    between atoms: C_2  and  O_3 
REMARK    2  A    between atoms: O_3  and  C_4 
REMARK    3  A    between atoms: C_4  and  C_6 
REMARK    4  A    between atoms: C_9  and  C_10 
REMARK    5  A    between atoms: C_10  and  C_11 
REMARK       I    between atoms: C_11  and  N_13 
REMARK    6  A    between atoms: N_13  and  C_14 
ROOT
HETATM    1  C   UNL     1     -42.597 -51.833  13.077  1.00  0.00     0.080 A 
HETATM    2  N   UNL     1     -42.350 -51.050  12.045  1.00  0.00    -0.354 N 
ATOM      3  HN  UNL     1     -43.050 -50.739  11.371  1.00  0.00     0.166 HD
HETATM    4  C   UNL     1     -41.006 -50.709  12.003  1.00  0.00     0.025 A 
HETATM    5  C   UNL     1     -40.237 -51.284  12.997  1.00  0.00     0.077 A 
HETATM    6  S   UNL     1     -41.215 -52.250  14.018  1.00  0.00    -0.084 SA
ENDROOT
BRANCH   4   7
HETATM    7  C   UNL     1     -40.545 -49.764  10.947  1.00  0.00     0.160 C 
BRANCH   7   8
HETATM    8  C   UNL     1     -41.246 -48.423  11.051  1.00  0.00     0.224 C 
HETATM    9  O   UNL     1     -42.414 -48.330  11.420  1.00  0.00    -0.273 OA
HETATM   10  N   UNL     1     -40.472 -47.333  10.714  1.00  0.00    -0.350 N 
HETATM   11  H   UNL     1     -39.474 -47.481  10.607  1.00  0.00     0.163 HD
BRANCH  10  12
HETATM   12  C   UNL     1     -40.980 -45.956  10.750  1.00  0.00     0.052 C 
HETATM   13  C   UNL     1     -42.250 -45.825   9.892  1.00  0.00     0.041 C 
HETATM   14  C   UNL     1     -39.924 -44.968  10.253  1.00  0.00     0.059 C 
HETATM   15  C   UNL     1     -40.157 -43.706  11.066  1.00  0.00     0.170 C 
HETATM   16  O   UNL     1     -41.058 -44.017  12.130  1.00  0.00    -0.389 OA
HETATM   17  C   UNL     1     -41.224 -45.440  12.173  1.00  0.00     0.198 C 
ENDBRANCH  10  12
ENDBRANCH   7   8
ENDBRANCH   4   7
BRANCH   1  18
HETATM   18  C   UNL     1     -43.958 -52.384  13.450  1.00  0.00     0.174 C 
HETATM   19  C   UNL     1     -44.350 -53.516  12.502  1.00  0.00     0.046 C 
BRANCH  18  20
HETATM   20  O   UNL     1     -44.878 -51.285  13.377  1.00  0.00    -0.380 OA
BRANCH  20  21
HETATM   21  C   UNL     1     -46.247 -51.677  13.363  1.00  0.00     0.164 C 
HETATM   22  C   UNL     1     -46.833 -51.451  14.743  1.00  0.00     0.033 C 
ENDBRANCH  20  21
ENDBRANCH  18  20
ENDBRANCH   1  18
TORSDOF 6
ENDMDL
MODEL 6
REMARK VINA RESULT:      -5.4      2.216      3.219
REMARK  6 active torsions:
REMARK  status: ('A' for Active; 'I' for Inactive)
REMARK    1  A    between atoms: C_2  and  O_3 
REMARK    2  A    between atoms: O_3  and  C_4 
REMARK    3  A    between atoms: C_4  and  C_6 
REMARK    4  A    between atoms: C_9  and  C_10 
REMARK    5  A    between atoms: C_10  and  C_11 
REMARK       I    between atoms: C_11  and  N_13 
REMARK    6  A    between atoms: N_13  and  C_14 
ROOT
HETATM    1  C   UNL     1     -44.664 -53.165  13.200  1.00  0.00     0.080 A 
HETATM    2  N   UNL     1     -43.803 -52.757  12.287  1.00  0.00    -0.354 N 
ATOM      3  HN  UNL     1     -44.052 -52.242  11.442  1.00  0.00     0.166 HD
HETATM    4  C   UNL     1     -42.512 -53.125  12.636  1.00  0.00     0.025 A 
HETATM    5  C   UNL     1     -42.420 -53.855  13.806  1.00  0.00     0.077 A 
HETATM    6  S   UNL     1     -43.973 -54.066  14.497  1.00  0.00    -0.084 SA
ENDROOT
BRANCH   4   7
HETATM    7  C   UNL     1     -41.387 -52.685  11.764  1.00  0.00     0.160 C 
BRANCH   7   8
HETATM    8  C   UNL     1     -40.899 -51.298  12.136  1.00  0.00     0.224 C 
HETATM    9  O   UNL     1     -41.632 -50.480  12.685  1.00  0.00    -0.273 OA
HETATM   10  N   UNL     1     -39.580 -51.041  11.823  1.00  0.00    -0.350 N 
HETATM   11  H   UNL     1     -39.001 -51.828  11.551  1.00  0.00     0.163 HD
BRANCH  10  12
HETATM   12  C   UNL     1     -38.934 -49.753  12.105  1.00  0.00     0.052 C 
HETATM   13  C   UNL     1     -37.559 -49.676  11.420  1.00  0.00     0.041 C 
HETATM   14  C   UNL     1     -38.767 -49.541  13.610  1.00  0.00     0.059 C 
HETATM   15  C   UNL     1     -38.921 -48.044  13.814  1.00  0.00     0.170 C 
HETATM   16  O   UNL     1     -39.418 -47.475  12.601  1.00  0.00    -0.389 OA
HETATM   17  C   UNL     1     -39.802 -48.547  11.729  1.00  0.00     0.198 C 
ENDBRANCH  10  12
ENDBRANCH   7   8
ENDBRANCH   4   7
BRANCH   1  18
HETATM   18  C   UNL     1     -46.158 -52.922  13.162  1.00  0.00     0.174 C 
HETATM   19  C   UNL     1     -46.473 -51.679  12.331  1.00  0.00     0.046 C 
BRANCH  18  20
HETATM   20  O   UNL     1     -46.583 -52.772  14.525  1.00  0.00    -0.380 OA
BRANCH  20  21
HETATM   21  C   UNL     1     -46.805 -51.421  14.917  1.00  0.00     0.164 C 
HETATM   22  C   UNL     1     -47.475 -51.411  16.277  1.00  0.00     0.033 C 
ENDBRANCH  20  21
ENDBRANCH  18  20
ENDBRANCH   1  18
TORSDOF 6
ENDMDL
MODEL 7
REMARK VINA RESULT:      -5.4      1.619      2.062
REMARK  6 active torsions:
REMARK  status: ('A' for Active; 'I' for Inactive)
REMARK    1  A    between atoms: C_2  and  O_3 
REMARK    2  A    between atoms: O_3  and  C_4 
REMARK    3  A    between atoms: C_4  and  C_6 
REMARK    4  A    between atoms: C_9  and  C_10 
REMARK    5  A    between atoms: C_10  and  C_11 
REMARK       I    between atoms: C_11  and  N_13 
REMARK    6  A    between atoms: N_13  and  C_14 
ROOT
HETATM    1  C   UNL     1     -44.974 -52.804  13.082  1.00  0.00     0.080 A 
HETATM    2  N   UNL     1     -44.039 -52.077  12.500  1.00  0.00    -0.354 N 
ATOM      3  HN  UNL     1     -44.197 -51.171  12.058  1.00  0.00     0.166 HD
HETATM    4  C   UNL     1     -42.810 -52.717  12.573  1.00  0.00     0.025 A 
HETATM    5  C   UNL     1     -42.843 -53.957  13.181  1.00  0.00     0.077 A 
HETATM    6  S   UNL     1     -44.435 -54.323  13.694  1.00  0.00    -0.084 SA
ENDROOT
BRANCH   4   7
HETATM    7  C   UNL     1     -41.610 -52.014  12.036  1.00  0.00     0.160 C 
BRANCH   7   8
HETATM    8  C   UNL     1     -41.611 -50.543  12.403  1.00  0.00     0.224 C 
HETATM    9  O   UNL     1     -41.398 -50.163  13.551  1.00  0.00    -0.273 OA
HETATM   10  N   UNL     1     -41.855 -49.681  11.355  1.00  0.00    -0.350 N 
HETATM   11  H   UNL     1     -41.829 -50.064  10.416  1.00  0.00     0.163 HD
BRANCH  10  12
HETATM   12  C   UNL     1     -41.898 -48.222  11.520  1.00  0.00     0.052 C 
HETATM   13  C   UNL     1     -42.888 -47.831  12.631  1.00  0.00     0.041 C 
HETATM   14  C   UNL     1     -42.298 -47.534  10.214  1.00  0.00     0.059 C 
HETATM   15  C   UNL     1     -41.538 -46.219  10.216  1.00  0.00     0.170 C 
HETATM   16  O   UNL     1     -40.570 -46.262  11.266  1.00  0.00    -0.389 OA
HETATM   17  C   UNL     1     -40.518 -47.603  11.772  1.00  0.00     0.198 C 
ENDBRANCH  10  12
ENDBRANCH   7   8
ENDBRANCH   4   7
BRANCH   1  18
HETATM   18  C   UNL     1     -46.430 -52.411  13.214  1.00  0.00     0.174 C 
HETATM   19  C   UNL     1     -46.891 -51.655  11.967  1.00  0.00     0.046 C 
BRANCH  18  20
HETATM   20  O   UNL     1     -46.531 -51.601  14.394  1.00  0.00    -0.380 OA
BRANCH  20  21
HETATM   21  C   UNL     1     -47.119 -52.271  15.506  1.00  0.00     0.164 C 
HETATM   22  C   UNL     1     -47.560 -51.234  16.521  1.00  0.00     0.033 C 
ENDBRANCH  20  21
ENDBRANCH  18  20
ENDBRANCH   1  18
TORSDOF 6
ENDMDL
MODEL 8
REMARK VINA RESULT:      -5.0      3.072      6.482
REMARK  6 active torsions:
REMARK  status: ('A' for Active; 'I' for Inactive)
REMARK    1  A    between atoms: C_2  and  O_3 
REMARK    2  A    between atoms: O_3  and  C_4 
REMARK    3  A    between atoms: C_4  and  C_6 
REMARK    4  A    between atoms: C_9  and  C_10 
REMARK    5  A    between atoms: C_10  and  C_11 
REMARK       I    between atoms: C_11  and  N_13 
REMARK    6  A    between atoms: N_13  and  C_14 
ROOT
HETATM    1  C   UNL     1     -39.444 -49.844  13.431  1.00  0.00     0.080 A 
HETATM    2  N   UNL     1     -40.650 -49.940  12.904  1.00  0.00    -0.354 N 
ATOM      3  HN  UNL     1     -40.891 -50.529  12.107  1.00  0.00     0.166 HD
HETATM    4  C   UNL     1     -41.544 -49.128  13.586  1.00  0.00     0.025 A 
HETATM    5  C   UNL     1     -40.982 -48.387  14.608  1.00  0.00     0.077 A 
HETATM    6  S   UNL     1     -39.309 -48.726  14.736  1.00  0.00    -0.084 SA
ENDROOT
BRANCH   4   7
HETATM    7  C   UNL     1     -42.980 -49.159  13.186  1.00  0.00     0.160 C 
BRANCH   7   8
HETATM    8  C   UNL     1     -43.587 -50.534  13.385  1.00  0.00     0.224 C 
HETATM    9  O   UNL     1     -43.028 -51.398  14.055  1.00  0.00    -0.273 OA
HETATM   10  N   UNL     1     -44.808 -50.726  12.773  1.00  0.00    -0.350 N 
HETATM   11  H   UNL     1     -45.283 -49.908  12.406  1.00  0.00     0.163 HD
BRANCH  10  12
HETATM   12  C   UNL     1     -45.547 -51.993  12.853  1.00  0.00     0.052 C 
HETATM   13  C   UNL     1     -46.832 -51.924  12.010  1.00  0.00     0.041 C 
HETATM   14  C   UNL     1     -45.904 -52.330  14.301  1.00  0.00     0.059 C 
HETATM   15  C   UNL     1     -45.849 -53.846  14.374  1.00  0.00     0.170 C 
HETATM   16  O   UNL     1     -45.238 -54.331  13.177  1.00  0.00    -0.389 OA
HETATM   17  C   UNL     1     -44.700 -53.210  12.464  1.00  0.00     0.198 C 
ENDBRANCH  10  12
ENDBRANCH   7   8
ENDBRANCH   4   7
BRANCH   1  18
HETATM   18  C   UNL     1     -38.222 -50.604  12.959  1.00  0.00     0.174 C 
HETATM   19  C   UNL     1     -37.716 -50.028  11.636  1.00  0.00     0.046 C 
BRANCH  18  20
HETATM   20  O   UNL     1     -38.619 -51.976  12.825  1.00  0.00    -0.380 OA
BRANCH  20  21
HETATM   21  C   UNL     1     -38.855 -52.634  14.066  1.00  0.00     0.164 C 
HETATM   22  C   UNL     1     -40.012 -53.599  13.895  1.00  0.00     0.033 C 
ENDBRANCH  20  21
ENDBRANCH  18  20
ENDBRANCH   1  18
TORSDOF 6
ENDMDL
MODEL 9
REMARK VINA RESULT:      -5.0      2.512      6.534
REMARK  6 active torsions:
REMARK  status: ('A' for Active; 'I' for Inactive)
REMARK    1  A    between atoms: C_2  and  O_3 
REMARK    2  A    between atoms: O_3  and  C_4 
REMARK    3  A    between atoms: C_4  and  C_6 
REMARK    4  A    between atoms: C_9  and  C_10 
REMARK    5  A    between atoms: C_10  and  C_11 
REMARK       I    between atoms: C_11  and  N_13 
REMARK    6  A    between atoms: N_13  and  C_14 
ROOT
HETATM    1  C   UNL     1     -39.297 -51.015  12.405  1.00  0.00     0.080 A 
HETATM    2  N   UNL     1     -40.303 -51.844  12.195  1.00  0.00    -0.354 N 
ATOM      3  HN  UNL     1     -40.915 -51.820  11.380  1.00  0.00     0.166 HD
HETATM    4  C   UNL     1     -40.411 -52.751  13.239  1.00  0.00     0.025 A 
HETATM    5  C   UNL     1     -39.496 -52.565  14.258  1.00  0.00     0.077 A 
HETATM    6  S   UNL     1     -38.466 -51.246  13.897  1.00  0.00    -0.084 SA
ENDROOT
BRANCH   4   7
HETATM    7  C   UNL     1     -41.444 -53.821  13.146  1.00  0.00     0.160 C 
BRANCH   7   8
HETATM    8  C   UNL     1     -42.843 -53.242  13.048  1.00  0.00     0.224 C 
HETATM    9  O   UNL     1     -43.377 -53.021  11.965  1.00  0.00    -0.273 OA
HETATM   10  N   UNL     1     -43.459 -53.002  14.258  1.00  0.00    -0.350 N 
HETATM   11  H   UNL     1     -43.028 -53.388  15.090  1.00  0.00     0.163 HD
BRANCH  10  12
HETATM   12  C   UNL     1     -44.812 -52.440  14.362  1.00  0.00     0.052 C 
HETATM   13  C   UNL     1     -44.905 -51.107  13.600  1.00  0.00     0.041 C 
HETATM   14  C   UNL     1     -45.205 -52.222  15.823  1.00  0.00     0.059 C 
HETATM   15  C   UNL     1     -46.702 -52.477  15.869  1.00  0.00     0.170 C 
HETATM   16  O   UNL     1     -47.093 -53.070  14.629  1.00  0.00    -0.389 OA
HETATM   17  C   UNL     1     -45.905 -53.412  13.902  1.00  0.00     0.198 C 
ENDBRANCH  10  12
ENDBRANCH   7   8
ENDBRANCH   4   7
BRANCH   1  18
HETATM   18  C   UNL     1     -38.868 -49.908  11.466  1.00  0.00     0.174 C 
HETATM   19  C   UNL     1     -37.365 -49.989  11.201  1.00  0.00     0.046 C 
BRANCH  18  20
HETATM   20  O   UNL     1     -39.231 -48.671  12.098  1.00  0.00    -0.380 OA
BRANCH  20  21
HETATM   21  C   UNL     1     -40.438 -48.100  11.602  1.00  0.00     0.164 C 
HETATM   22  C   UNL     1     -40.154 -46.682  11.147  1.00  0.00     0.033 C 
ENDBRANCH  20  21
ENDBRANCH  18  20
ENDBRANCH   1  18
TORSDOF 6
ENDMDL
