MODEL 1
REMARK VINA RESULT:      -5.6      0.000      0.000
REMARK  3 active torsions:
REMARK  status: ('A' for Active; 'I' for Inactive)
REMARK    1  A    between atoms: C_2  and  C_3 
REMARK    2  A    between atoms: C_2  and  N_10 
REMARK    3  A    between atoms: C_3  and  N_4 
REMARK       I    between atoms: N_10  and  C_11 
REMARK       I    between atoms: C_11  and  N_13 
ROOT
HETATM    1  N   UNL     1     -42.257 -49.705  11.990  1.00  0.00    -0.337 N 
HETATM    2  C   UNL     1     -42.037 -51.040  12.238  1.00  0.00     0.318 C 
HETATM    3  O   UNL     1     -41.164 -51.668  11.647  1.00  0.00    -0.247 OA
HETATM    4  N   UNL     1     -42.875 -51.614  13.185  1.00  0.00    -0.333 N 
HETATM    5  C   UNL     1     -44.074 -50.985  13.755  1.00  0.00     0.129 C 
HETATM    6  C   UNL     1     -45.312 -51.395  12.967  1.00  0.00     0.050 C 
HETATM    7  C   UNL     1     -45.957 -52.685  13.484  1.00  0.00     0.273 C 
HETATM    8  N   UNL     1     -45.055 -53.756  13.927  1.00  0.00     0.085 N 
HETATM    9  C   UNL     1     -45.802 -55.001  14.103  1.00  0.00     0.309 C 
HETATM   10  C   UNL     1     -43.875 -53.945  13.063  1.00  0.00     0.291 C 
HETATM   11  C   UNL     1     -42.699 -53.038  13.490  1.00  0.00     0.157 C 
HETATM   12  H   UNL     1     -42.539 -49.178  12.805  1.00  0.00     0.164 HD
ENDROOT
BRANCH   1  13
HETATM   13  C   UNL     1     -41.394 -48.965  11.064  1.00  0.00     0.102 C 
HETATM   14  C   UNL     1     -42.225 -47.952  10.271  1.00  0.00     0.034 C 
BRANCH  13  15
HETATM   15  C   UNL     1     -40.266 -48.227  11.799  1.00  0.00     0.172 C 
BRANCH  15  16
HETATM   16  N   UNL     1     -39.118 -49.077  12.066  1.00  0.00    -0.302 N 
HETATM   17  C   UNL     1     -38.483 -49.250  13.263  1.00  0.00     0.111 A 
HETATM   18  C   UNL     1     -37.500 -50.184  13.036  1.00  0.00     0.037 A 
HETATM   19  C   UNL     1     -37.618 -50.506  11.673  1.00  0.00     0.108 A 
HETATM   20  N   UNL     1     -38.592 -49.814  11.071  1.00  0.00    -0.310 N 
ATOM     21  HN  UNL     1     -38.869 -49.838  10.090  1.00  0.00     0.186 HD
ENDBRANCH  15  16
ENDBRANCH  13  15
ENDBRANCH   1  13
TORSDOF 3
ENDMDL
MODEL 2
REMARK VINA RESULT:      -5.3      2.107      7.116
REMARK  3 active torsions:
REMARK  status: ('A' for Active; 'I' for Inactive)
REMARK    1  A    between atoms: C_2  and  C_3 
REMARK    2  A    between atoms: C_2  and  N_10 
REMARK    3  A    between atoms: C_3  and  N_4 
REMARK       I    between atoms: N_10  and  C_11 
REMARK       I    between atoms: C_11  and  N_13 
ROOT
HETATM    1  N   UNL     1     -43.779 -50.019  12.728  1.00  0.00    -0.337 N 
HETATM    2  C   UNL     1     -42.451 -49.892  12.392  1.00  0.00     0.318 C 
HETATM    3  O   UNL     1     -41.588 -50.599  12.906  1.00  0.00    -0.247 OA
HETATM    4  N   UNL     1     -42.167 -48.912  11.450  1.00  0.00    -0.333 N 
HETATM    5  C   UNL     1     -43.109 -47.892  10.971  1.00  0.00     0.129 C 
HETATM    6  C   UNL     1     -42.965 -46.613  11.787  1.00  0.00     0.050 C 
HETATM    7  C   UNL     1     -41.911 -45.654  11.225  1.00  0.00     0.273 C 
HETATM    8  N   UNL     1     -40.684 -46.248  10.680  1.00  0.00     0.085 N 
HETATM    9  C   UNL     1     -39.676 -45.210  10.464  1.00  0.00     0.309 C 
HETATM   10  C   UNL     1     -40.152 -47.367  11.479  1.00  0.00     0.291 C 
HETATM   11  C   UNL     1     -40.768 -48.720  11.054  1.00  0.00     0.157 C 
HETATM   12  H   UNL     1     -44.414 -49.854  11.958  1.00  0.00     0.164 HD
ENDROOT
BRANCH   1  13
HETATM   13  C   UNL     1     -44.219 -51.064  13.657  1.00  0.00     0.102 C 
HETATM   14  C   UNL     1     -44.309 -50.497  15.077  1.00  0.00     0.034 C 
BRANCH  13  15
HETATM   15  C   UNL     1     -45.582 -51.647  13.259  1.00  0.00     0.172 C 
BRANCH  15  16
HETATM   16  N   UNL     1     -45.711 -53.055  13.594  1.00  0.00    -0.302 N 
HETATM   17  C   UNL     1     -44.854 -54.064  13.254  1.00  0.00     0.111 A 
HETATM   18  C   UNL     1     -45.359 -55.200  13.839  1.00  0.00     0.037 A 
HETATM   19  C   UNL     1     -46.525 -54.776  14.500  1.00  0.00     0.108 A 
HETATM   20  N   UNL     1     -46.756 -53.469  14.333  1.00  0.00    -0.310 N 
ATOM     21  HN  UNL     1     -47.539 -52.917  14.682  1.00  0.00     0.186 HD
ENDBRANCH  15  16
ENDBRANCH  13  15
ENDBRANCH   1  13
TORSDOF 3
ENDMDL
MODEL 3
REMARK VINA RESULT:      -5.2      2.855      4.497
REMARK  3 active torsions:
REMARK  status: ('A' for Active; 'I' for Inactive)
REMARK    1  A    between atoms: C_2  and  C_3 
REMARK    2  A    between atoms: C_2  and  N_10 
REMARK    3  A    between atoms: C_3  and  N_4 
REMARK       I    between atoms: N_10  and  C_11 
REMARK       I    between atoms: C_11  and  N_13 
ROOT
HETATM    1  N   UNL     1     -42.200 -48.742  10.934  1.00  0.00    -0.337 N 
HETATM    2  C   UNL     1     -41.110 -48.919  11.756  1.00  0.00     0.318 C 
HETATM    3  O   UNL     1     -40.135 -48.176  11.698  1.00  0.00    -0.247 OA
HETATM    4  N   UNL     1     -41.195 -49.993  12.632  1.00  0.00    -0.333 N 
HETATM    5  C   UNL     1     -42.220 -51.045  12.595  1.00  0.00     0.129 C 
HETATM    6  C   UNL     1     -41.728 -52.236  11.782  1.00  0.00     0.050 C 
HETATM    7  C   UNL     1     -40.957 -53.261  12.619  1.00  0.00     0.273 C 
HETATM    8  N   UNL     1     -40.063 -52.741  13.662  1.00  0.00     0.085 N 
HETATM    9  C   UNL     1     -39.195 -53.809  14.157  1.00  0.00     0.309 C 
HETATM   10  C   UNL     1     -39.290 -51.554  13.254  1.00  0.00     0.291 C 
HETATM   11  C   UNL     1     -40.062 -50.243  13.530  1.00  0.00     0.157 C 
HETATM   12  H   UNL     1     -43.082 -48.976  11.369  1.00  0.00     0.164 HD
ENDROOT
BRANCH   1  13
HETATM   13  C   UNL     1     -42.264 -47.603  10.015  1.00  0.00     0.102 C 
HETATM   14  C   UNL     1     -43.295 -47.876   8.915  1.00  0.00     0.034 C 
BRANCH  13  15
HETATM   15  C   UNL     1     -42.636 -46.302  10.741  1.00  0.00     0.172 C 
BRANCH  15  16
HETATM   16  N   UNL     1     -41.567 -45.318  10.715  1.00  0.00    -0.302 N 
HETATM   17  C   UNL     1     -41.583 -44.069  11.269  1.00  0.00     0.111 A 
HETATM   18  C   UNL     1     -40.337 -43.538  11.038  1.00  0.00     0.037 A 
HETATM   19  C   UNL     1     -39.645 -44.538  10.332  1.00  0.00     0.108 A 
HETATM   20  N   UNL     1     -40.402 -45.619  10.112  1.00  0.00    -0.310 N 
ATOM     21  HN  UNL     1     -40.156 -46.470   9.607  1.00  0.00     0.186 HD
ENDBRANCH  15  16
ENDBRANCH  13  15
ENDBRANCH   1  13
TORSDOF 3
ENDMDL
MODEL 4
REMARK VINA RESULT:      -5.2      2.881      6.575
REMARK  3 active torsions:
REMARK  status: ('A' for Active; 'I' for Inactive)
REMARK    1  A    between atoms: C_2  and  C_3 
REMARK    2  A    between atoms: C_2  and  N_10 
REMARK    3  A    between atoms: C_3  and  N_4 
REMARK       I    between atoms: N_10  and  C_11 
REMARK       I    between atoms: C_11  and  N_13 
ROOT
HETATM    1  N   UNL     1     -39.370 -48.523  11.957  1.00  0.00    -0.337 N 
HETATM    2  C   UNL     1     -40.663 -48.148  11.673  1.00  0.00     0.318 C 
HETATM    3  O   UNL     1     -41.426 -48.886  11.056  1.00  0.00    -0.247 OA
HETATM    4  N   UNL     1     -41.027 -46.885  12.121  1.00  0.00    -0.333 N 
HETATM    5  C   UNL     1     -40.107 -45.872  12.657  1.00  0.00     0.129 C 
HETATM    6  C   UNL     1     -39.651 -44.931  11.548  1.00  0.00     0.050 C 
HETATM    7  C   UNL     1     -40.582 -43.730  11.355  1.00  0.00     0.273 C 
HETATM    8  N   UNL     1     -42.025 -43.971  11.485  1.00  0.00     0.085 N 
HETATM    9  C   UNL     1     -42.774 -42.816  10.987  1.00  0.00     0.309 C 
HETATM   10  C   UNL     1     -42.483 -45.227  10.864  1.00  0.00     0.291 C 
HETATM   11  C   UNL     1     -42.390 -46.420  11.843  1.00  0.00     0.157 C 
HETATM   12  H   UNL     1     -39.031 -48.181  12.846  1.00  0.00     0.164 HD
ENDROOT
BRANCH   1  13
HETATM   13  C   UNL     1     -38.885 -49.860  11.601  1.00  0.00     0.102 C 
HETATM   14  C   UNL     1     -37.434 -49.777  11.118  1.00  0.00     0.034 C 
BRANCH  13  15
HETATM   15  C   UNL     1     -38.967 -50.833  12.786  1.00  0.00     0.172 C 
BRANCH  15  16
HETATM   16  N   UNL     1     -40.075 -51.766  12.672  1.00  0.00    -0.302 N 
HETATM   17  C   UNL     1     -40.448 -52.716  13.579  1.00  0.00     0.111 A 
HETATM   18  C   UNL     1     -41.577 -53.308  13.063  1.00  0.00     0.037 A 
HETATM   19  C   UNL     1     -41.798 -52.652  11.839  1.00  0.00     0.108 A 
HETATM   20  N   UNL     1     -40.868 -51.725  11.585  1.00  0.00    -0.310 N 
ATOM     21  HN  UNL     1     -40.781 -51.127  10.763  1.00  0.00     0.186 HD
ENDBRANCH  15  16
ENDBRANCH  13  15
ENDBRANCH   1  13
TORSDOF 3
ENDMDL
MODEL 5
REMARK VINA RESULT:      -5.0      2.403      2.841
REMARK  3 active torsions:
REMARK  status: ('A' for Active; 'I' for Inactive)
REMARK    1  A    between atoms: C_2  and  C_3 
REMARK    2  A    between atoms: C_2  and  N_10 
REMARK    3  A    between atoms: C_3  and  N_4 
REMARK       I    between atoms: N_10  and  C_11 
REMARK       I    between atoms: C_11  and  N_13 
ROOT
HETATM    1  N   UNL     1     -43.146 -49.042  12.326  1.00  0.00    -0.337 N 
HETATM    2  C   UNL     1     -42.641 -50.317  12.446  1.00  0.00     0.318 C 
HETATM    3  O   UNL     1     -41.653 -50.678  11.813  1.00  0.00    -0.247 OA
HETATM    4  N   UNL     1     -43.331 -51.150  13.316  1.00  0.00    -0.333 N 
HETATM    5  C   UNL     1     -44.637 -50.856  13.922  1.00  0.00     0.129 C 
HETATM    6  C   UNL     1     -45.758 -51.443  13.074  1.00  0.00     0.050 C 
HETATM    7  C   UNL     1     -46.106 -52.887  13.448  1.00  0.00     0.273 C 
HETATM    8  N   UNL     1     -44.992 -53.777  13.802  1.00  0.00     0.085 N 
HETATM    9  C   UNL     1     -45.450 -55.165  13.840  1.00  0.00     0.309 C 
HETATM   10  C   UNL     1     -43.802 -53.618  12.946  1.00  0.00     0.291 C 
HETATM   11  C   UNL     1     -42.849 -52.525  13.483  1.00  0.00     0.157 C 
HETATM   12  H   UNL     1     -43.534 -48.673  13.184  1.00  0.00     0.164 HD
ENDROOT
BRANCH   1  13
HETATM   13  C   UNL     1     -42.466 -48.045  11.494  1.00  0.00     0.102 C 
HETATM   14  C   UNL     1     -43.438 -47.488  10.449  1.00  0.00     0.034 C 
BRANCH  13  15
HETATM   15  C   UNL     1     -41.908 -46.885  12.332  1.00  0.00     0.172 C 
BRANCH  15  16
HETATM   16  N   UNL     1     -41.096 -45.968  11.551  1.00  0.00    -0.302 N 
HETATM   17  C   UNL     1     -41.005 -44.614  11.705  1.00  0.00     0.111 A 
HETATM   18  C   UNL     1     -40.077 -44.191  10.783  1.00  0.00     0.037 A 
HETATM   19  C   UNL     1     -39.674 -45.361  10.117  1.00  0.00     0.108 A 
HETATM   20  N   UNL     1     -40.312 -46.447  10.568  1.00  0.00    -0.310 N 
ATOM     21  HN  UNL     1     -40.226 -47.410  10.243  1.00  0.00     0.186 HD
ENDBRANCH  15  16
ENDBRANCH  13  15
ENDBRANCH   1  13
TORSDOF 3
ENDMDL
MODEL 6
REMARK VINA RESULT:      -5.0      2.219      6.139
REMARK  3 active torsions:
REMARK  status: ('A' for Active; 'I' for Inactive)
REMARK    1  A    between atoms: C_2  and  C_3 
REMARK    2  A    between atoms: C_2  and  N_10 
REMARK    3  A    between atoms: C_3  and  N_4 
REMARK       I    between atoms: N_10  and  C_11 
REMARK       I    between atoms: C_11  and  N_13 
ROOT
HETATM    1  N   UNL     1     -42.722 -50.252  12.126  1.00  0.00    -0.337 N 
HETATM    2  C   UNL     1     -41.524 -49.617  12.363  1.00  0.00     0.318 C 
HETATM    3  O   UNL     1     -40.863 -49.848  13.371  1.00  0.00    -0.247 OA
HETATM    4  N   UNL     1     -41.134 -48.704  11.393  1.00  0.00    -0.333 N 
HETATM    5  C   UNL     1     -41.975 -48.218  10.291  1.00  0.00     0.129 C 
HETATM    6  C   UNL     1     -42.673 -46.923  10.688  1.00  0.00     0.050 C 
HETATM    7  C   UNL     1     -41.847 -45.672  10.376  1.00  0.00     0.273 C 
HETATM    8  N   UNL     1     -40.397 -45.751  10.596  1.00  0.00     0.085 N 
HETATM    9  C   UNL     1     -39.806 -44.414  10.540  1.00  0.00     0.309 C 
HETATM   10  C   UNL     1     -40.015 -46.466  11.828  1.00  0.00     0.291 C 
HETATM   11  C   UNL     1     -39.869 -47.986  11.589  1.00  0.00     0.157 C 
HETATM   12  H   UNL     1     -42.899 -50.440  11.149  1.00  0.00     0.164 HD
ENDROOT
BRANCH   1  13
HETATM   13  C   UNL     1     -43.210 -51.290  13.038  1.00  0.00     0.102 C 
HETATM   14  C   UNL     1     -44.725 -51.158  13.217  1.00  0.00     0.034 C 
BRANCH  13  15
HETATM   15  C   UNL     1     -42.885 -52.701  12.525  1.00  0.00     0.172 C 
BRANCH  15  16
HETATM   16  N   UNL     1     -41.755 -53.302  13.212  1.00  0.00    -0.302 N 
HETATM   17  C   UNL     1     -41.463 -53.221  14.544  1.00  0.00     0.111 A 
HETATM   18  C   UNL     1     -40.340 -53.991  14.732  1.00  0.00     0.037 A 
HETATM   19  C   UNL     1     -40.026 -54.486  13.453  1.00  0.00     0.108 A 
HETATM   20  N   UNL     1     -40.876 -54.048  12.518  1.00  0.00    -0.310 N 
ATOM     21  HN  UNL     1     -40.861 -54.234  11.515  1.00  0.00     0.186 HD
ENDBRANCH  15  16
ENDBRANCH  13  15
ENDBRANCH   1  13
TORSDOF 3
ENDMDL
MODEL 7
REMARK VINA RESULT:      -4.9      1.776      6.528
REMARK  3 active torsions:
REMARK  status: ('A' for Active; 'I' for Inactive)
REMARK    1  A    between atoms: C_2  and  C_3 
REMARK    2  A    between atoms: C_2  and  N_10 
REMARK    3  A    between atoms: C_3  and  N_4 
REMARK       I    between atoms: N_10  and  C_11 
REMARK       I    between atoms: C_11  and  N_13 
ROOT
HETATM    1  N   UNL     1     -42.697 -52.250  12.751  1.00  0.00    -0.337 N 
HETATM    2  C   UNL     1     -41.533 -51.720  12.245  1.00  0.00     0.318 C 
HETATM    3  O   UNL     1     -40.541 -52.418  12.049  1.00  0.00    -0.247 OA
HETATM    4  N   UNL     1     -41.564 -50.356  11.987  1.00  0.00    -0.333 N 
HETATM    5  C   UNL     1     -42.626 -49.433  12.406  1.00  0.00     0.129 C 
HETATM    6  C   UNL     1     -42.271 -48.787  13.740  1.00  0.00     0.050 C 
HETATM    7  C   UNL     1     -41.454 -47.501  13.589  1.00  0.00     0.273 C 
HETATM    8  N   UNL     1     -40.433 -47.472  12.534  1.00  0.00     0.085 N 
HETATM    9  C   UNL     1     -39.558 -46.314  12.713  1.00  0.00     0.309 C 
HETATM   10  C   UNL     1     -39.664 -48.724  12.409  1.00  0.00     0.291 C 
HETATM   11  C   UNL     1     -40.350 -49.727  11.453  1.00  0.00     0.157 C 
HETATM   12  H   UNL     1     -43.536 -51.820  12.384  1.00  0.00     0.164 HD
ENDROOT
BRANCH   1  13
HETATM   13  C   UNL     1     -42.818 -53.690  12.998  1.00  0.00     0.102 C 
HETATM   14  C   UNL     1     -42.315 -54.021  14.407  1.00  0.00     0.034 C 
BRANCH  13  15
HETATM   15  C   UNL     1     -44.267 -54.176  12.853  1.00  0.00     0.172 C 
BRANCH  15  16
HETATM   16  N   UNL     1     -45.240 -53.122  13.084  1.00  0.00    -0.302 N 
HETATM   17  C   UNL     1     -45.690 -52.667  14.290  1.00  0.00     0.111 A 
HETATM   18  C   UNL     1     -46.550 -51.633  14.006  1.00  0.00     0.037 A 
HETATM   19  C   UNL     1     -46.559 -51.549  12.603  1.00  0.00     0.108 A 
HETATM   20  N   UNL     1     -45.777 -52.473  12.034  1.00  0.00    -0.310 N 
ATOM     21  HN  UNL     1     -45.623 -52.646  11.041  1.00  0.00     0.186 HD
ENDBRANCH  15  16
ENDBRANCH  13  15
ENDBRANCH   1  13
TORSDOF 3
ENDMDL
MODEL 8
REMARK VINA RESULT:      -4.8      2.947      5.983
REMARK  3 active torsions:
REMARK  status: ('A' for Active; 'I' for Inactive)
REMARK    1  A    between atoms: C_2  and  C_3 
REMARK    2  A    between atoms: C_2  and  N_10 
REMARK    3  A    between atoms: C_3  and  N_4 
REMARK       I    between atoms: N_10  and  C_11 
REMARK       I    between atoms: C_11  and  N_13 
ROOT
HETATM    1  N   UNL     1     -44.105 -51.017  12.751  1.00  0.00    -0.337 N 
HETATM    2  C   UNL     1     -43.693 -50.100  13.691  1.00  0.00     0.318 C 
HETATM    3  O   UNL     1     -44.096 -50.143  14.850  1.00  0.00    -0.247 OA
HETATM    4  N   UNL     1     -42.809 -49.134  13.230  1.00  0.00    -0.333 N 
HETATM    5  C   UNL     1     -42.470 -48.890  11.822  1.00  0.00     0.129 C 
HETATM    6  C   UNL     1     -43.367 -47.805  11.240  1.00  0.00     0.050 C 
HETATM    7  C   UNL     1     -42.809 -46.392  11.437  1.00  0.00     0.273 C 
HETATM    8  N   UNL     1     -42.142 -46.103  12.713  1.00  0.00     0.085 N 
HETATM    9  C   UNL     1     -41.938 -44.662  12.860  1.00  0.00     0.309 C 
HETATM   10  C   UNL     1     -42.820 -46.681  13.889  1.00  0.00     0.291 C 
HETATM   11  C   UNL     1     -42.338 -48.120  14.181  1.00  0.00     0.157 C 
HETATM   12  H   UNL     1     -43.392 -51.259  12.076  1.00  0.00     0.164 HD
ENDROOT
BRANCH   1  13
HETATM   13  C   UNL     1     -44.981 -52.131  13.127  1.00  0.00     0.102 C 
HETATM   14  C   UNL     1     -46.379 -51.917  12.540  1.00  0.00     0.034 C 
BRANCH  13  15
HETATM   15  C   UNL     1     -44.431 -53.480  12.642  1.00  0.00     0.172 C 
BRANCH  15  16
HETATM   16  N   UNL     1     -43.118 -53.781  13.186  1.00  0.00    -0.302 N 
HETATM   17  C   UNL     1     -42.815 -54.090  14.482  1.00  0.00     0.111 A 
HETATM   18  C   UNL     1     -41.465 -54.349  14.501  1.00  0.00     0.037 A 
HETATM   19  C   UNL     1     -41.044 -54.161  13.173  1.00  0.00     0.108 A 
HETATM   20  N   UNL     1     -42.048 -53.791  12.370  1.00  0.00    -0.310 N 
ATOM     21  HN  UNL     1     -42.012 -53.568  11.376  1.00  0.00     0.186 HD
ENDBRANCH  15  16
ENDBRANCH  13  15
ENDBRANCH   1  13
TORSDOF 3
ENDMDL
MODEL 9
REMARK VINA RESULT:      -4.7     15.514     17.238
REMARK  3 active torsions:
REMARK  status: ('A' for Active; 'I' for Inactive)
REMARK    1  A    between atoms: C_2  and  C_3 
REMARK    2  A    between atoms: C_2  and  N_10 
REMARK    3  A    between atoms: C_3  and  N_4 
REMARK       I    between atoms: N_10  and  C_11 
REMARK       I    between atoms: C_11  and  N_13 
ROOT
HETATM    1  N   UNL     1     -51.896 -51.923  -1.045  1.00  0.00    -0.337 N 
HETATM    2  C   UNL     1     -51.005 -51.154  -0.332  1.00  0.00     0.318 C 
HETATM    3  O   UNL     1     -50.044 -51.653   0.246  1.00  0.00    -0.247 OA
HETATM    4  N   UNL     1     -51.280 -49.793  -0.309  1.00  0.00    -0.333 N 
HETATM    5  C   UNL     1     -52.522 -49.167  -0.781  1.00  0.00     0.129 C 
HETATM    6  C   UNL     1     -53.503 -48.998   0.373  1.00  0.00     0.050 C 
HETATM    7  C   UNL     1     -53.328 -47.676   1.125  1.00  0.00     0.273 C 
HETATM    8  N   UNL     1     -51.955 -47.195   1.331  1.00  0.00     0.085 N 
HETATM    9  C   UNL     1     -51.945 -46.102   2.303  1.00  0.00     0.309 C 
HETATM   10  C   UNL     1     -50.996 -48.256   1.692  1.00  0.00     0.291 C 
HETATM   11  C   UNL     1     -50.373 -48.917   0.441  1.00  0.00     0.157 C 
HETATM   12  H   UNL     1     -52.266 -51.465  -1.867  1.00  0.00     0.164 HD
ENDROOT
BRANCH   1  13
HETATM   13  C   UNL     1     -51.677 -53.364  -1.205  1.00  0.00     0.102 C 
HETATM   14  C   UNL     1     -52.855 -54.140  -0.610  1.00  0.00     0.034 C 
BRANCH  13  15
HETATM   15  C   UNL     1     -51.509 -53.756  -2.680  1.00  0.00     0.172 C 
BRANCH  15  16
HETATM   16  N   UNL     1     -50.684 -54.940  -2.856  1.00  0.00    -0.302 N 
HETATM   17  C   UNL     1     -49.417 -55.138  -2.384  1.00  0.00     0.111 A 
HETATM   18  C   UNL     1     -49.075 -56.418  -2.749  1.00  0.00     0.037 A 
HETATM   19  C   UNL     1     -50.196 -56.905  -3.445  1.00  0.00     0.108 A 
HETATM   20  N   UNL     1     -51.173 -55.995  -3.532  1.00  0.00    -0.310 N 
ATOM     21  HN  UNL     1     -52.075 -56.081  -4.001  1.00  0.00     0.186 HD
ENDBRANCH  15  16
ENDBRANCH  13  15
ENDBRANCH   1  13
TORSDOF 3
ENDMDL
