MODEL 1
REMARK VINA RESULT:      -6.3      0.000      0.000
REMARK  5 active torsions:
REMARK  status: ('A' for Active; 'I' for Inactive)
REMARK    1  A    between atoms: C_2  and  C_5 
REMARK    2  A    between atoms: C_5  and  N_6 
REMARK       I    between atoms: N_6  and  C_7 
REMARK       I    between atoms: C_7  and  N_9 
REMARK    3  A    between atoms: N_9  and  C_10 
REMARK    4  A    between atoms: C_10  and  C_11 
REMARK    5  A    between atoms: C_17  and  N_18 
ROOT
HETATM    1  C   UNL     1     -43.615 -47.416  10.663  1.00  0.00     0.004 A 
HETATM    2  C   UNL     1     -44.783 -47.799   9.966  1.00  0.00     0.014 A 
HETATM    3  C   UNL     1     -45.392 -46.930   9.080  1.00  0.00     0.018 A 
HETATM    4  C   UNL     1     -44.798 -45.706   8.892  1.00  0.00     0.089 A 
HETATM    5  N   UNL     1     -43.663 -45.321   9.514  1.00  0.00    -0.352 N 
ATOM      6  HN  UNL     1     -43.263 -44.404   9.319  1.00  0.00     0.166 HD
HETATM    7  C   UNL     1     -43.054 -46.151  10.401  1.00  0.00     0.111 A 
ENDROOT
BRANCH   1   8
HETATM    8  C   UNL     1     -43.128 -48.369  11.722  1.00  0.00     0.166 C 
BRANCH   8   9
HETATM    9  N   UNL     1     -42.083 -49.258  11.253  1.00  0.00    -0.339 N 
HETATM   10  C   UNL     1     -41.135 -49.706  12.128  1.00  0.00     0.316 C 
HETATM   11  N   UNL     1     -40.182 -50.483  11.529  1.00  0.00    -0.335 N 
HETATM   12  O   UNL     1     -41.150 -49.477  13.330  1.00  0.00    -0.247 OA
HETATM   13  H   UNL     1     -40.018 -50.334  10.545  1.00  0.00     0.164 HD
HETATM   14  H   UNL     1     -41.928 -49.339  10.260  1.00  0.00     0.164 HD
BRANCH  11  15
HETATM   15  C   UNL     1     -39.063 -50.993  12.329  1.00  0.00     0.241 C 
BRANCH  15  16
HETATM   16  C   UNL     1     -37.690 -50.370  12.035  1.00  0.00     0.403 C 
HETATM   17  F   UNL     1     -36.674 -51.174  12.429  1.00  0.00    -0.169 F 
HETATM   18  F   UNL     1     -37.554 -49.206  12.719  1.00  0.00    -0.169 F 
HETATM   19  F   UNL     1     -37.522 -50.089  10.726  1.00  0.00    -0.169 F 
ENDBRANCH  15  16
ENDBRANCH  11  15
ENDBRANCH   8   9
ENDBRANCH   1   8
BRANCH   7  20
HETATM   20  N   UNL     1     -41.931 -45.644  11.010  1.00  0.00    -0.363 N 
HETATM   21  C   UNL     1     -42.064 -44.506  11.940  1.00  0.00     0.150 C 
HETATM   22  C   UNL     1     -41.145 -43.342  11.537  1.00  0.00     0.187 C 
HETATM   23  O   UNL     1     -39.786 -43.768  11.350  1.00  0.00    -0.388 OA
HETATM   24  C   UNL     1     -39.730 -44.764  10.323  1.00  0.00     0.187 C 
HETATM   25  C   UNL     1     -40.549 -46.007  10.696  1.00  0.00     0.150 C 
ENDBRANCH   7  20
TORSDOF 5
ENDMDL
MODEL 2
REMARK VINA RESULT:      -6.3      4.031      7.484
REMARK  5 active torsions:
REMARK  status: ('A' for Active; 'I' for Inactive)
REMARK    1  A    between atoms: C_2  and  C_5 
REMARK    2  A    between atoms: C_5  and  N_6 
REMARK       I    between atoms: N_6  and  C_7 
REMARK       I    between atoms: C_7  and  N_9 
REMARK    3  A    between atoms: N_9  and  C_10 
REMARK    4  A    between atoms: C_10  and  C_11 
REMARK    5  A    between atoms: C_17  and  N_18 
ROOT
HETATM    1  C   UNL     1     -39.583 -49.565  12.073  1.00  0.00     0.004 A 
HETATM    2  C   UNL     1     -38.239 -49.265  11.761  1.00  0.00     0.014 A 
HETATM    3  C   UNL     1     -37.221 -50.124  12.132  1.00  0.00     0.018 A 
HETATM    4  C   UNL     1     -37.578 -51.278  12.785  1.00  0.00     0.089 A 
HETATM    5  N   UNL     1     -38.855 -51.612  13.068  1.00  0.00    -0.352 N 
ATOM      6  HN  UNL     1     -39.057 -52.493  13.541  1.00  0.00     0.166 HD
HETATM    7  C   UNL     1     -39.872 -50.779  12.727  1.00  0.00     0.111 A 
ENDROOT
BRANCH   1   8
HETATM    8  C   UNL     1     -40.593 -48.491  11.770  1.00  0.00     0.166 C 
BRANCH   8   9
HETATM    9  N   UNL     1     -41.289 -48.698  10.515  1.00  0.00    -0.339 N 
HETATM   10  C   UNL     1     -42.185 -47.765  10.078  1.00  0.00     0.316 C 
HETATM   11  N   UNL     1     -42.807 -48.127   8.915  1.00  0.00    -0.335 N 
HETATM   12  O   UNL     1     -42.388 -46.695  10.637  1.00  0.00    -0.247 OA
HETATM   13  H   UNL     1     -42.877 -49.114   8.718  1.00  0.00     0.164 HD
HETATM   14  H   UNL     1     -41.288 -49.622  10.110  1.00  0.00     0.164 HD
BRANCH  11  15
HETATM   15  C   UNL     1     -43.840 -47.252   8.349  1.00  0.00     0.241 C 
BRANCH  15  16
HETATM   16  C   UNL     1     -45.284 -47.556   8.774  1.00  0.00     0.403 C 
HETATM   17  F   UNL     1     -46.061 -46.449   8.758  1.00  0.00    -0.169 F 
HETATM   18  F   UNL     1     -45.302 -48.027  10.047  1.00  0.00    -0.169 F 
HETATM   19  F   UNL     1     -45.864 -48.490   7.992  1.00  0.00    -0.169 F 
ENDBRANCH  15  16
ENDBRANCH  11  15
ENDBRANCH   8   9
ENDBRANCH   1   8
BRANCH   7  20
HETATM   20  N   UNL     1     -41.128 -51.194  13.101  1.00  0.00    -0.363 N 
HETATM   21  C   UNL     1     -41.582 -50.968  14.487  1.00  0.00     0.150 C 
HETATM   22  C   UNL     1     -42.050 -52.276  15.145  1.00  0.00     0.187 C 
HETATM   23  O   UNL     1     -43.014 -52.970  14.337  1.00  0.00    -0.388 OA
HETATM   24  C   UNL     1     -42.438 -53.286  13.064  1.00  0.00     0.187 C 
HETATM   25  C   UNL     1     -42.032 -52.020  12.298  1.00  0.00     0.150 C 
ENDBRANCH   7  20
TORSDOF 5
ENDMDL
MODEL 3
REMARK VINA RESULT:      -6.2      2.722      3.035
REMARK  5 active torsions:
REMARK  status: ('A' for Active; 'I' for Inactive)
REMARK    1  A    between atoms: C_2  and  C_5 
REMARK    2  A    between atoms: C_5  and  N_6 
REMARK       I    between atoms: N_6  and  C_7 
REMARK       I    between atoms: C_7  and  N_9 
REMARK    3  A    between atoms: N_9  and  C_10 
REMARK    4  A    between atoms: C_10  and  C_11 
REMARK    5  A    between atoms: C_17  and  N_18 
ROOT
HETATM    1  C   UNL     1     -42.109 -47.019  10.205  1.00  0.00     0.004 A 
HETATM    2  C   UNL     1     -42.860 -47.747   9.255  1.00  0.00     0.014 A 
HETATM    3  C   UNL     1     -43.962 -47.179   8.644  1.00  0.00     0.018 A 
HETATM    4  C   UNL     1     -44.270 -45.883   8.980  1.00  0.00     0.089 A 
HETATM    5  N   UNL     1     -43.553 -45.147   9.857  1.00  0.00    -0.352 N 
ATOM      6  HN  UNL     1     -43.824 -44.184  10.051  1.00  0.00     0.166 HD
HETATM    7  C   UNL     1     -42.475 -45.687  10.481  1.00  0.00     0.111 A 
ENDROOT
BRANCH   1   8
HETATM    8  C   UNL     1     -41.032 -47.782  10.929  1.00  0.00     0.166 C 
BRANCH   8   9
HETATM    9  N   UNL     1     -41.046 -49.203  10.642  1.00  0.00    -0.339 N 
HETATM   10  C   UNL     1     -40.994 -50.101  11.669  1.00  0.00     0.316 C 
HETATM   11  N   UNL     1     -40.952 -51.399  11.241  1.00  0.00    -0.335 N 
HETATM   12  O   UNL     1     -41.024 -49.789  12.853  1.00  0.00    -0.247 OA
HETATM   13  H   UNL     1     -40.572 -51.569  10.323  1.00  0.00     0.164 HD
HETATM   14  H   UNL     1     -40.851 -49.506   9.700  1.00  0.00     0.164 HD
BRANCH  11  15
HETATM   15  C   UNL     1     -40.837 -52.478  12.229  1.00  0.00     0.241 C 
BRANCH  15  16
HETATM   16  C   UNL     1     -42.162 -53.044  12.762  1.00  0.00     0.403 C 
HETATM   17  F   UNL     1     -43.196 -52.782  11.929  1.00  0.00    -0.169 F 
HETATM   18  F   UNL     1     -42.465 -52.470  13.953  1.00  0.00    -0.169 F 
HETATM   19  F   UNL     1     -42.108 -54.378  12.960  1.00  0.00    -0.169 F 
ENDBRANCH  15  16
ENDBRANCH  11  15
ENDBRANCH   8   9
ENDBRANCH   1   8
BRANCH   7  20
HETATM   20  N   UNL     1     -41.844 -44.867  11.387  1.00  0.00    -0.363 N 
HETATM   21  C   UNL     1     -42.459 -44.641  12.709  1.00  0.00     0.150 C 
HETATM   22  C   UNL     1     -42.638 -43.142  12.996  1.00  0.00     0.187 C 
HETATM   23  O   UNL     1     -41.419 -42.407  12.803  1.00  0.00    -0.388 OA
HETATM   24  C   UNL     1     -40.974 -42.558  11.451  1.00  0.00     0.187 C 
HETATM   25  C   UNL     1     -40.678 -44.025  11.113  1.00  0.00     0.150 C 
ENDBRANCH   7  20
TORSDOF 5
ENDMDL
MODEL 4
REMARK VINA RESULT:      -6.0      4.638      6.260
REMARK  5 active torsions:
REMARK  status: ('A' for Active; 'I' for Inactive)
REMARK    1  A    between atoms: C_2  and  C_5 
REMARK    2  A    between atoms: C_5  and  N_6 
REMARK       I    between atoms: N_6  and  C_7 
REMARK       I    between atoms: C_7  and  N_9 
REMARK    3  A    between atoms: N_9  and  C_10 
REMARK    4  A    between atoms: C_10  and  C_11 
REMARK    5  A    between atoms: C_17  and  N_18 
ROOT
HETATM    1  C   UNL     1     -40.890 -49.007  11.386  1.00  0.00     0.004 A 
HETATM    2  C   UNL     1     -41.970 -48.370  10.736  1.00  0.00     0.014 A 
HETATM    3  C   UNL     1     -41.892 -47.035  10.384  1.00  0.00     0.018 A 
HETATM    4  C   UNL     1     -40.720 -46.378  10.668  1.00  0.00     0.089 A 
HETATM    5  N   UNL     1     -39.656 -46.965  11.256  1.00  0.00    -0.352 N 
ATOM      6  HN  UNL     1     -38.807 -46.426  11.424  1.00  0.00     0.166 HD
HETATM    7  C   UNL     1     -39.713 -48.271  11.624  1.00  0.00     0.111 A 
ENDROOT
BRANCH   1   8
HETATM    8  C   UNL     1     -41.139 -50.411  11.871  1.00  0.00     0.166 C 
BRANCH   8   9
HETATM    9  N   UNL     1     -42.547 -50.740  11.969  1.00  0.00    -0.339 N 
HETATM   10  C   UNL     1     -43.118 -50.909  13.198  1.00  0.00     0.316 C 
HETATM   11  N   UNL     1     -44.433 -51.277  13.130  1.00  0.00    -0.335 N 
HETATM   12  O   UNL     1     -42.534 -50.714  14.256  1.00  0.00    -0.247 OA
HETATM   13  H   UNL     1     -44.733 -51.760  12.296  1.00  0.00     0.164 HD
HETATM   14  H   UNL     1     -43.023 -51.074  11.145  1.00  0.00     0.164 HD
BRANCH  11  15
HETATM   15  C   UNL     1     -45.168 -51.552  14.369  1.00  0.00     0.241 C 
BRANCH  15  16
HETATM   16  C   UNL     1     -46.691 -51.688  14.230  1.00  0.00     0.403 C 
HETATM   17  F   UNL     1     -47.089 -52.982  14.260  1.00  0.00    -0.169 F 
HETATM   18  F   UNL     1     -47.094 -51.184  13.036  1.00  0.00    -0.169 F 
HETATM   19  F   UNL     1     -47.358 -51.020  15.194  1.00  0.00    -0.169 F 
ENDBRANCH  15  16
ENDBRANCH  11  15
ENDBRANCH   8   9
ENDBRANCH   1   8
BRANCH   7  20
HETATM   20  N   UNL     1     -38.592 -48.758  12.254  1.00  0.00    -0.363 N 
HETATM   21  C   UNL     1     -37.643 -49.596  11.497  1.00  0.00     0.150 C 
HETATM   22  C   UNL     1     -37.394 -50.939  12.201  1.00  0.00     0.187 C 
HETATM   23  O   UNL     1     -37.024 -50.765  13.578  1.00  0.00    -0.388 OA
HETATM   24  C   UNL     1     -38.069 -50.077  14.274  1.00  0.00     0.187 C 
HETATM   25  C   UNL     1     -38.314 -48.679  13.689  1.00  0.00     0.150 C 
ENDBRANCH   7  20
TORSDOF 5
ENDMDL
MODEL 5
REMARK VINA RESULT:      -6.0      4.112      4.702
REMARK  5 active torsions:
REMARK  status: ('A' for Active; 'I' for Inactive)
REMARK    1  A    between atoms: C_2  and  C_5 
REMARK    2  A    between atoms: C_5  and  N_6 
REMARK       I    between atoms: N_6  and  C_7 
REMARK       I    between atoms: C_7  and  N_9 
REMARK    3  A    between atoms: N_9  and  C_10 
REMARK    4  A    between atoms: C_10  and  C_11 
REMARK    5  A    between atoms: C_17  and  N_18 
ROOT
HETATM    1  C   UNL     1     -42.327 -47.349  10.616  1.00  0.00     0.004 A 
HETATM    2  C   UNL     1     -42.952 -47.734   9.409  1.00  0.00     0.014 A 
HETATM    3  C   UNL     1     -43.689 -46.823   8.675  1.00  0.00     0.018 A 
HETATM    4  C   UNL     1     -43.759 -45.538   9.156  1.00  0.00     0.089 A 
HETATM    5  N   UNL     1     -43.146 -45.128  10.287  1.00  0.00    -0.352 N 
ATOM      6  HN  UNL     1     -43.223 -44.155  10.582  1.00  0.00     0.166 HD
HETATM    7  C   UNL     1     -42.428 -46.007  11.033  1.00  0.00     0.111 A 
ENDROOT
BRANCH   1   8
HETATM    8  C   UNL     1     -41.690 -48.453  11.418  1.00  0.00     0.166 C 
BRANCH   8   9
HETATM    9  N   UNL     1     -42.565 -49.591  11.620  1.00  0.00    -0.339 N 
HETATM   10  C   UNL     1     -43.286 -49.691  12.776  1.00  0.00     0.316 C 
HETATM   11  N   UNL     1     -44.015 -50.846  12.851  1.00  0.00    -0.335 N 
HETATM   12  O   UNL     1     -43.316 -48.826  13.641  1.00  0.00    -0.247 OA
HETATM   13  H   UNL     1     -43.679 -51.638  12.324  1.00  0.00     0.164 HD
HETATM   14  H   UNL     1     -42.448 -50.399  11.029  1.00  0.00     0.164 HD
BRANCH  11  15
HETATM   15  C   UNL     1     -44.798 -51.124  14.060  1.00  0.00     0.241 C 
BRANCH  15  16
HETATM   16  C   UNL     1     -46.258 -51.542  13.832  1.00  0.00     0.403 C 
HETATM   17  F   UNL     1     -47.093 -50.986  14.741  1.00  0.00    -0.169 F 
HETATM   18  F   UNL     1     -46.380 -52.887  13.960  1.00  0.00    -0.169 F 
HETATM   19  F   UNL     1     -46.701 -51.214  12.599  1.00  0.00    -0.169 F 
ENDBRANCH  15  16
ENDBRANCH  11  15
ENDBRANCH   8   9
ENDBRANCH   1   8
BRANCH   7  20
HETATM   20  N   UNL     1     -41.882 -45.497  12.187  1.00  0.00    -0.363 N 
HETATM   21  C   UNL     1     -42.736 -45.332  13.380  1.00  0.00     0.150 C 
HETATM   22  C   UNL     1     -42.686 -43.890  13.911  1.00  0.00     0.187 C 
HETATM   23  O   UNL     1     -41.337 -43.436  14.110  1.00  0.00    -0.388 OA
HETATM   24  C   UNL     1     -40.624 -43.485  12.869  1.00  0.00     0.187 C 
HETATM   25  C   UNL     1     -40.545 -44.916  12.319  1.00  0.00     0.150 C 
ENDBRANCH   7  20
TORSDOF 5
ENDMDL
MODEL 6
REMARK VINA RESULT:      -5.9      4.447      7.315
REMARK  5 active torsions:
REMARK  status: ('A' for Active; 'I' for Inactive)
REMARK    1  A    between atoms: C_2  and  C_5 
REMARK    2  A    between atoms: C_5  and  N_6 
REMARK       I    between atoms: N_6  and  C_7 
REMARK       I    between atoms: C_7  and  N_9 
REMARK    3  A    between atoms: N_9  and  C_10 
REMARK    4  A    between atoms: C_10  and  C_11 
REMARK    5  A    between atoms: C_17  and  N_18 
ROOT
HETATM    1  C   UNL     1     -43.859 -51.556  13.640  1.00  0.00     0.004 A 
HETATM    2  C   UNL     1     -45.139 -51.033  13.352  1.00  0.00     0.014 A 
HETATM    3  C   UNL     1     -46.230 -51.872  13.221  1.00  0.00     0.018 A 
HETATM    4  C   UNL     1     -46.016 -53.215  13.410  1.00  0.00     0.089 A 
HETATM    5  N   UNL     1     -44.813 -53.745  13.721  1.00  0.00    -0.352 N 
ATOM      6  HN  UNL     1     -44.723 -54.751  13.866  1.00  0.00     0.166 HD
HETATM    7  C   UNL     1     -43.723 -52.943  13.841  1.00  0.00     0.111 A 
ENDROOT
BRANCH   1   8
HETATM    8  C   UNL     1     -42.715 -50.578  13.600  1.00  0.00     0.166 C 
BRANCH   8   9
HETATM    9  N   UNL     1     -42.335 -50.199  12.253  1.00  0.00    -0.339 N 
HETATM   10  C   UNL     1     -42.568 -48.925  11.819  1.00  0.00     0.316 C 
HETATM   11  N   UNL     1     -42.214 -48.735  10.511  1.00  0.00    -0.335 N 
HETATM   12  O   UNL     1     -43.007 -48.029  12.528  1.00  0.00    -0.247 OA
HETATM   13  H   UNL     1     -42.216 -49.546   9.911  1.00  0.00     0.164 HD
HETATM   14  H   UNL     1     -42.133 -50.928  11.586  1.00  0.00     0.164 HD
BRANCH  11  15
HETATM   15  C   UNL     1     -42.458 -47.432   9.883  1.00  0.00     0.241 C 
BRANCH  15  16
HETATM   16  C   UNL     1     -43.464 -47.424   8.722  1.00  0.00     0.403 C 
HETATM   17  F   UNL     1     -43.078 -48.238   7.712  1.00  0.00    -0.169 F 
HETATM   18  F   UNL     1     -43.559 -46.174   8.202  1.00  0.00    -0.169 F 
HETATM   19  F   UNL     1     -44.702 -47.793   9.112  1.00  0.00    -0.169 F 
ENDBRANCH  15  16
ENDBRANCH  11  15
ENDBRANCH   8   9
ENDBRANCH   1   8
BRANCH   7  20
HETATM   20  N   UNL     1     -42.541 -53.589  14.116  1.00  0.00    -0.363 N 
HETATM   21  C   UNL     1     -42.106 -53.735  15.519  1.00  0.00     0.150 C 
HETATM   22  C   UNL     1     -40.687 -53.181  15.726  1.00  0.00     0.187 C 
HETATM   23  O   UNL     1     -39.752 -53.726  14.781  1.00  0.00    -0.388 OA
HETATM   24  C   UNL     1     -40.171 -53.407  13.450  1.00  0.00     0.187 C 
HETATM   25  C   UNL     1     -41.546 -54.011  13.130  1.00  0.00     0.150 C 
ENDBRANCH   7  20
TORSDOF 5
ENDMDL
MODEL 7
REMARK VINA RESULT:      -5.9      4.049      6.444
REMARK  5 active torsions:
REMARK  status: ('A' for Active; 'I' for Inactive)
REMARK    1  A    between atoms: C_2  and  C_5 
REMARK    2  A    between atoms: C_5  and  N_6 
REMARK       I    between atoms: N_6  and  C_7 
REMARK       I    between atoms: C_7  and  N_9 
REMARK    3  A    between atoms: N_9  and  C_10 
REMARK    4  A    between atoms: C_10  and  C_11 
REMARK    5  A    between atoms: C_17  and  N_18 
ROOT
HETATM    1  C   UNL     1     -40.598 -50.846  12.480  1.00  0.00     0.004 A 
HETATM    2  C   UNL     1     -41.311 -51.923  11.908  1.00  0.00     0.014 A 
HETATM    3  C   UNL     1     -41.806 -52.942  12.701  1.00  0.00     0.018 A 
HETATM    4  C   UNL     1     -41.597 -52.842  14.055  1.00  0.00     0.089 A 
HETATM    5  N   UNL     1     -40.950 -51.810  14.638  1.00  0.00    -0.352 N 
ATOM      6  HN  UNL     1     -40.842 -51.786  15.652  1.00  0.00     0.166 HD
HETATM    7  C   UNL     1     -40.443 -50.804  13.879  1.00  0.00     0.111 A 
ENDROOT
BRANCH   1   8
HETATM    8  C   UNL     1     -39.964 -49.880  11.516  1.00  0.00     0.166 C 
BRANCH   8   9
HETATM    9  N   UNL     1     -40.834 -49.520  10.413  1.00  0.00    -0.339 N 
HETATM   10  C   UNL     1     -41.582 -48.380  10.487  1.00  0.00     0.316 C 
HETATM   11  N   UNL     1     -42.398 -48.206   9.403  1.00  0.00    -0.335 N 
HETATM   12  O   UNL     1     -41.508 -47.570  11.403  1.00  0.00    -0.247 OA
HETATM   13  H   UNL     1     -42.678 -49.034   8.900  1.00  0.00     0.164 HD
HETATM   14  H   UNL     1     -41.058 -50.223   9.726  1.00  0.00     0.164 HD
BRANCH  11  15
HETATM   15  C   UNL     1     -43.305 -47.054   9.364  1.00  0.00     0.241 C 
BRANCH  15  16
HETATM   16  C   UNL     1     -44.774 -47.368   9.039  1.00  0.00     0.403 C 
HETATM   17  F   UNL     1     -44.893 -48.172   7.957  1.00  0.00    -0.169 F 
HETATM   18  F   UNL     1     -45.438 -46.221   8.749  1.00  0.00    -0.169 F 
HETATM   19  F   UNL     1     -45.415 -47.954  10.072  1.00  0.00    -0.169 F 
ENDBRANCH  15  16
ENDBRANCH  11  15
ENDBRANCH   8   9
ENDBRANCH   1   8
BRANCH   7  20
HETATM   20  N   UNL     1     -39.766 -49.826  14.569  1.00  0.00    -0.363 N 
HETATM   21  C   UNL     1     -40.458 -48.567  14.906  1.00  0.00     0.150 C 
HETATM   22  C   UNL     1     -39.677 -47.344  14.400  1.00  0.00     0.187 C 
HETATM   23  O   UNL     1     -38.304 -47.369  14.824  1.00  0.00    -0.388 OA
HETATM   24  C   UNL     1     -37.667 -48.550  14.325  1.00  0.00     0.187 C 
HETATM   25  C   UNL     1     -38.333 -49.823  14.865  1.00  0.00     0.150 C 
ENDBRANCH   7  20
TORSDOF 5
ENDMDL
MODEL 8
REMARK VINA RESULT:      -5.8      4.641      7.880
REMARK  5 active torsions:
REMARK  status: ('A' for Active; 'I' for Inactive)
REMARK    1  A    between atoms: C_2  and  C_5 
REMARK    2  A    between atoms: C_5  and  N_6 
REMARK       I    between atoms: N_6  and  C_7 
REMARK       I    between atoms: C_7  and  N_9 
REMARK    3  A    between atoms: N_9  and  C_10 
REMARK    4  A    between atoms: C_10  and  C_11 
REMARK    5  A    between atoms: C_17  and  N_18 
ROOT
HETATM    1  C   UNL     1     -42.292 -53.959  13.491  1.00  0.00     0.004 A 
HETATM    2  C   UNL     1     -43.474 -53.942  12.716  1.00  0.00     0.014 A 
HETATM    3  C   UNL     1     -44.704 -54.174  13.302  1.00  0.00     0.018 A 
HETATM    4  C   UNL     1     -44.723 -54.391  14.658  1.00  0.00     0.089 A 
HETATM    5  N   UNL     1     -43.618 -54.380  15.434  1.00  0.00    -0.352 N 
ATOM      6  HN  UNL     1     -43.701 -54.531  16.439  1.00  0.00     0.166 HD
HETATM    7  C   UNL     1     -42.396 -54.168  14.880  1.00  0.00     0.111 A 
ENDROOT
BRANCH   1   8
HETATM    8  C   UNL     1     -40.996 -53.858  12.731  1.00  0.00     0.166 C 
BRANCH   8   9
HETATM    9  N   UNL     1     -41.013 -52.832  11.707  1.00  0.00    -0.339 N 
HETATM   10  C   UNL     1     -40.707 -51.543  12.037  1.00  0.00     0.316 C 
HETATM   11  N   UNL     1     -40.825 -50.679  10.983  1.00  0.00    -0.335 N 
HETATM   12  O   UNL     1     -40.325 -51.192  13.147  1.00  0.00    -0.247 OA
HETATM   13  H   UNL     1     -41.465 -50.938  10.246  1.00  0.00     0.164 HD
HETATM   14  H   UNL     1     -41.477 -53.030  10.834  1.00  0.00     0.164 HD
BRANCH  11  15
HETATM   15  C   UNL     1     -40.585 -49.248  11.195  1.00  0.00     0.241 C 
BRANCH  15  16
HETATM   16  C   UNL     1     -41.766 -48.316  10.885  1.00  0.00     0.403 C 
HETATM   17  F   UNL     1     -42.899 -48.706  11.516  1.00  0.00    -0.169 F 
HETATM   18  F   UNL     1     -42.034 -48.335   9.555  1.00  0.00    -0.169 F 
HETATM   19  F   UNL     1     -41.514 -47.035  11.227  1.00  0.00    -0.169 F 
ENDBRANCH  15  16
ENDBRANCH  11  15
ENDBRANCH   8   9
ENDBRANCH   1   8
BRANCH   7  20
HETATM   20  N   UNL     1     -41.334 -54.221  15.751  1.00  0.00    -0.363 N 
HETATM   21  C   UNL     1     -40.739 -52.963  16.243  1.00  0.00     0.150 C 
HETATM   22  C   UNL     1     -39.225 -52.918  15.981  1.00  0.00     0.187 C 
HETATM   23  O   UNL     1     -38.558 -54.092  16.471  1.00  0.00    -0.388 OA
HETATM   24  C   UNL     1     -39.094 -55.254  15.828  1.00  0.00     0.187 C 
HETATM   25  C   UNL     1     -40.590 -55.425  16.123  1.00  0.00     0.150 C 
ENDBRANCH   7  20
TORSDOF 5
ENDMDL
MODEL 9
REMARK VINA RESULT:      -5.7      4.381      6.037
REMARK  5 active torsions:
REMARK  status: ('A' for Active; 'I' for Inactive)
REMARK    1  A    between atoms: C_2  and  C_5 
REMARK    2  A    between atoms: C_5  and  N_6 
REMARK       I    between atoms: N_6  and  C_7 
REMARK       I    between atoms: C_7  and  N_9 
REMARK    3  A    between atoms: N_9  and  C_10 
REMARK    4  A    between atoms: C_10  and  C_11 
REMARK    5  A    between atoms: C_17  and  N_18 
ROOT
HETATM    1  C   UNL     1     -40.052 -49.845  12.827  1.00  0.00     0.004 A 
HETATM    2  C   UNL     1     -39.072 -50.790  13.203  1.00  0.00     0.014 A 
HETATM    3  C   UNL     1     -37.870 -50.866  12.524  1.00  0.00     0.018 A 
HETATM    4  C   UNL     1     -37.668 -49.974  11.500  1.00  0.00     0.089 A 
HETATM    5  N   UNL     1     -38.569 -49.035  11.137  1.00  0.00    -0.352 N 
ATOM      6  HN  UNL     1     -38.352 -48.390  10.378  1.00  0.00     0.166 HD
HETATM    7  C   UNL     1     -39.763 -48.949  11.779  1.00  0.00     0.111 A 
ENDROOT
BRANCH   1   8
HETATM    8  C   UNL     1     -41.384 -49.953  13.521  1.00  0.00     0.166 C 
BRANCH   8   9
HETATM    9  N   UNL     1     -42.353 -50.737  12.779  1.00  0.00    -0.339 N 
HETATM   10  C   UNL     1     -42.678 -51.991  13.209  1.00  0.00     0.316 C 
HETATM   11  N   UNL     1     -43.555 -52.629  12.376  1.00  0.00    -0.335 N 
HETATM   12  O   UNL     1     -42.267 -52.486  14.251  1.00  0.00    -0.247 OA
HETATM   13  H   UNL     1     -43.561 -52.344  11.408  1.00  0.00     0.164 HD
HETATM   14  H   UNL     1     -42.586 -50.451  11.841  1.00  0.00     0.164 HD
BRANCH  11  15
HETATM   15  C   UNL     1     -43.956 -54.009  12.674  1.00  0.00     0.241 C 
BRANCH  15  16
HETATM   16  C   UNL     1     -45.218 -54.169  13.535  1.00  0.00     0.403 C 
HETATM   17  F   UNL     1     -44.965 -53.962  14.849  1.00  0.00    -0.169 F 
HETATM   18  F   UNL     1     -45.696 -55.434  13.424  1.00  0.00    -0.169 F 
HETATM   19  F   UNL     1     -46.207 -53.330  13.160  1.00  0.00    -0.169 F 
ENDBRANCH  15  16
ENDBRANCH  11  15
ENDBRANCH   8   9
ENDBRANCH   1   8
BRANCH   7  20
HETATM   20  N   UNL     1     -40.623 -47.989  11.302  1.00  0.00    -0.363 N 
HETATM   21  C   UNL     1     -40.608 -46.641  11.903  1.00  0.00     0.150 C 
HETATM   22  C   UNL     1     -42.008 -46.224  12.381  1.00  0.00     0.187 C 
HETATM   23  O   UNL     1     -42.997 -46.375  11.350  1.00  0.00    -0.388 OA
HETATM   24  C   UNL     1     -43.051 -47.744  10.932  1.00  0.00     0.187 C 
HETATM   25  C   UNL     1     -41.711 -48.210  10.348  1.00  0.00     0.150 C 
ENDBRANCH   7  20
TORSDOF 5
ENDMDL
