MODEL 1
REMARK VINA RESULT:      -6.2      0.000      0.000
REMARK  4 active torsions:
REMARK  status: ('A' for Active; 'I' for Inactive)
REMARK    1  A    between atoms: C_2  and  C_5 
REMARK    2  A    between atoms: N_9  and  C_10 
REMARK    3  A    between atoms: C_10  and  C_11 
REMARK       I    between atoms: C_11  and  N_13 
REMARK    4  A    between atoms: N_13  and  C_14 
ROOT
HETATM    1  C   UNL     1     -45.227 -51.624  14.117  1.00  0.00     0.115 A 
HETATM    2  C   UNL     1     -44.672 -50.838  15.058  1.00  0.00     0.023 A 
HETATM    3  C   UNL     1     -43.251 -50.631  15.115  1.00  0.00     0.018 A 
HETATM    4  C   UNL     1     -42.463 -51.168  14.177  1.00  0.00     0.095 A 
HETATM    5  N   UNL     1     -42.984 -51.980  13.184  1.00  0.00    -0.315 N 
HETATM    6  C   UNL     1     -44.343 -52.315  13.134  1.00  0.00     0.263 A 
HETATM    7  O   UNL     1     -44.802 -53.102  12.311  1.00  0.00    -0.267 OA
ENDROOT
BRANCH   5   8
HETATM    8  C   UNL     1     -42.109 -52.453  12.104  1.00  0.00     0.234 C 
BRANCH   8   9
HETATM    9  C   UNL     1     -40.593 -52.400  12.366  1.00  0.00     0.236 C 
HETATM   10  O   UNL     1     -39.975 -53.347  12.845  1.00  0.00    -0.272 OA
HETATM   11  N   UNL     1     -40.007 -51.187  12.054  1.00  0.00    -0.355 N 
HETATM   12  H   UNL     1     -40.629 -50.415  11.849  1.00  0.00     0.162 HD
BRANCH  11  13
HETATM   13  C   UNL     1     -38.612 -50.841  12.346  1.00  0.00     0.084 C 
HETATM   14  C   UNL     1     -38.446 -50.596  13.856  1.00  0.00     0.025 C 
HETATM   15  C   UNL     1     -39.169 -49.324  14.308  1.00  0.00     0.002 C 
HETATM   16  C   UNL     1     -38.716 -48.102  13.515  1.00  0.00     0.000 C 
HETATM   17  C   UNL     1     -38.808 -48.327  12.008  1.00  0.00     0.002 C 
HETATM   18  C   UNL     1     -38.098 -49.610  11.583  1.00  0.00     0.025 C 
ENDBRANCH  11  13
ENDBRANCH   8   9
ENDBRANCH   5   8
BRANCH   1  19
HETATM   19  C   UNL     1     -46.699 -51.775  13.981  1.00  0.00     0.422 C 
HETATM   20  F   UNL     1     -47.194 -53.031  14.071  1.00  0.00    -0.166 F 
HETATM   21  F   UNL     1     -47.118 -51.295  12.777  1.00  0.00    -0.166 F 
HETATM   22  F   UNL     1     -47.358 -51.034  14.916  1.00  0.00    -0.166 F 
ENDBRANCH   1  19
TORSDOF 4
ENDMDL
MODEL 2
REMARK VINA RESULT:      -6.2      2.066      2.429
REMARK  4 active torsions:
REMARK  status: ('A' for Active; 'I' for Inactive)
REMARK    1  A    between atoms: C_2  and  C_5 
REMARK    2  A    between atoms: N_9  and  C_10 
REMARK    3  A    between atoms: C_10  and  C_11 
REMARK       I    between atoms: C_11  and  N_13 
REMARK    4  A    between atoms: N_13  and  C_14 
ROOT
HETATM    1  C   UNL     1     -45.185 -51.916  14.623  1.00  0.00     0.115 A 
HETATM    2  C   UNL     1     -44.583 -51.527  15.762  1.00  0.00     0.023 A 
HETATM    3  C   UNL     1     -43.154 -51.582  15.907  1.00  0.00     0.018 A 
HETATM    4  C   UNL     1     -42.395 -51.954  14.871  1.00  0.00     0.095 A 
HETATM    5  N   UNL     1     -42.964 -52.358  13.675  1.00  0.00    -0.315 N 
HETATM    6  C   UNL     1     -44.351 -52.437  13.502  1.00  0.00     0.263 A 
HETATM    7  O   UNL     1     -44.868 -52.875  12.477  1.00  0.00    -0.267 OA
ENDROOT
BRANCH   5   8
HETATM    8  C   UNL     1     -42.100 -52.645  12.524  1.00  0.00     0.234 C 
BRANCH   8   9
HETATM    9  C   UNL     1     -41.152 -51.521  12.069  1.00  0.00     0.236 C 
HETATM   10  O   UNL     1     -39.930 -51.641  12.094  1.00  0.00    -0.272 OA
HETATM   11  N   UNL     1     -41.796 -50.362  11.675  1.00  0.00    -0.355 N 
HETATM   12  H   UNL     1     -42.787 -50.297  11.873  1.00  0.00     0.162 HD
BRANCH  11  13
HETATM   13  C   UNL     1     -41.115 -49.108  11.338  1.00  0.00     0.084 C 
HETATM   14  C   UNL     1     -40.857 -48.300  12.622  1.00  0.00     0.025 C 
HETATM   15  C   UNL     1     -42.159 -47.775  13.234  1.00  0.00     0.002 C 
HETATM   16  C   UNL     1     -42.964 -46.950  12.234  1.00  0.00     0.000 C 
HETATM   17  C   UNL     1     -43.190 -47.696  10.922  1.00  0.00     0.002 C 
HETATM   18  C   UNL     1     -41.882 -48.226  10.340  1.00  0.00     0.025 C 
ENDBRANCH  11  13
ENDBRANCH   8   9
ENDBRANCH   5   8
BRANCH   1  19
HETATM   19  C   UNL     1     -46.650 -51.778  14.417  1.00  0.00     0.422 C 
HETATM   20  F   UNL     1     -47.053 -51.177  13.274  1.00  0.00    -0.166 F 
HETATM   21  F   UNL     1     -47.209 -51.061  15.431  1.00  0.00    -0.166 F 
HETATM   22  F   UNL     1     -47.268 -52.993  14.450  1.00  0.00    -0.166 F 
ENDBRANCH   1  19
TORSDOF 4
ENDMDL
MODEL 3
REMARK VINA RESULT:      -6.1      1.779      2.344
REMARK  4 active torsions:
REMARK  status: ('A' for Active; 'I' for Inactive)
REMARK    1  A    between atoms: C_2  and  C_5 
REMARK    2  A    between atoms: N_9  and  C_10 
REMARK    3  A    between atoms: C_10  and  C_11 
REMARK       I    between atoms: C_11  and  N_13 
REMARK    4  A    between atoms: N_13  and  C_14 
ROOT
HETATM    1  C   UNL     1     -45.361 -52.700  14.467  1.00  0.00     0.115 A 
HETATM    2  C   UNL     1     -45.484 -54.040  14.502  1.00  0.00     0.023 A 
HETATM    3  C   UNL     1     -44.343 -54.899  14.338  1.00  0.00     0.018 A 
HETATM    4  C   UNL     1     -43.121 -54.366  14.222  1.00  0.00     0.095 A 
HETATM    5  N   UNL     1     -42.940 -52.994  14.187  1.00  0.00    -0.315 N 
HETATM    6  C   UNL     1     -44.017 -52.100  14.227  1.00  0.00     0.263 A 
HETATM    7  O   UNL     1     -43.876 -50.885  14.110  1.00  0.00    -0.267 OA
ENDROOT
BRANCH   5   8
HETATM    8  C   UNL     1     -41.578 -52.445  14.178  1.00  0.00     0.234 C 
BRANCH   8   9
HETATM    9  C   UNL     1     -41.000 -52.043  12.809  1.00  0.00     0.236 C 
HETATM   10  O   UNL     1     -40.478 -52.857  12.052  1.00  0.00    -0.272 OA
HETATM   11  N   UNL     1     -41.084 -50.691  12.534  1.00  0.00    -0.355 N 
HETATM   12  H   UNL     1     -41.353 -50.082  13.298  1.00  0.00     0.162 HD
BRANCH  11  13
HETATM   13  C   UNL     1     -40.479 -50.043  11.366  1.00  0.00     0.084 C 
HETATM   14  C   UNL     1     -39.015 -49.683  11.677  1.00  0.00     0.025 C 
HETATM   15  C   UNL     1     -38.912 -48.569  12.721  1.00  0.00     0.002 C 
HETATM   16  C   UNL     1     -39.691 -47.325  12.302  1.00  0.00     0.000 C 
HETATM   17  C   UNL     1     -41.135 -47.650  11.927  1.00  0.00     0.002 C 
HETATM   18  C   UNL     1     -41.214 -48.776  10.900  1.00  0.00     0.025 C 
ENDBRANCH  11  13
ENDBRANCH   8   9
ENDBRANCH   5   8
BRANCH   1  19
HETATM   19  C   UNL     1     -46.510 -51.795  14.728  1.00  0.00     0.422 C 
HETATM   20  F   UNL     1     -46.322 -50.820  15.648  1.00  0.00    -0.166 F 
HETATM   21  F   UNL     1     -47.590 -52.506  15.155  1.00  0.00    -0.166 F 
HETATM   22  F   UNL     1     -46.915 -51.171  13.586  1.00  0.00    -0.166 F 
ENDBRANCH   1  19
TORSDOF 4
ENDMDL
MODEL 4
REMARK VINA RESULT:      -5.9      1.390      2.014
REMARK  4 active torsions:
REMARK  status: ('A' for Active; 'I' for Inactive)
REMARK    1  A    between atoms: C_2  and  C_5 
REMARK    2  A    between atoms: N_9  and  C_10 
REMARK    3  A    between atoms: C_10  and  C_11 
REMARK       I    between atoms: C_11  and  N_13 
REMARK    4  A    between atoms: N_13  and  C_14 
ROOT
HETATM    1  C   UNL     1     -45.324 -52.472  14.431  1.00  0.00     0.115 A 
HETATM    2  C   UNL     1     -45.242 -53.777  14.748  1.00  0.00     0.023 A 
HETATM    3  C   UNL     1     -44.231 -54.623  14.173  1.00  0.00     0.018 A 
HETATM    4  C   UNL     1     -43.306 -54.096  13.363  1.00  0.00     0.095 A 
HETATM    5  N   UNL     1     -43.342 -52.758  13.010  1.00  0.00    -0.315 N 
HETATM    6  C   UNL     1     -44.363 -51.902  13.442  1.00  0.00     0.263 A 
HETATM    7  O   UNL     1     -44.455 -50.736  13.067  1.00  0.00    -0.267 OA
ENDROOT
BRANCH   5   8
HETATM    8  C   UNL     1     -42.245 -52.190  12.217  1.00  0.00     0.234 C 
BRANCH   8   9
HETATM    9  C   UNL     1     -40.816 -52.443  12.728  1.00  0.00     0.236 C 
HETATM   10  O   UNL     1     -40.277 -53.544  12.657  1.00  0.00    -0.272 OA
HETATM   11  N   UNL     1     -40.218 -51.338  13.307  1.00  0.00    -0.355 N 
HETATM   12  H   UNL     1     -40.811 -50.538  13.490  1.00  0.00     0.162 HD
BRANCH  11  13
HETATM   13  C   UNL     1     -38.922 -51.360  13.994  1.00  0.00     0.084 C 
HETATM   14  C   UNL     1     -38.932 -50.343  15.149  1.00  0.00     0.025 C 
HETATM   15  C   UNL     1     -38.972 -48.901  14.636  1.00  0.00     0.002 C 
HETATM   16  C   UNL     1     -37.823 -48.609  13.676  1.00  0.00     0.000 C 
HETATM   17  C   UNL     1     -37.741 -49.633  12.547  1.00  0.00     0.002 C 
HETATM   18  C   UNL     1     -37.723 -51.063  13.080  1.00  0.00     0.025 C 
ENDBRANCH  11  13
ENDBRANCH   8   9
ENDBRANCH   5   8
BRANCH   1  19
HETATM   19  C   UNL     1     -46.299 -51.560  15.084  1.00  0.00     0.422 C 
HETATM   20  F   UNL     1     -45.788 -50.545  15.817  1.00  0.00    -0.166 F 
HETATM   21  F   UNL     1     -47.111 -52.256  15.927  1.00  0.00    -0.166 F 
HETATM   22  F   UNL     1     -47.131 -50.991  14.166  1.00  0.00    -0.166 F 
ENDBRANCH   1  19
TORSDOF 4
ENDMDL
MODEL 5
REMARK VINA RESULT:      -5.8      4.943      7.275
REMARK  4 active torsions:
REMARK  status: ('A' for Active; 'I' for Inactive)
REMARK    1  A    between atoms: C_2  and  C_5 
REMARK    2  A    between atoms: N_9  and  C_10 
REMARK    3  A    between atoms: C_10  and  C_11 
REMARK       I    between atoms: C_11  and  N_13 
REMARK    4  A    between atoms: N_13  and  C_14 
ROOT
HETATM    1  C   UNL     1     -41.146 -45.684  10.806  1.00  0.00     0.115 A 
HETATM    2  C   UNL     1     -42.357 -45.494  10.252  1.00  0.00     0.023 A 
HETATM    3  C   UNL     1     -43.202 -46.604   9.903  1.00  0.00     0.018 A 
HETATM    4  C   UNL     1     -42.816 -47.850  10.197  1.00  0.00     0.095 A 
HETATM    5  N   UNL     1     -41.581 -48.100  10.773  1.00  0.00    -0.315 N 
HETATM    6  C   UNL     1     -40.663 -47.076  11.035  1.00  0.00     0.263 A 
HETATM    7  O   UNL     1     -39.533 -47.293  11.465  1.00  0.00    -0.267 OA
ENDROOT
BRANCH   5   8
HETATM    8  C   UNL     1     -41.242 -49.466  11.190  1.00  0.00     0.234 C 
BRANCH   8   9
HETATM    9  C   UNL     1     -41.719 -49.904  12.586  1.00  0.00     0.236 C 
HETATM   10  O   UNL     1     -41.126 -49.585  13.613  1.00  0.00    -0.272 OA
HETATM   11  N   UNL     1     -42.838 -50.716  12.573  1.00  0.00    -0.355 N 
HETATM   12  H   UNL     1     -43.134 -51.076  11.674  1.00  0.00     0.162 HD
BRANCH  11  13
HETATM   13  C   UNL     1     -43.397 -51.378  13.757  1.00  0.00     0.084 C 
HETATM   14  C   UNL     1     -43.340 -52.904  13.569  1.00  0.00     0.025 C 
HETATM   15  C   UNL     1     -44.305 -53.380  12.480  1.00  0.00     0.002 C 
HETATM   16  C   UNL     1     -45.736 -52.927  12.753  1.00  0.00     0.000 C 
HETATM   17  C   UNL     1     -45.827 -51.424  13.004  1.00  0.00     0.002 C 
HETATM   18  C   UNL     1     -44.843 -50.969  14.079  1.00  0.00     0.025 C 
ENDBRANCH  11  13
ENDBRANCH   8   9
ENDBRANCH   5   8
BRANCH   1  19
HETATM   19  C   UNL     1     -40.299 -44.551  11.261  1.00  0.00     0.422 C 
HETATM   20  F   UNL     1     -39.050 -44.478  10.744  1.00  0.00    -0.166 F 
HETATM   21  F   UNL     1     -40.141 -44.587  12.613  1.00  0.00    -0.166 F 
HETATM   22  F   UNL     1     -40.895 -43.354  10.997  1.00  0.00    -0.166 F 
ENDBRANCH   1  19
TORSDOF 4
ENDMDL
MODEL 6
REMARK VINA RESULT:      -5.7      3.564      6.396
REMARK  4 active torsions:
REMARK  status: ('A' for Active; 'I' for Inactive)
REMARK    1  A    between atoms: C_2  and  C_5 
REMARK    2  A    between atoms: N_9  and  C_10 
REMARK    3  A    between atoms: C_10  and  C_11 
REMARK       I    between atoms: C_11  and  N_13 
REMARK    4  A    between atoms: N_13  and  C_14 
ROOT
HETATM    1  C   UNL     1     -39.703 -48.797  12.856  1.00  0.00     0.115 A 
HETATM    2  C   UNL     1     -38.654 -49.214  13.588  1.00  0.00     0.023 A 
HETATM    3  C   UNL     1     -38.445 -50.609  13.866  1.00  0.00     0.018 A 
HETATM    4  C   UNL     1     -39.261 -51.523  13.331  1.00  0.00     0.095 A 
HETATM    5  N   UNL     1     -40.352 -51.147  12.565  1.00  0.00    -0.315 N 
HETATM    6  C   UNL     1     -40.680 -49.803  12.348  1.00  0.00     0.263 A 
HETATM    7  O   UNL     1     -41.692 -49.456  11.743  1.00  0.00    -0.267 OA
ENDROOT
BRANCH   5   8
HETATM    8  C   UNL     1     -41.155 -52.178  11.896  1.00  0.00     0.234 C 
BRANCH   8   9
HETATM    9  C   UNL     1     -42.001 -53.092  12.800  1.00  0.00     0.236 C 
HETATM   10  O   UNL     1     -41.690 -54.257  13.032  1.00  0.00    -0.272 OA
HETATM   11  N   UNL     1     -43.154 -52.500  13.284  1.00  0.00    -0.355 N 
HETATM   12  H   UNL     1     -43.416 -51.609  12.881  1.00  0.00     0.162 HD
BRANCH  11  13
HETATM   13  C   UNL     1     -44.192 -53.205  14.043  1.00  0.00     0.084 C 
HETATM   14  C   UNL     1     -45.372 -53.542  13.114  1.00  0.00     0.025 C 
HETATM   15  C   UNL     1     -46.126 -52.284  12.675  1.00  0.00     0.002 C 
HETATM   16  C   UNL     1     -46.603 -51.463  13.869  1.00  0.00     0.000 C 
HETATM   17  C   UNL     1     -45.471 -51.158  14.847  1.00  0.00     0.002 C 
HETATM   18  C   UNL     1     -44.721 -52.423  15.256  1.00  0.00     0.025 C 
ENDBRANCH  11  13
ENDBRANCH   8   9
ENDBRANCH   5   8
BRANCH   1  19
HETATM   19  C   UNL     1     -39.885 -47.372  12.477  1.00  0.00     0.422 C 
HETATM   20  F   UNL     1     -41.099 -46.825  12.724  1.00  0.00    -0.166 F 
HETATM   21  F   UNL     1     -39.665 -47.201  11.144  1.00  0.00    -0.166 F 
HETATM   22  F   UNL     1     -38.971 -46.576  13.101  1.00  0.00    -0.166 F 
ENDBRANCH   1  19
TORSDOF 4
ENDMDL
MODEL 7
REMARK VINA RESULT:      -5.6      1.670      2.270
REMARK  4 active torsions:
REMARK  status: ('A' for Active; 'I' for Inactive)
REMARK    1  A    between atoms: C_2  and  C_5 
REMARK    2  A    between atoms: N_9  and  C_10 
REMARK    3  A    between atoms: C_10  and  C_11 
REMARK       I    between atoms: C_11  and  N_13 
REMARK    4  A    between atoms: N_13  and  C_14 
ROOT
HETATM    1  C   UNL     1     -45.151 -53.274  14.220  1.00  0.00     0.115 A 
HETATM    2  C   UNL     1     -45.357 -51.999  13.841  1.00  0.00     0.023 A 
HETATM    3  C   UNL     1     -44.292 -51.200  13.300  1.00  0.00     0.018 A 
HETATM    4  C   UNL     1     -43.088 -51.746  13.098  1.00  0.00     0.095 A 
HETATM    5  N   UNL     1     -42.826 -53.055  13.465  1.00  0.00    -0.315 N 
HETATM    6  C   UNL     1     -43.783 -53.855  14.101  1.00  0.00     0.263 A 
HETATM    7  O   UNL     1     -43.537 -54.987  14.508  1.00  0.00    -0.267 OA
ENDROOT
BRANCH   5   8
HETATM    8  C   UNL     1     -41.532 -53.657  13.120  1.00  0.00     0.234 C 
BRANCH   8   9
HETATM    9  C   UNL     1     -40.293 -53.102  13.845  1.00  0.00     0.236 C 
HETATM   10  O   UNL     1     -39.867 -53.592  14.888  1.00  0.00    -0.272 OA
HETATM   11  N   UNL     1     -39.737 -51.988  13.244  1.00  0.00    -0.355 N 
HETATM   12  H   UNL     1     -40.272 -51.549  12.505  1.00  0.00     0.162 HD
BRANCH  11  13
HETATM   13  C   UNL     1     -38.645 -51.194  13.817  1.00  0.00     0.084 C 
HETATM   14  C   UNL     1     -39.141 -49.766  14.107  1.00  0.00     0.025 C 
HETATM   15  C   UNL     1     -39.427 -48.992  12.817  1.00  0.00     0.002 C 
HETATM   16  C   UNL     1     -38.212 -48.959  11.895  1.00  0.00     0.000 C 
HETATM   17  C   UNL     1     -37.651 -50.354  11.631  1.00  0.00     0.002 C 
HETATM   18  C   UNL     1     -37.393 -51.115  12.929  1.00  0.00     0.025 C 
ENDBRANCH  11  13
ENDBRANCH   8   9
ENDBRANCH   5   8
BRANCH   1  19
HETATM   19  C   UNL     1     -46.258 -54.146  14.692  1.00  0.00     0.422 C 
HETATM   20  F   UNL     1     -47.514 -53.655  14.575  1.00  0.00    -0.166 F 
HETATM   21  F   UNL     1     -46.098 -54.447  16.011  1.00  0.00    -0.166 F 
HETATM   22  F   UNL     1     -46.251 -55.344  14.043  1.00  0.00    -0.166 F 
ENDBRANCH   1  19
TORSDOF 4
ENDMDL
MODEL 8
REMARK VINA RESULT:      -5.5     15.407     16.817
REMARK  4 active torsions:
REMARK  status: ('A' for Active; 'I' for Inactive)
REMARK    1  A    between atoms: C_2  and  C_5 
REMARK    2  A    between atoms: N_9  and  C_10 
REMARK    3  A    between atoms: C_10  and  C_11 
REMARK       I    between atoms: C_11  and  N_13 
REMARK    4  A    between atoms: N_13  and  C_14 
ROOT
HETATM    1  C   UNL     1     -51.449 -54.182  -1.868  1.00  0.00     0.115 A 
HETATM    2  C   UNL     1     -51.089 -54.855  -2.977  1.00  0.00     0.023 A 
HETATM    3  C   UNL     1     -49.765 -54.738  -3.525  1.00  0.00     0.018 A 
HETATM    4  C   UNL     1     -48.844 -54.006  -2.887  1.00  0.00     0.095 A 
HETATM    5  N   UNL     1     -49.162 -53.299  -1.740  1.00  0.00    -0.315 N 
HETATM    6  C   UNL     1     -50.460 -53.277  -1.215  1.00  0.00     0.263 A 
HETATM    7  O   UNL     1     -50.773 -52.586  -0.249  1.00  0.00    -0.267 OA
ENDROOT
BRANCH   5   8
HETATM    8  C   UNL     1     -48.099 -52.605  -1.002  1.00  0.00     0.234 C 
BRANCH   8   9
HETATM    9  C   UNL     1     -48.014 -51.078  -1.180  1.00  0.00     0.236 C 
HETATM   10  O   UNL     1     -47.266 -50.552  -1.999  1.00  0.00    -0.272 OA
HETATM   11  N   UNL     1     -48.817 -50.362  -0.311  1.00  0.00    -0.355 N 
HETATM   12  H   UNL     1     -49.244 -50.876   0.450  1.00  0.00     0.162 HD
BRANCH  11  13
HETATM   13  C   UNL     1     -48.806 -48.901  -0.185  1.00  0.00     0.084 C 
HETATM   14  C   UNL     1     -49.034 -48.508   1.286  1.00  0.00     0.025 C 
HETATM   15  C   UNL     1     -50.457 -48.835   1.747  1.00  0.00     0.002 C 
HETATM   16  C   UNL     1     -51.507 -48.186   0.850  1.00  0.00     0.000 C 
HETATM   17  C   UNL     1     -51.280 -48.503  -0.625  1.00  0.00     0.002 C 
HETATM   18  C   UNL     1     -49.850 -48.188  -1.058  1.00  0.00     0.025 C 
ENDBRANCH  11  13
ENDBRANCH   8   9
ENDBRANCH   5   8
BRANCH   1  19
HETATM   19  C   UNL     1     -52.779 -54.361  -1.232  1.00  0.00     0.422 C 
HETATM   20  F   UNL     1     -52.790 -54.639   0.092  1.00  0.00    -0.166 F 
HETATM   21  F   UNL     1     -53.461 -55.378  -1.831  1.00  0.00    -0.166 F 
HETATM   22  F   UNL     1     -53.558 -53.255  -1.400  1.00  0.00    -0.166 F 
ENDBRANCH   1  19
TORSDOF 4
ENDMDL
MODEL 9
REMARK VINA RESULT:      -5.5      2.929      3.847
REMARK  4 active torsions:
REMARK  status: ('A' for Active; 'I' for Inactive)
REMARK    1  A    between atoms: C_2  and  C_5 
REMARK    2  A    between atoms: N_9  and  C_10 
REMARK    3  A    between atoms: C_10  and  C_11 
REMARK       I    between atoms: C_11  and  N_13 
REMARK    4  A    between atoms: N_13  and  C_14 
ROOT
HETATM    1  C   UNL     1     -43.441 -54.171  13.934  1.00  0.00     0.115 A 
HETATM    2  C   UNL     1     -42.527 -54.755  14.729  1.00  0.00     0.023 A 
HETATM    3  C   UNL     1     -41.124 -54.478  14.584  1.00  0.00     0.018 A 
HETATM    4  C   UNL     1     -40.716 -53.568  13.692  1.00  0.00     0.095 A 
HETATM    5  N   UNL     1     -41.617 -52.933  12.854  1.00  0.00    -0.315 N 
HETATM    6  C   UNL     1     -42.983 -53.238  12.864  1.00  0.00     0.263 A 
HETATM    7  O   UNL     1     -43.779 -52.746  12.068  1.00  0.00    -0.267 OA
ENDROOT
BRANCH   5   8
HETATM    8  C   UNL     1     -41.149 -51.857  11.973  1.00  0.00     0.234 C 
BRANCH   8   9
HETATM    9  C   UNL     1     -41.351 -50.414  12.471  1.00  0.00     0.236 C 
HETATM   10  O   UNL     1     -40.755 -49.966  13.446  1.00  0.00    -0.272 OA
HETATM   11  N   UNL     1     -42.287 -49.693  11.752  1.00  0.00    -0.355 N 
HETATM   12  H   UNL     1     -42.859 -50.210  11.094  1.00  0.00     0.162 HD
BRANCH  11  13
HETATM   13  C   UNL     1     -42.760 -48.354  12.115  1.00  0.00     0.084 C 
HETATM   14  C   UNL     1     -43.785 -47.868  11.074  1.00  0.00     0.025 C 
HETATM   15  C   UNL     1     -43.131 -47.594   9.718  1.00  0.00     0.002 C 
HETATM   16  C   UNL     1     -41.976 -46.603   9.835  1.00  0.00     0.000 C 
HETATM   17  C   UNL     1     -40.966 -47.019  10.902  1.00  0.00     0.002 C 
HETATM   18  C   UNL     1     -41.643 -47.306  12.240  1.00  0.00     0.025 C 
ENDBRANCH  11  13
ENDBRANCH   8   9
ENDBRANCH   5   8
BRANCH   1  19
HETATM   19  C   UNL     1     -44.901 -54.370  14.129  1.00  0.00     0.422 C 
HETATM   20  F   UNL     1     -45.692 -53.284  13.967  1.00  0.00    -0.166 F 
HETATM   21  F   UNL     1     -45.155 -54.831  15.385  1.00  0.00    -0.166 F 
HETATM   22  F   UNL     1     -45.384 -55.327  13.287  1.00  0.00    -0.166 F 
ENDBRANCH   1  19
TORSDOF 4
ENDMDL
