MODEL 1
REMARK VINA RESULT:      -6.8      0.000      0.000
REMARK  3 active torsions:
REMARK  status: ('A' for Active; 'I' for Inactive)
REMARK    1  A    between atoms: C_8  and  N_9 
REMARK       I    between atoms: N_9  and  C_10 
REMARK       I    between atoms: C_10  and  N_12 
REMARK    2  A    between atoms: N_12  and  C_13 
REMARK    3  A    between atoms: C_13  and  C_14 
ROOT
HETATM    1  N   UNL     1     -40.906 -48.638  10.733  1.00  0.00    -0.140 N 
HETATM    2  C   UNL     1     -40.852 -49.812  11.424  1.00  0.00     0.334 C 
HETATM    3  O   UNL     1     -39.754 -50.227  11.795  1.00  0.00    -0.247 OA
HETATM    4  N   UNL     1     -42.026 -50.462  11.689  1.00  0.00    -0.342 N 
HETATM    5  H   UNL     1     -40.005 -48.203  10.600  1.00  0.00     0.189 HD
HETATM    6  H   UNL     1     -42.838 -50.155  11.158  1.00  0.00     0.164 HD
ENDROOT
BRANCH   1   7
HETATM    7  C   UNL     1     -42.051 -48.023  10.291  1.00  0.00     0.703 A 
HETATM    8  N   UNL     1     -42.824 -47.180  11.046  1.00  0.00    -0.127 N 
HETATM    9  C   UNL     1     -42.625 -46.726  12.401  1.00  0.00     0.197 C 
HETATM   10  N   UNL     1     -43.907 -46.760  10.359  1.00  0.00    -0.280 N 
HETATM   11  C   UNL     1     -43.723 -47.372   9.189  1.00  0.00     0.215 A 
ATOM     12  HN  UNL     1     -44.662 -46.142  10.656  1.00  0.00     0.188 HD
HETATM   13  N   UNL     1     -42.597 -48.134   9.098  1.00  0.00    -0.185 N 
ATOM     14  HN  UNL     1     -42.257 -48.665   8.295  1.00  0.00     0.185 HD
ENDBRANCH   1   7
BRANCH   4  15
HETATM   15  C   UNL     1     -42.014 -51.738  12.366  1.00  0.00     0.133 C 
BRANCH  15  16
HETATM   16  C   UNL     1     -43.229 -52.102  13.284  1.00  0.00    -0.028 C 
HETATM   17  C   UNL     1     -42.582 -52.817  14.499  1.00  0.00     0.016 C 
HETATM   18  C   UNL     1     -44.205 -53.050  12.533  1.00  0.00     0.011 C 
HETATM   19  C   UNL     1     -45.206 -53.821  13.402  1.00  0.00     0.001 C 
HETATM   20  C   UNL     1     -46.449 -53.073  13.878  1.00  0.00     0.000 C 
HETATM   21  C   UNL     1     -46.382 -51.557  13.997  1.00  0.00     0.000 C 
HETATM   22  C   UNL     1     -45.144 -51.008  14.695  1.00  0.00     0.001 C 
HETATM   23  C   UNL     1     -43.945 -50.816  13.758  1.00  0.00     0.011 C 
ENDBRANCH  15  16
ENDBRANCH   4  15
TORSDOF 3
ENDMDL
MODEL 2
REMARK VINA RESULT:      -6.6      1.810      2.559
REMARK  3 active torsions:
REMARK  status: ('A' for Active; 'I' for Inactive)
REMARK    1  A    between atoms: C_8  and  N_9 
REMARK       I    between atoms: N_9  and  C_10 
REMARK       I    between atoms: C_10  and  N_12 
REMARK    2  A    between atoms: N_12  and  C_13 
REMARK    3  A    between atoms: C_13  and  C_14 
ROOT
HETATM    1  N   UNL     1     -43.623 -47.047  10.655  1.00  0.00    -0.140 N 
HETATM    2  C   UNL     1     -43.119 -47.771  11.694  1.00  0.00     0.334 C 
HETATM    3  O   UNL     1     -43.082 -47.251  12.810  1.00  0.00    -0.247 OA
HETATM    4  N   UNL     1     -42.698 -49.048  11.450  1.00  0.00    -0.342 N 
HETATM    5  H   UNL     1     -43.938 -46.125  10.917  1.00  0.00     0.189 HD
HETATM    6  H   UNL     1     -42.569 -49.299  10.472  1.00  0.00     0.164 HD
ENDROOT
BRANCH   1   7
HETATM    7  C   UNL     1     -43.772 -47.497   9.366  1.00  0.00     0.703 A 
HETATM    8  N   UNL     1     -44.978 -47.699   8.747  1.00  0.00    -0.127 N 
HETATM    9  C   UNL     1     -46.312 -47.473   9.248  1.00  0.00     0.197 C 
HETATM   10  N   UNL     1     -44.813 -48.182   7.498  1.00  0.00    -0.280 N 
HETATM   11  C   UNL     1     -43.483 -48.234   7.415  1.00  0.00     0.215 A 
ATOM     12  HN  UNL     1     -45.516 -48.438   6.805  1.00  0.00     0.188 HD
HETATM   13  N   UNL     1     -42.811 -47.808   8.522  1.00  0.00    -0.185 N 
ATOM     14  HN  UNL     1     -41.803 -47.745   8.663  1.00  0.00     0.185 HD
ENDBRANCH   1   7
BRANCH   4  15
HETATM   15  C   UNL     1     -42.102 -49.833  12.507  1.00  0.00     0.133 C 
BRANCH  15  16
HETATM   16  C   UNL     1     -42.927 -51.023  13.102  1.00  0.00    -0.028 C 
HETATM   17  C   UNL     1     -42.422 -51.137  14.564  1.00  0.00     0.016 C 
HETATM   18  C   UNL     1     -42.638 -52.327  12.308  1.00  0.00     0.011 C 
HETATM   19  C   UNL     1     -43.027 -53.641  12.997  1.00  0.00     0.001 C 
HETATM   20  C   UNL     1     -44.496 -54.053  12.952  1.00  0.00     0.000 C 
HETATM   21  C   UNL     1     -45.549 -52.966  12.788  1.00  0.00     0.000 C 
HETATM   22  C   UNL     1     -45.376 -51.744  13.683  1.00  0.00     0.001 C 
HETATM   23  C   UNL     1     -44.436 -50.683  13.099  1.00  0.00     0.011 C 
ENDBRANCH  15  16
ENDBRANCH   4  15
TORSDOF 3
ENDMDL
MODEL 3
REMARK VINA RESULT:      -6.5      1.644      2.383
REMARK  3 active torsions:
REMARK  status: ('A' for Active; 'I' for Inactive)
REMARK    1  A    between atoms: C_8  and  N_9 
REMARK       I    between atoms: N_9  and  C_10 
REMARK       I    between atoms: C_10  and  N_12 
REMARK    2  A    between atoms: N_12  and  C_13 
REMARK    3  A    between atoms: C_13  and  C_14 
ROOT
HETATM    1  N   UNL     1     -40.293 -50.883  11.621  1.00  0.00    -0.140 N 
HETATM    2  C   UNL     1     -41.028 -51.985  11.942  1.00  0.00     0.334 C 
HETATM    3  O   UNL     1     -40.438 -53.044  12.156  1.00  0.00    -0.247 OA
HETATM    4  N   UNL     1     -42.386 -51.855  12.032  1.00  0.00    -0.342 N 
HETATM    5  H   UNL     1     -39.298 -51.050  11.600  1.00  0.00     0.189 HD
HETATM    6  H   UNL     1     -42.783 -51.009  11.628  1.00  0.00     0.164 HD
ENDROOT
BRANCH   1   7
HETATM    7  C   UNL     1     -40.796 -49.625  11.397  1.00  0.00     0.703 A 
HETATM    8  N   UNL     1     -41.001 -48.684  12.373  1.00  0.00    -0.127 N 
HETATM    9  C   UNL     1     -40.725 -48.759  13.787  1.00  0.00     0.197 C 
HETATM   10  N   UNL     1     -41.541 -47.558  11.862  1.00  0.00    -0.280 N 
HETATM   11  C   UNL     1     -41.624 -47.875  10.569  1.00  0.00     0.215 A 
ATOM     12  HN  UNL     1     -41.813 -46.697  12.337  1.00  0.00     0.188 HD
HETATM   13  N   UNL     1     -41.164 -49.115  10.240  1.00  0.00    -0.185 N 
ATOM     14  HN  UNL     1     -41.116 -49.547   9.317  1.00  0.00     0.185 HD
ENDBRANCH   1   7
BRANCH   4  15
HETATM   15  C   UNL     1     -43.211 -53.008  12.311  1.00  0.00     0.133 C 
BRANCH  15  16
HETATM   16  C   UNL     1     -44.296 -52.889  13.434  1.00  0.00    -0.028 C 
HETATM   17  C   UNL     1     -45.020 -54.259  13.404  1.00  0.00     0.016 C 
HETATM   18  C   UNL     1     -45.279 -51.730  13.111  1.00  0.00     0.011 C 
HETATM   19  C   UNL     1     -46.613 -51.741  13.867  1.00  0.00     0.001 C 
HETATM   20  C   UNL     1     -46.616 -51.217  15.300  1.00  0.00     0.000 C 
HETATM   21  C   UNL     1     -45.318 -51.267  16.094  1.00  0.00     0.000 C 
HETATM   22  C   UNL     1     -44.556 -52.586  16.022  1.00  0.00     0.001 C 
HETATM   23  C   UNL     1     -43.620 -52.689  14.811  1.00  0.00     0.011 C 
ENDBRANCH  15  16
ENDBRANCH   4  15
TORSDOF 3
ENDMDL
MODEL 4
REMARK VINA RESULT:      -6.0      2.503      3.841
REMARK  3 active torsions:
REMARK  status: ('A' for Active; 'I' for Inactive)
REMARK    1  A    between atoms: C_8  and  N_9 
REMARK       I    between atoms: N_9  and  C_10 
REMARK       I    between atoms: C_10  and  N_12 
REMARK    2  A    between atoms: N_12  and  C_13 
REMARK    3  A    between atoms: C_13  and  C_14 
ROOT
HETATM    1  N   UNL     1     -43.564 -46.671  10.563  1.00  0.00    -0.140 N 
HETATM    2  C   UNL     1     -43.346 -47.346  11.727  1.00  0.00     0.334 C 
HETATM    3  O   UNL     1     -43.249 -46.703  12.772  1.00  0.00    -0.247 OA
HETATM    4  N   UNL     1     -43.265 -48.710  11.679  1.00  0.00    -0.342 N 
HETATM    5  H   UNL     1     -43.639 -45.672  10.681  1.00  0.00     0.189 HD
HETATM    6  H   UNL     1     -43.139 -49.120  10.756  1.00  0.00     0.164 HD
ENDROOT
BRANCH   1   7
HETATM    7  C   UNL     1     -43.737 -47.244   9.327  1.00  0.00     0.703 A 
HETATM    8  N   UNL     1     -44.954 -47.539   8.769  1.00  0.00    -0.127 N 
HETATM    9  C   UNL     1     -46.279 -47.305   9.290  1.00  0.00     0.197 C 
HETATM   10  N   UNL     1     -44.810 -48.132   7.566  1.00  0.00    -0.280 N 
HETATM   11  C   UNL     1     -43.483 -48.153   7.445  1.00  0.00     0.215 A 
ATOM     12  HN  UNL     1     -45.525 -48.472   6.923  1.00  0.00     0.188 HD
HETATM   13  N   UNL     1     -42.792 -47.605   8.485  1.00  0.00    -0.185 N 
ATOM     14  HN  UNL     1     -41.782 -47.500   8.587  1.00  0.00     0.185 HD
ENDBRANCH   1   7
BRANCH   4  15
HETATM   15  C   UNL     1     -42.976 -49.465  12.877  1.00  0.00     0.133 C 
BRANCH  15  16
HETATM   16  C   UNL     1     -41.765 -50.457  12.853  1.00  0.00    -0.028 C 
HETATM   17  C   UNL     1     -40.943 -50.019  11.613  1.00  0.00     0.016 C 
HETATM   18  C   UNL     1     -42.270 -51.918  12.700  1.00  0.00     0.011 C 
HETATM   19  C   UNL     1     -41.230 -52.952  12.250  1.00  0.00     0.001 C 
HETATM   20  C   UNL     1     -40.272 -53.495  13.306  1.00  0.00     0.000 C 
HETATM   21  C   UNL     1     -39.976 -52.636  14.527  1.00  0.00     0.000 C 
HETATM   22  C   UNL     1     -39.661 -51.173  14.240  1.00  0.00     0.001 C 
HETATM   23  C   UNL     1     -40.908 -50.286  14.131  1.00  0.00     0.011 C 
ENDBRANCH  15  16
ENDBRANCH   4  15
TORSDOF 3
ENDMDL
MODEL 5
REMARK VINA RESULT:      -5.7      4.023      7.189
REMARK  3 active torsions:
REMARK  status: ('A' for Active; 'I' for Inactive)
REMARK    1  A    between atoms: C_8  and  N_9 
REMARK       I    between atoms: N_9  and  C_10 
REMARK       I    between atoms: C_10  and  N_12 
REMARK    2  A    between atoms: N_12  and  C_13 
REMARK    3  A    between atoms: C_13  and  C_14 
ROOT
HETATM    1  N   UNL     1     -40.785 -49.441  10.836  1.00  0.00    -0.140 N 
HETATM    2  C   UNL     1     -41.211 -48.181  10.541  1.00  0.00     0.334 C 
HETATM    3  O   UNL     1     -42.355 -48.031  10.111  1.00  0.00    -0.247 OA
HETATM    4  N   UNL     1     -40.351 -47.140  10.755  1.00  0.00    -0.342 N 
HETATM    5  H   UNL     1     -41.483 -50.153  10.678  1.00  0.00     0.189 HD
HETATM    6  H   UNL     1     -39.373 -47.387  10.899  1.00  0.00     0.164 HD
ENDROOT
BRANCH   1   7
HETATM    7  C   UNL     1     -39.559 -49.768  11.361  1.00  0.00     0.703 A 
HETATM    8  N   UNL     1     -39.291 -49.880  12.701  1.00  0.00    -0.127 N 
HETATM    9  C   UNL     1     -40.180 -49.727  13.827  1.00  0.00     0.197 C 
HETATM   10  N   UNL     1     -37.992 -50.173  12.918  1.00  0.00    -0.280 N 
HETATM   11  C   UNL     1     -37.531 -50.241  11.669  1.00  0.00     0.215 A 
ATOM     12  HN  UNL     1     -37.497 -50.306  13.800  1.00  0.00     0.188 HD
HETATM   13  N   UNL     1     -38.455 -50.021  10.691  1.00  0.00    -0.185 N 
ATOM     14  HN  UNL     1     -38.322 -50.046   9.680  1.00  0.00     0.185 HD
ENDBRANCH   1   7
BRANCH   4  15
HETATM   15  C   UNL     1     -40.735 -45.793  10.401  1.00  0.00     0.133 C 
BRANCH  15  16
HETATM   16  C   UNL     1     -40.917 -44.747  11.552  1.00  0.00    -0.028 C 
HETATM   17  C   UNL     1     -40.000 -45.272  12.686  1.00  0.00     0.016 C 
HETATM   18  C   UNL     1     -42.401 -44.703  12.008  1.00  0.00     0.011 C 
HETATM   19  C   UNL     1     -42.673 -44.057  13.373  1.00  0.00     0.001 C 
HETATM   20  C   UNL     1     -42.707 -42.532  13.437  1.00  0.00     0.000 C 
HETATM   21  C   UNL     1     -41.934 -41.744  12.389  1.00  0.00     0.000 C 
HETATM   22  C   UNL     1     -40.512 -42.224  12.124  1.00  0.00     0.001 C 
HETATM   23  C   UNL     1     -40.427 -43.354  11.091  1.00  0.00     0.011 C 
ENDBRANCH  15  16
ENDBRANCH   4  15
TORSDOF 3
ENDMDL
MODEL 6
REMARK VINA RESULT:      -5.7      2.000      2.284
REMARK  3 active torsions:
REMARK  status: ('A' for Active; 'I' for Inactive)
REMARK    1  A    between atoms: C_8  and  N_9 
REMARK       I    between atoms: N_9  and  C_10 
REMARK       I    between atoms: C_10  and  N_12 
REMARK    2  A    between atoms: N_12  and  C_13 
REMARK    3  A    between atoms: C_13  and  C_14 
ROOT
HETATM    1  N   UNL     1     -39.177 -49.998  12.524  1.00  0.00    -0.140 N 
HETATM    2  C   UNL     1     -39.916 -51.143  12.521  1.00  0.00     0.334 C 
HETATM    3  O   UNL     1     -39.369 -52.198  12.839  1.00  0.00    -0.247 OA
HETATM    4  N   UNL     1     -41.238 -51.059  12.182  1.00  0.00    -0.342 N 
HETATM    5  H   UNL     1     -38.219 -50.134  12.811  1.00  0.00     0.189 HD
HETATM    6  H   UNL     1     -41.532 -50.195  11.731  1.00  0.00     0.164 HD
ENDROOT
BRANCH   1   7
HETATM    7  C   UNL     1     -39.649 -48.741  12.238  1.00  0.00     0.703 A 
HETATM    8  N   UNL     1     -40.059 -47.830  13.177  1.00  0.00    -0.127 N 
HETATM    9  C   UNL     1     -40.066 -47.941  14.615  1.00  0.00     0.197 C 
HETATM   10  N   UNL     1     -40.509 -46.698  12.597  1.00  0.00    -0.280 N 
HETATM   11  C   UNL     1     -40.331 -46.980  11.307  1.00  0.00     0.215 A 
ATOM     12  HN  UNL     1     -40.885 -45.854  13.031  1.00  0.00     0.188 HD
HETATM   13  N   UNL     1     -39.792 -48.204  11.044  1.00  0.00    -0.185 N 
ATOM     14  HN  UNL     1     -39.555 -48.609  10.138  1.00  0.00     0.185 HD
ENDBRANCH   1   7
BRANCH   4  15
HETATM   15  C   UNL     1     -42.047 -52.254  12.106  1.00  0.00     0.133 C 
BRANCH  15  16
HETATM   16  C   UNL     1     -43.246 -52.402  13.102  1.00  0.00    -0.028 C 
HETATM   17  C   UNL     1     -42.618 -53.075  14.350  1.00  0.00     0.016 C 
HETATM   18  C   UNL     1     -44.353 -53.299  12.482  1.00  0.00     0.011 C 
HETATM   19  C   UNL     1     -45.384 -53.877  13.458  1.00  0.00     0.001 C 
HETATM   20  C   UNL     1     -46.516 -52.960  13.914  1.00  0.00     0.000 C 
HETATM   21  C   UNL     1     -46.284 -51.456  13.891  1.00  0.00     0.000 C 
HETATM   22  C   UNL     1     -44.961 -50.987  14.485  1.00  0.00     0.001 C 
HETATM   23  C   UNL     1     -43.798 -51.009  13.486  1.00  0.00     0.011 C 
ENDBRANCH  15  16
ENDBRANCH   4  15
TORSDOF 3
ENDMDL
MODEL 7
REMARK VINA RESULT:      -5.7      1.666      2.127
REMARK  3 active torsions:
REMARK  status: ('A' for Active; 'I' for Inactive)
REMARK    1  A    between atoms: C_8  and  N_9 
REMARK       I    between atoms: N_9  and  C_10 
REMARK       I    between atoms: C_10  and  N_12 
REMARK    2  A    between atoms: N_12  and  C_13 
REMARK    3  A    between atoms: C_13  and  C_14 
ROOT
HETATM    1  N   UNL     1     -43.076 -47.552  12.316  1.00  0.00    -0.140 N 
HETATM    2  C   UNL     1     -42.907 -48.728  12.983  1.00  0.00     0.334 C 
HETATM    3  O   UNL     1     -42.845 -48.704  14.212  1.00  0.00    -0.247 OA
HETATM    4  N   UNL     1     -42.835 -49.883  12.254  1.00  0.00    -0.342 N 
HETATM    5  H   UNL     1     -43.148 -46.748  12.922  1.00  0.00     0.189 HD
HETATM    6  H   UNL     1     -42.678 -49.773  11.254  1.00  0.00     0.164 HD
ENDROOT
BRANCH   1   7
HETATM    7  C   UNL     1     -43.207 -47.417  10.956  1.00  0.00     0.703 A 
HETATM    8  N   UNL     1     -42.287 -46.809  10.141  1.00  0.00    -0.127 N 
HETATM    9  C   UNL     1     -41.013 -46.223  10.480  1.00  0.00     0.197 C 
HETATM   10  N   UNL     1     -42.705 -46.790   8.859  1.00  0.00    -0.280 N 
HETATM   11  C   UNL     1     -43.877 -47.417   8.959  1.00  0.00     0.215 A 
ATOM     12  HN  UNL     1     -42.247 -46.401   8.034  1.00  0.00     0.188 HD
HETATM   13  N   UNL     1     -44.212 -47.833  10.214  1.00  0.00    -0.185 N 
ATOM     14  HN  UNL     1     -45.044 -48.344  10.509  1.00  0.00     0.185 HD
ENDBRANCH   1   7
BRANCH   4  15
HETATM   15  C   UNL     1     -42.597 -51.146  12.912  1.00  0.00     0.133 C 
BRANCH  15  16
HETATM   16  C   UNL     1     -43.833 -51.960  13.424  1.00  0.00    -0.028 C 
HETATM   17  C   UNL     1     -43.861 -53.214  12.512  1.00  0.00     0.016 C 
HETATM   18  C   UNL     1     -45.131 -51.124  13.263  1.00  0.00     0.011 C 
HETATM   19  C   UNL     1     -46.452 -51.902  13.321  1.00  0.00     0.001 C 
HETATM   20  C   UNL     1     -46.984 -52.286  14.699  1.00  0.00     0.000 C 
HETATM   21  C   UNL     1     -45.992 -52.428  15.846  1.00  0.00     0.000 C 
HETATM   22  C   UNL     1     -44.735 -53.228  15.530  1.00  0.00     0.001 C 
HETATM   23  C   UNL     1     -43.618 -52.392  14.894  1.00  0.00     0.011 C 
ENDBRANCH  15  16
ENDBRANCH   4  15
TORSDOF 3
ENDMDL
MODEL 8
REMARK VINA RESULT:      -5.5      2.695      6.057
REMARK  3 active torsions:
REMARK  status: ('A' for Active; 'I' for Inactive)
REMARK    1  A    between atoms: C_8  and  N_9 
REMARK       I    between atoms: N_9  and  C_10 
REMARK       I    between atoms: C_10  and  N_12 
REMARK    2  A    between atoms: N_12  and  C_13 
REMARK    3  A    between atoms: C_13  and  C_14 
ROOT
HETATM    1  N   UNL     1     -43.329 -53.186  11.965  1.00  0.00    -0.140 N 
HETATM    2  C   UNL     1     -42.286 -52.337  12.187  1.00  0.00     0.334 C 
HETATM    3  O   UNL     1     -41.209 -52.571  11.639  1.00  0.00    -0.247 OA
HETATM    4  N   UNL     1     -42.494 -51.253  12.995  1.00  0.00    -0.342 N 
HETATM    5  H   UNL     1     -43.107 -53.946  11.338  1.00  0.00     0.189 HD
HETATM    6  H   UNL     1     -43.338 -51.273  13.564  1.00  0.00     0.164 HD
ENDROOT
BRANCH   1   7
HETATM    7  C   UNL     1     -44.599 -53.040  12.466  1.00  0.00     0.703 A 
HETATM    8  N   UNL     1     -45.129 -53.799  13.477  1.00  0.00    -0.127 N 
HETATM    9  C   UNL     1     -44.516 -54.855  14.245  1.00  0.00     0.197 C 
HETATM   10  N   UNL     1     -46.409 -53.454  13.728  1.00  0.00    -0.280 N 
HETATM   11  C   UNL     1     -46.589 -52.469  12.848  1.00  0.00     0.215 A 
ATOM     12  HN  UNL     1     -47.062 -53.843  14.408  1.00  0.00     0.188 HD
HETATM   13  N   UNL     1     -45.507 -52.172  12.073  1.00  0.00    -0.185 N 
ATOM     14  HN  UNL     1     -45.422 -51.448  11.359  1.00  0.00     0.185 HD
ENDBRANCH   1   7
BRANCH   4  15
HETATM   15  C   UNL     1     -41.403 -50.359  13.308  1.00  0.00     0.133 C 
BRANCH  15  16
HETATM   16  C   UNL     1     -41.504 -48.871  12.829  1.00  0.00    -0.028 C 
HETATM   17  C   UNL     1     -42.560 -48.243  13.775  1.00  0.00     0.016 C 
HETATM   18  C   UNL     1     -41.974 -48.813  11.350  1.00  0.00     0.011 C 
HETATM   19  C   UNL     1     -42.516 -47.463  10.862  1.00  0.00     0.001 C 
HETATM   20  C   UNL     1     -41.499 -46.391  10.482  1.00  0.00     0.000 C 
HETATM   21  C   UNL     1     -40.116 -46.445  11.116  1.00  0.00     0.000 C 
HETATM   22  C   UNL     1     -40.093 -46.675  12.622  1.00  0.00     0.001 C 
HETATM   23  C   UNL     1     -40.146 -48.155  13.019  1.00  0.00     0.011 C 
ENDBRANCH  15  16
ENDBRANCH   4  15
TORSDOF 3
ENDMDL
MODEL 9
REMARK VINA RESULT:      -5.5      4.161      6.089
REMARK  3 active torsions:
REMARK  status: ('A' for Active; 'I' for Inactive)
REMARK    1  A    between atoms: C_8  and  N_9 
REMARK       I    between atoms: N_9  and  C_10 
REMARK       I    between atoms: C_10  and  N_12 
REMARK    2  A    between atoms: N_12  and  C_13 
REMARK    3  A    between atoms: C_13  and  C_14 
ROOT
HETATM    1  N   UNL     1     -44.246 -54.602  13.401  1.00  0.00    -0.140 N 
HETATM    2  C   UNL     1     -45.373 -54.288  14.101  1.00  0.00     0.334 C 
HETATM    3  O   UNL     1     -46.160 -55.191  14.386  1.00  0.00    -0.247 OA
HETATM    4  N   UNL     1     -45.564 -52.986  14.471  1.00  0.00    -0.342 N 
HETATM    5  H   UNL     1     -44.161 -55.585  13.188  1.00  0.00     0.189 HD
HETATM    6  H   UNL     1     -44.978 -52.296  14.005  1.00  0.00     0.164 HD
ENDROOT
BRANCH   1   7
HETATM    7  C   UNL     1     -43.255 -53.721  13.046  1.00  0.00     0.703 A 
HETATM    8  N   UNL     1     -42.132 -53.471  13.791  1.00  0.00    -0.127 N 
HETATM    9  C   UNL     1     -41.716 -54.058  15.042  1.00  0.00     0.197 C 
HETATM   10  N   UNL     1     -41.358 -52.531  13.211  1.00  0.00    -0.280 N 
HETATM   11  C   UNL     1     -42.059 -52.263  12.109  1.00  0.00     0.215 A 
ATOM     12  HN  UNL     1     -40.475 -52.132  13.530  1.00  0.00     0.188 HD
HETATM   13  N   UNL     1     -43.210 -52.978  11.960  1.00  0.00    -0.185 N 
ATOM     14  HN  UNL     1     -43.878 -52.946  11.189  1.00  0.00     0.185 HD
ENDBRANCH   1   7
BRANCH   4  15
HETATM   15  C   UNL     1     -46.771 -52.595  15.162  1.00  0.00     0.133 C 
BRANCH  15  16
HETATM   16  C   UNL     1     -46.633 -51.848  16.531  1.00  0.00    -0.028 C 
HETATM   17  C   UNL     1     -46.387 -52.984  17.557  1.00  0.00     0.016 C 
HETATM   18  C   UNL     1     -47.941 -51.075  16.856  1.00  0.00     0.011 C 
HETATM   19  C   UNL     1     -48.129 -50.642  18.316  1.00  0.00     0.001 C 
HETATM   20  C   UNL     1     -47.387 -49.393  18.782  1.00  0.00     0.000 C 
HETATM   21  C   UNL     1     -46.114 -48.989  18.051  1.00  0.00     0.000 C 
HETATM   22  C   UNL     1     -45.123 -50.117  17.789  1.00  0.00     0.001 C 
HETATM   23  C   UNL     1     -45.410 -50.900  16.502  1.00  0.00     0.011 C 
ENDBRANCH  15  16
ENDBRANCH   4  15
TORSDOF 3
ENDMDL
