MODEL 1
REMARK VINA RESULT:      -5.9      0.000      0.000
REMARK  6 active torsions:
REMARK  status: ('A' for Active; 'I' for Inactive)
REMARK    1  A    between atoms: C_5  and  C_6 
REMARK    2  A    between atoms: C_6  and  C_7 
REMARK       I    between atoms: C_7  and  N_9 
REMARK    3  A    between atoms: N_9  and  C_10 
REMARK    4  A    between atoms: C_10  and  C_12 
REMARK    5  A    between atoms: C_10  and  C_14 
REMARK    6  A    between atoms: C_12  and  O_13 
ROOT
HETATM    1  C   UNL     1     -40.957 -50.634  12.218  1.00  0.00     0.224 C 
HETATM    2  O   UNL     1     -40.418 -50.566  13.320  1.00  0.00    -0.273 OA
HETATM    3  N   UNL     1     -41.963 -51.535  11.927  1.00  0.00    -0.349 N 
HETATM    4  H   UNL     1     -42.467 -51.371  11.065  1.00  0.00     0.163 HD
ENDROOT
BRANCH   3   5
HETATM    5  C   UNL     1     -42.579 -52.546  12.847  1.00  0.00     0.054 C 
HETATM    6  C   UNL     1     -43.719 -53.314  12.158  1.00  0.00     0.041 C 
BRANCH   5   7
HETATM    7  C   UNL     1     -41.473 -53.571  13.280  1.00  0.00     0.195 C 
BRANCH   7   8
HETATM    8  O   UNL     1     -40.691 -54.102  12.209  1.00  0.00    -0.398 OA
HETATM    9  H   UNL     1     -40.847 -53.547  11.424  1.00  0.00     0.209 HD
ENDBRANCH   7   8
ENDBRANCH   5   7
BRANCH   5  10
HETATM   10  C   UNL     1     -43.066 -51.765  14.148  1.00  0.00     0.015 C 
HETATM   11  C   UNL     1     -43.345 -52.619  15.405  1.00  0.00     0.007 C 
HETATM   12  C   UNL     1     -44.760 -53.191  15.514  1.00  0.00     0.000 C 
HETATM   13  C   UNL     1     -45.824 -52.118  15.347  1.00  0.00     0.000 C 
HETATM   14  C   UNL     1     -45.631 -51.325  14.063  1.00  0.00     0.000 C 
HETATM   15  C   UNL     1     -44.223 -50.753  13.941  1.00  0.00     0.007 C 
ENDBRANCH   5  10
ENDBRANCH   3   5
BRANCH   1  16
HETATM   16  C   UNL     1     -40.622 -49.664  11.102  1.00  0.00     0.161 C 
BRANCH  16  17
HETATM   17  C   UNL     1     -41.704 -48.673  10.830  1.00  0.00     0.036 A 
HETATM   18  C   UNL     1     -42.671 -48.143  11.716  1.00  0.00     0.045 A 
HETATM   19  C   UNL     1     -43.495 -47.371  10.931  1.00  0.00     0.111 A 
HETATM   20  N   UNL     1     -43.005 -47.474   9.663  1.00  0.00    -0.308 N 
HETATM   21  C   UNL     1     -43.567 -46.898   8.465  1.00  0.00     0.177 C 
HETATM   22  N   UNL     1     -41.908 -48.246   9.574  1.00  0.00    -0.303 N 
ATOM     23  HN  UNL     1     -41.356 -48.460   8.742  1.00  0.00     0.186 HD
ENDBRANCH  16  17
ENDBRANCH   1  16
TORSDOF 6
ENDMDL
MODEL 2
REMARK VINA RESULT:      -5.8      2.250      3.255
REMARK  6 active torsions:
REMARK  status: ('A' for Active; 'I' for Inactive)
REMARK    1  A    between atoms: C_5  and  C_6 
REMARK    2  A    between atoms: C_6  and  C_7 
REMARK       I    between atoms: C_7  and  N_9 
REMARK    3  A    between atoms: N_9  and  C_10 
REMARK    4  A    between atoms: C_10  and  C_12 
REMARK    5  A    between atoms: C_10  and  C_14 
REMARK    6  A    between atoms: C_12  and  O_13 
ROOT
HETATM    1  C   UNL     1     -43.619 -50.454  13.648  1.00  0.00     0.224 C 
HETATM    2  O   UNL     1     -43.942 -50.114  14.783  1.00  0.00    -0.273 OA
HETATM    3  N   UNL     1     -44.396 -51.280  12.859  1.00  0.00    -0.349 N 
HETATM    4  H   UNL     1     -44.135 -51.331  11.882  1.00  0.00     0.163 HD
ENDROOT
BRANCH   3   5
HETATM    5  C   UNL     1     -45.725 -51.884  13.201  1.00  0.00     0.054 C 
HETATM    6  C   UNL     1     -46.257 -51.354  14.543  1.00  0.00     0.041 C 
BRANCH   5   7
HETATM    7  C   UNL     1     -46.750 -51.511  12.073  1.00  0.00     0.195 C 
BRANCH   7   8
HETATM    8  O   UNL     1     -47.164 -52.601  11.250  1.00  0.00    -0.398 OA
HETATM    9  H   UNL     1     -46.572 -53.353  11.432  1.00  0.00     0.209 HD
ENDBRANCH   7   8
ENDBRANCH   5   7
BRANCH   5  10
HETATM   10  C   UNL     1     -45.539 -53.466  13.199  1.00  0.00     0.015 C 
HETATM   11  C   UNL     1     -45.863 -54.204  14.518  1.00  0.00     0.007 C 
HETATM   12  C   UNL     1     -44.707 -54.313  15.514  1.00  0.00     0.000 C 
HETATM   13  C   UNL     1     -43.452 -54.885  14.872  1.00  0.00     0.000 C 
HETATM   14  C   UNL     1     -43.054 -54.112  13.623  1.00  0.00     0.000 C 
HETATM   15  C   UNL     1     -44.199 -53.994  12.625  1.00  0.00     0.007 C 
ENDBRANCH   5  10
ENDBRANCH   3   5
BRANCH   1  16
HETATM   16  C   UNL     1     -42.369 -49.916  12.976  1.00  0.00     0.161 C 
BRANCH  16  17
HETATM   17  C   UNL     1     -42.616 -48.699  12.148  1.00  0.00     0.036 A 
HETATM   18  C   UNL     1     -42.903 -47.380  12.566  1.00  0.00     0.045 A 
HETATM   19  C   UNL     1     -43.160 -46.683  11.409  1.00  0.00     0.111 A 
HETATM   20  N   UNL     1     -43.022 -47.582  10.394  1.00  0.00    -0.308 N 
HETATM   21  C   UNL     1     -43.258 -47.350   8.989  1.00  0.00     0.177 C 
HETATM   22  N   UNL     1     -42.677 -48.813  10.812  1.00  0.00    -0.303 N 
ATOM     23  HN  UNL     1     -42.502 -49.643  10.244  1.00  0.00     0.186 HD
ENDBRANCH  16  17
ENDBRANCH   1  16
TORSDOF 6
ENDMDL
MODEL 3
REMARK VINA RESULT:      -5.7      1.512      2.065
REMARK  6 active torsions:
REMARK  status: ('A' for Active; 'I' for Inactive)
REMARK    1  A    between atoms: C_5  and  C_6 
REMARK    2  A    between atoms: C_6  and  C_7 
REMARK       I    between atoms: C_7  and  N_9 
REMARK    3  A    between atoms: N_9  and  C_10 
REMARK    4  A    between atoms: C_10  and  C_12 
REMARK    5  A    between atoms: C_10  and  C_14 
REMARK    6  A    between atoms: C_12  and  O_13 
ROOT
HETATM    1  C   UNL     1     -42.410 -49.559  12.433  1.00  0.00     0.224 C 
HETATM    2  O   UNL     1     -41.239 -49.730  12.105  1.00  0.00    -0.273 OA
HETATM    3  N   UNL     1     -43.203 -50.567  12.947  1.00  0.00    -0.349 N 
HETATM    4  H   UNL     1     -44.076 -50.271  13.366  1.00  0.00     0.163 HD
ENDROOT
BRANCH   3   5
HETATM    5  C   UNL     1     -42.814 -51.990  13.211  1.00  0.00     0.054 C 
HETATM    6  C   UNL     1     -42.155 -52.632  11.979  1.00  0.00     0.041 C 
BRANCH   5   7
HETATM    7  C   UNL     1     -41.790 -52.019  14.400  1.00  0.00     0.195 C 
BRANCH   7   8
HETATM    8  O   UNL     1     -40.416 -51.964  14.014  1.00  0.00    -0.398 OA
HETATM    9  H   UNL     1     -40.020 -51.180  14.436  1.00  0.00     0.209 HD
ENDBRANCH   7   8
ENDBRANCH   5   7
BRANCH   5  10
HETATM   10  C   UNL     1     -44.130 -52.761  13.672  1.00  0.00     0.015 C 
HETATM   11  C   UNL     1     -45.317 -52.759  12.682  1.00  0.00     0.007 C 
HETATM   12  C   UNL     1     -46.269 -51.566  12.797  1.00  0.00     0.000 C 
HETATM   13  C   UNL     1     -46.756 -51.359  14.222  1.00  0.00     0.000 C 
HETATM   14  C   UNL     1     -45.600 -51.258  15.206  1.00  0.00     0.000 C 
HETATM   15  C   UNL     1     -44.643 -52.439  15.099  1.00  0.00     0.007 C 
ENDBRANCH   5  10
ENDBRANCH   3   5
BRANCH   1  16
HETATM   16  C   UNL     1     -43.063 -48.191  12.385  1.00  0.00     0.161 C 
BRANCH  16  17
HETATM   17  C   UNL     1     -43.013 -47.554  11.036  1.00  0.00     0.036 A 
HETATM   18  C   UNL     1     -42.904 -46.185  10.701  1.00  0.00     0.045 A 
HETATM   19  C   UNL     1     -43.024 -46.139   9.331  1.00  0.00     0.111 A 
HETATM   20  N   UNL     1     -43.195 -47.430   8.929  1.00  0.00    -0.308 N 
HETATM   21  C   UNL     1     -43.435 -47.897   7.585  1.00  0.00     0.177 C 
HETATM   22  N   UNL     1     -43.177 -48.314   9.942  1.00  0.00    -0.303 N 
ATOM     23  HN  UNL     1     -43.268 -49.329   9.891  1.00  0.00     0.186 HD
ENDBRANCH  16  17
ENDBRANCH   1  16
TORSDOF 6
ENDMDL
MODEL 4
REMARK VINA RESULT:      -5.7      2.494      4.272
REMARK  6 active torsions:
REMARK  status: ('A' for Active; 'I' for Inactive)
REMARK    1  A    between atoms: C_5  and  C_6 
REMARK    2  A    between atoms: C_6  and  C_7 
REMARK       I    between atoms: C_7  and  N_9 
REMARK    3  A    between atoms: N_9  and  C_10 
REMARK    4  A    between atoms: C_10  and  C_12 
REMARK    5  A    between atoms: C_10  and  C_14 
REMARK    6  A    between atoms: C_12  and  O_13 
ROOT
HETATM    1  C   UNL     1     -42.118 -48.964  11.794  1.00  0.00     0.224 C 
HETATM    2  O   UNL     1     -43.145 -49.206  12.422  1.00  0.00    -0.273 OA
HETATM    3  N   UNL     1     -40.986 -49.753  11.868  1.00  0.00    -0.349 N 
HETATM    4  H   UNL     1     -40.279 -49.577  11.166  1.00  0.00     0.163 HD
ENDROOT
BRANCH   3   5
HETATM    5  C   UNL     1     -40.796 -51.004  12.672  1.00  0.00     0.054 C 
HETATM    6  C   UNL     1     -41.424 -50.878  14.069  1.00  0.00     0.041 C 
BRANCH   5   7
HETATM    7  C   UNL     1     -41.487 -52.195  11.918  1.00  0.00     0.195 C 
BRANCH   7   8
HETATM    8  O   UNL     1     -40.591 -53.151  11.351  1.00  0.00    -0.398 OA
HETATM    9  H   UNL     1     -40.485 -52.936  10.407  1.00  0.00     0.209 HD
ENDBRANCH   7   8
ENDBRANCH   5   7
BRANCH   5  10
HETATM   10  C   UNL     1     -39.231 -51.295  12.728  1.00  0.00     0.015 C 
HETATM   11  C   UNL     1     -38.688 -51.914  14.036  1.00  0.00     0.007 C 
HETATM   12  C   UNL     1     -38.295 -50.914  15.126  1.00  0.00     0.000 C 
HETATM   13  C   UNL     1     -37.350 -49.843  14.605  1.00  0.00     0.000 C 
HETATM   14  C   UNL     1     -37.908 -49.148  13.372  1.00  0.00     0.000 C 
HETATM   15  C   UNL     1     -38.305 -50.134  12.281  1.00  0.00     0.007 C 
ENDBRANCH   5  10
ENDBRANCH   3   5
BRANCH   1  16
HETATM   16  C   UNL     1     -42.036 -47.817  10.804  1.00  0.00     0.161 C 
BRANCH  16  17
HETATM   17  C   UNL     1     -43.145 -47.811   9.806  1.00  0.00     0.036 A 
HETATM   18  C   UNL     1     -43.073 -47.790   8.394  1.00  0.00     0.045 A 
HETATM   19  C   UNL     1     -44.375 -47.672   7.969  1.00  0.00     0.111 A 
HETATM   20  N   UNL     1     -45.134 -47.627   9.100  1.00  0.00    -0.308 N 
HETATM   21  C   UNL     1     -46.562 -47.437   9.182  1.00  0.00     0.177 C 
HETATM   22  N   UNL     1     -44.415 -47.725  10.232  1.00  0.00    -0.303 N 
ATOM     23  HN  UNL     1     -44.756 -47.732  11.194  1.00  0.00     0.186 HD
ENDBRANCH  16  17
ENDBRANCH   1  16
TORSDOF 6
ENDMDL
MODEL 5
REMARK VINA RESULT:      -5.7      1.780      3.116
REMARK  6 active torsions:
REMARK  status: ('A' for Active; 'I' for Inactive)
REMARK    1  A    between atoms: C_5  and  C_6 
REMARK    2  A    between atoms: C_6  and  C_7 
REMARK       I    between atoms: C_7  and  N_9 
REMARK    3  A    between atoms: N_9  and  C_10 
REMARK    4  A    between atoms: C_10  and  C_12 
REMARK    5  A    between atoms: C_10  and  C_14 
REMARK    6  A    between atoms: C_12  and  O_13 
ROOT
HETATM    1  C   UNL     1     -42.008 -50.492  12.389  1.00  0.00     0.224 C 
HETATM    2  O   UNL     1     -42.994 -49.837  12.718  1.00  0.00    -0.273 OA
HETATM    3  N   UNL     1     -41.847 -51.824  12.714  1.00  0.00    -0.349 N 
HETATM    4  H   UNL     1     -41.104 -52.311  12.227  1.00  0.00     0.163 HD
ENDROOT
BRANCH   3   5
HETATM    5  C   UNL     1     -42.794 -52.700  13.477  1.00  0.00     0.054 C 
HETATM    6  C   UNL     1     -43.144 -52.094  14.846  1.00  0.00     0.041 C 
BRANCH   5   7
HETATM    7  C   UNL     1     -44.116 -52.855  12.645  1.00  0.00     0.195 C 
BRANCH   7   8
HETATM    8  O   UNL     1     -44.350 -54.163  12.124  1.00  0.00    -0.398 OA
HETATM    9  H   UNL     1     -45.267 -54.192  11.796  1.00  0.00     0.209 HD
ENDBRANCH   7   8
ENDBRANCH   5   7
BRANCH   5  10
HETATM   10  C   UNL     1     -42.115 -54.136  13.600  1.00  0.00     0.015 C 
HETATM   11  C   UNL     1     -42.213 -54.834  14.975  1.00  0.00     0.007 C 
HETATM   12  C   UNL     1     -41.102 -54.492  15.970  1.00  0.00     0.000 C 
HETATM   13  C   UNL     1     -39.718 -54.682  15.368  1.00  0.00     0.000 C 
HETATM   14  C   UNL     1     -39.562 -53.922  14.060  1.00  0.00     0.000 C 
HETATM   15  C   UNL     1     -40.665 -54.252  13.062  1.00  0.00     0.007 C 
ENDBRANCH   5  10
ENDBRANCH   3   5
BRANCH   1  16
HETATM   16  C   UNL     1     -40.917 -49.909  11.511  1.00  0.00     0.161 C 
BRANCH  16  17
HETATM   17  C   UNL     1     -41.252 -48.563  10.959  1.00  0.00     0.036 A 
HETATM   18  C   UNL     1     -40.671 -47.309  11.255  1.00  0.00     0.045 A 
HETATM   19  C   UNL     1     -41.428 -46.390  10.567  1.00  0.00     0.111 A 
HETATM   20  N   UNL     1     -42.390 -47.108   9.921  1.00  0.00    -0.308 N 
HETATM   21  C   UNL     1     -43.472 -46.588   9.121  1.00  0.00     0.177 C 
HETATM   22  N   UNL     1     -42.299 -48.433  10.129  1.00  0.00    -0.303 N 
ATOM     23  HN  UNL     1     -42.889 -49.171   9.744  1.00  0.00     0.186 HD
ENDBRANCH  16  17
ENDBRANCH   1  16
TORSDOF 6
ENDMDL
MODEL 6
REMARK VINA RESULT:      -5.6      3.238      5.697
REMARK  6 active torsions:
REMARK  status: ('A' for Active; 'I' for Inactive)
REMARK    1  A    between atoms: C_5  and  C_6 
REMARK    2  A    between atoms: C_6  and  C_7 
REMARK       I    between atoms: C_7  and  N_9 
REMARK    3  A    between atoms: N_9  and  C_10 
REMARK    4  A    between atoms: C_10  and  C_12 
REMARK    5  A    between atoms: C_10  and  C_14 
REMARK    6  A    between atoms: C_12  and  O_13 
ROOT
HETATM    1  C   UNL     1     -42.600 -53.365  14.643  1.00  0.00     0.224 C 
HETATM    2  O   UNL     1     -42.575 -54.411  13.999  1.00  0.00    -0.273 OA
HETATM    3  N   UNL     1     -41.643 -52.378  14.514  1.00  0.00    -0.349 N 
HETATM    4  H   UNL     1     -41.868 -51.486  14.937  1.00  0.00     0.163 HD
ENDROOT
BRANCH   3   5
HETATM    5  C   UNL     1     -40.454 -52.373  13.601  1.00  0.00     0.054 C 
HETATM    6  C   UNL     1     -39.560 -53.602  13.832  1.00  0.00     0.041 C 
BRANCH   5   7
HETATM    7  C   UNL     1     -40.960 -52.393  12.116  1.00  0.00     0.195 C 
BRANCH   7   8
HETATM    8  O   UNL     1     -40.508 -53.502  11.340  1.00  0.00    -0.398 OA
HETATM    9  H   UNL     1     -40.641 -53.281  10.400  1.00  0.00     0.209 HD
ENDBRANCH   7   8
ENDBRANCH   5   7
BRANCH   5  10
HETATM   10  C   UNL     1     -39.680 -51.001  13.842  1.00  0.00     0.015 C 
HETATM   11  C   UNL     1     -40.061 -49.819  12.922  1.00  0.00     0.007 C 
HETATM   12  C   UNL     1     -39.295 -49.738  11.600  1.00  0.00     0.000 C 
HETATM   13  C   UNL     1     -37.790 -49.794  11.808  1.00  0.00     0.000 C 
HETATM   14  C   UNL     1     -37.377 -51.006  12.629  1.00  0.00     0.000 C 
HETATM   15  C   UNL     1     -38.136 -51.099  13.947  1.00  0.00     0.007 C 
ENDBRANCH   5  10
ENDBRANCH   3   5
BRANCH   1  16
HETATM   16  C   UNL     1     -43.747 -53.028  15.578  1.00  0.00     0.161 C 
BRANCH  16  17
HETATM   17  C   UNL     1     -44.898 -52.368  14.895  1.00  0.00     0.036 A 
HETATM   18  C   UNL     1     -45.980 -51.656  15.461  1.00  0.00     0.045 A 
HETATM   19  C   UNL     1     -46.812 -51.366  14.405  1.00  0.00     0.111 A 
HETATM   20  N   UNL     1     -46.214 -51.899  13.302  1.00  0.00    -0.308 N 
HETATM   21  C   UNL     1     -46.732 -51.918  11.956  1.00  0.00     0.177 C 
HETATM   22  N   UNL     1     -45.041 -52.501  13.568  1.00  0.00    -0.303 N 
ATOM     23  HN  UNL     1     -44.405 -52.955  12.910  1.00  0.00     0.186 HD
ENDBRANCH  16  17
ENDBRANCH   1  16
TORSDOF 6
ENDMDL
MODEL 7
REMARK VINA RESULT:      -5.6      3.003      6.031
REMARK  6 active torsions:
REMARK  status: ('A' for Active; 'I' for Inactive)
REMARK    1  A    between atoms: C_5  and  C_6 
REMARK    2  A    between atoms: C_6  and  C_7 
REMARK       I    between atoms: C_7  and  N_9 
REMARK    3  A    between atoms: N_9  and  C_10 
REMARK    4  A    between atoms: C_10  and  C_12 
REMARK    5  A    between atoms: C_10  and  C_14 
REMARK    6  A    between atoms: C_12  and  O_13 
ROOT
HETATM    1  C   UNL     1     -41.241 -51.860  12.888  1.00  0.00     0.224 C 
HETATM    2  O   UNL     1     -41.872 -50.981  13.469  1.00  0.00    -0.273 OA
HETATM    3  N   UNL     1     -39.977 -51.662  12.368  1.00  0.00    -0.349 N 
HETATM    4  H   UNL     1     -39.477 -52.498  12.093  1.00  0.00     0.163 HD
ENDROOT
BRANCH   3   5
HETATM    5  C   UNL     1     -39.155 -50.409  12.417  1.00  0.00     0.054 C 
HETATM    6  C   UNL     1     -37.704 -50.670  11.982  1.00  0.00     0.041 C 
BRANCH   5   7
HETATM    7  C   UNL     1     -39.789 -49.355  11.442  1.00  0.00     0.195 C 
BRANCH   7   8
HETATM    8  O   UNL     1     -40.309 -49.894  10.226  1.00  0.00    -0.398 OA
HETATM    9  H   UNL     1     -39.569 -50.302   9.742  1.00  0.00     0.209 HD
ENDBRANCH   7   8
ENDBRANCH   5   7
BRANCH   5  10
HETATM   10  C   UNL     1     -39.256 -49.836  13.900  1.00  0.00     0.015 C 
HETATM   11  C   UNL     1     -39.092 -48.308  14.065  1.00  0.00     0.007 C 
HETATM   12  C   UNL     1     -37.653 -47.813  14.231  1.00  0.00     0.000 C 
HETATM   13  C   UNL     1     -36.918 -48.556  15.336  1.00  0.00     0.000 C 
HETATM   14  C   UNL     1     -36.980 -50.064  15.142  1.00  0.00     0.000 C 
HETATM   15  C   UNL     1     -38.408 -50.568  14.972  1.00  0.00     0.007 C 
ENDBRANCH   5  10
ENDBRANCH   3   5
BRANCH   1  16
HETATM   16  C   UNL     1     -41.767 -53.279  12.772  1.00  0.00     0.161 C 
BRANCH  16  17
HETATM   17  C   UNL     1     -43.240 -53.387  12.988  1.00  0.00     0.036 A 
HETATM   18  C   UNL     1     -43.971 -54.397  13.655  1.00  0.00     0.045 A 
HETATM   19  C   UNL     1     -45.293 -54.073  13.459  1.00  0.00     0.111 A 
HETATM   20  N   UNL     1     -45.291 -52.933  12.712  1.00  0.00    -0.308 N 
HETATM   21  C   UNL     1     -46.440 -52.236  12.188  1.00  0.00     0.177 C 
HETATM   22  N   UNL     1     -44.057 -52.484  12.424  1.00  0.00    -0.303 N 
ATOM     23  HN  UNL     1     -43.800 -51.649  11.897  1.00  0.00     0.186 HD
ENDBRANCH  16  17
ENDBRANCH   1  16
TORSDOF 6
ENDMDL
MODEL 8
REMARK VINA RESULT:      -5.5      2.616      4.240
REMARK  6 active torsions:
REMARK  status: ('A' for Active; 'I' for Inactive)
REMARK    1  A    between atoms: C_5  and  C_6 
REMARK    2  A    between atoms: C_6  and  C_7 
REMARK       I    between atoms: C_7  and  N_9 
REMARK    3  A    between atoms: N_9  and  C_10 
REMARK    4  A    between atoms: C_10  and  C_12 
REMARK    5  A    between atoms: C_10  and  C_14 
REMARK    6  A    between atoms: C_12  and  O_13 
ROOT
HETATM    1  C   UNL     1     -43.219 -53.583  13.166  1.00  0.00     0.224 C 
HETATM    2  O   UNL     1     -44.009 -53.306  12.267  1.00  0.00    -0.273 OA
HETATM    3  N   UNL     1     -43.595 -53.696  14.490  1.00  0.00    -0.349 N 
HETATM    4  H   UNL     1     -42.915 -54.120  15.108  1.00  0.00     0.163 HD
ENDROOT
BRANCH   3   5
HETATM    5  C   UNL     1     -44.969 -53.529  15.067  1.00  0.00     0.054 C 
HETATM    6  C   UNL     1     -45.982 -54.469  14.392  1.00  0.00     0.041 C 
BRANCH   5   7
HETATM    7  C   UNL     1     -44.915 -53.868  16.599  1.00  0.00     0.195 C 
BRANCH   7   8
HETATM    8  O   UNL     1     -45.981 -54.691  17.072  1.00  0.00    -0.398 OA
HETATM    9  H   UNL     1     -45.586 -55.438  17.559  1.00  0.00     0.209 HD
ENDBRANCH   7   8
ENDBRANCH   5   7
BRANCH   5  10
HETATM   10  C   UNL     1     -45.363 -51.993  14.913  1.00  0.00     0.015 C 
HETATM   11  C   UNL     1     -44.617 -50.992  15.825  1.00  0.00     0.007 C 
HETATM   12  C   UNL     1     -45.242 -50.764  17.203  1.00  0.00     0.000 C 
HETATM   13  C   UNL     1     -46.718 -50.410  17.110  1.00  0.00     0.000 C 
HETATM   14  C   UNL     1     -47.495 -51.436  16.299  1.00  0.00     0.000 C 
HETATM   15  C   UNL     1     -46.880 -51.675  14.925  1.00  0.00     0.007 C 
ENDBRANCH   5  10
ENDBRANCH   3   5
BRANCH   1  16
HETATM   16  C   UNL     1     -41.767 -53.916  12.882  1.00  0.00     0.161 C 
BRANCH  16  17
HETATM   17  C   UNL     1     -40.918 -52.714  12.631  1.00  0.00     0.036 A 
HETATM   18  C   UNL     1     -39.762 -52.281  13.320  1.00  0.00     0.045 A 
HETATM   19  C   UNL     1     -39.447 -51.063  12.764  1.00  0.00     0.111 A 
HETATM   20  N   UNL     1     -40.394 -50.833  11.811  1.00  0.00    -0.308 N 
HETATM   21  C   UNL     1     -40.536 -49.651  10.995  1.00  0.00     0.177 C 
HETATM   22  N   UNL     1     -41.292 -51.827  11.697  1.00  0.00    -0.303 N 
ATOM     23  HN  UNL     1     -42.078 -51.891  11.049  1.00  0.00     0.186 HD
ENDBRANCH  16  17
ENDBRANCH   1  16
TORSDOF 6
ENDMDL
MODEL 9
REMARK VINA RESULT:      -5.5      3.153      4.812
REMARK  6 active torsions:
REMARK  status: ('A' for Active; 'I' for Inactive)
REMARK    1  A    between atoms: C_5  and  C_6 
REMARK    2  A    between atoms: C_6  and  C_7 
REMARK       I    between atoms: C_7  and  N_9 
REMARK    3  A    between atoms: N_9  and  C_10 
REMARK    4  A    between atoms: C_10  and  C_12 
REMARK    5  A    between atoms: C_10  and  C_14 
REMARK    6  A    between atoms: C_12  and  O_13 
ROOT
HETATM    1  C   UNL     1     -43.905 -50.517  14.153  1.00  0.00     0.224 C 
HETATM    2  O   UNL     1     -44.205 -50.670  15.334  1.00  0.00    -0.273 OA
HETATM    3  N   UNL     1     -44.647 -51.042  13.114  1.00  0.00    -0.349 N 
HETATM    4  H   UNL     1     -44.424 -50.690  12.191  1.00  0.00     0.163 HD
ENDROOT
BRANCH   3   5
HETATM    5  C   UNL     1     -45.909 -51.845  13.206  1.00  0.00     0.054 C 
HETATM    6  C   UNL     1     -46.680 -51.537  14.501  1.00  0.00     0.041 C 
BRANCH   5   7
HETATM    7  C   UNL     1     -46.824 -51.486  11.982  1.00  0.00     0.195 C 
BRANCH   7   8
HETATM    8  O   UNL     1     -47.243 -52.601  11.195  1.00  0.00    -0.398 OA
HETATM    9  H   UNL     1     -47.920 -53.085  11.702  1.00  0.00     0.209 HD
ENDBRANCH   7   8
ENDBRANCH   5   7
BRANCH   5  10
HETATM   10  C   UNL     1     -45.502 -53.381  13.087  1.00  0.00     0.015 C 
HETATM   11  C   UNL     1     -45.621 -54.231  14.372  1.00  0.00     0.007 C 
HETATM   12  C   UNL     1     -44.391 -54.226  15.283  1.00  0.00     0.000 C 
HETATM   13  C   UNL     1     -43.119 -54.571  14.525  1.00  0.00     0.000 C 
HETATM   14  C   UNL     1     -42.926 -53.679  13.308  1.00  0.00     0.000 C 
HETATM   15  C   UNL     1     -44.146 -53.674  12.395  1.00  0.00     0.007 C 
ENDBRANCH   5  10
ENDBRANCH   3   5
BRANCH   1  16
HETATM   16  C   UNL     1     -42.730 -49.655  13.731  1.00  0.00     0.161 C 
BRANCH  16  17
HETATM   17  C   UNL     1     -41.430 -50.388  13.713  1.00  0.00     0.036 A 
HETATM   18  C   UNL     1     -40.580 -50.667  12.617  1.00  0.00     0.045 A 
HETATM   19  C   UNL     1     -39.586 -51.468  13.128  1.00  0.00     0.111 A 
HETATM   20  N   UNL     1     -39.877 -51.626  14.450  1.00  0.00    -0.308 N 
HETATM   21  C   UNL     1     -39.166 -52.441  15.405  1.00  0.00     0.177 C 
HETATM   22  N   UNL     1     -40.984 -50.968  14.837  1.00  0.00    -0.303 N 
ATOM     23  HN  UNL     1     -41.392 -50.921  15.772  1.00  0.00     0.186 HD
ENDBRANCH  16  17
ENDBRANCH   1  16
TORSDOF 6
ENDMDL
