MODEL 1
REMARK VINA RESULT:      -5.6      0.000      0.000
REMARK  4 active torsions:
REMARK  status: ('A' for Active; 'I' for Inactive)
REMARK    1  A    between atoms: C_8  and  N_9 
REMARK       I    between atoms: N_9  and  C_10 
REMARK    2  A    between atoms: C_10  and  C_12 
REMARK    3  A    between atoms: C_12  and  O_13 
REMARK    4  A    between atoms: O_13  and  C_14 
ROOT
HETATM    1  N   UNL     1     -41.927 -49.708  11.557  1.00  0.00    -0.323 N 
HETATM    2  C   UNL     1     -42.488 -50.044  12.780  1.00  0.00     0.245 C 
HETATM    3  O   UNL     1     -43.097 -49.276  13.522  1.00  0.00    -0.271 OA
HETATM    4  H   UNL     1     -41.483 -50.461  11.036  1.00  0.00     0.169 HD
ENDROOT
BRANCH   1   5
HETATM    5  C   UNL     1     -41.851 -48.415  10.975  1.00  0.00     0.076 A 
HETATM    6  C   UNL     1     -40.727 -47.630  11.243  1.00  0.00     0.158 A 
HETATM    7  F   UNL     1     -39.730 -48.101  12.009  1.00  0.00    -0.202 F 
HETATM    8  C   UNL     1     -40.639 -46.354  10.703  1.00  0.00     0.132 A 
HETATM    9  N   UNL     1     -41.593 -45.807   9.922  1.00  0.00    -0.372 N 
HETATM   10  C   UNL     1     -42.673 -46.577   9.671  1.00  0.00     0.090 A 
ATOM     11  HN  UNL     1     -41.503 -44.864   9.543  1.00  0.00     0.164 HD
HETATM   12  C   UNL     1     -42.840 -47.868  10.163  1.00  0.00     0.050 A 
ENDBRANCH   1   5
BRANCH   2  13
HETATM   13  C   UNL     1     -42.348 -51.534  13.139  1.00  0.00     0.271 C 
BRANCH  13  14
HETATM   14  O   UNL     1     -43.330 -52.299  12.462  1.00  0.00    -0.377 OA
BRANCH  14  15
HETATM   15  C   UNL     1     -44.429 -52.806  13.231  1.00  0.00     0.122 C 
HETATM   16  C   UNL     1     -45.780 -52.677  12.515  1.00  0.00     0.032 C 
HETATM   17  C   UNL     1     -46.660 -51.523  12.986  1.00  0.00     0.002 C 
HETATM   18  C   UNL     1     -46.753 -51.466  14.503  1.00  0.00     0.000 C 
HETATM   19  C   UNL     1     -45.370 -51.272  15.105  1.00  0.00     0.002 C 
HETATM   20  C   UNL     1     -44.415 -52.399  14.716  1.00  0.00     0.032 C 
ENDBRANCH  14  15
ENDBRANCH  13  14
ENDBRANCH   2  13
TORSDOF 4
ENDMDL
MODEL 2
REMARK VINA RESULT:      -5.6      4.169      7.136
REMARK  4 active torsions:
REMARK  status: ('A' for Active; 'I' for Inactive)
REMARK    1  A    between atoms: C_8  and  N_9 
REMARK       I    between atoms: N_9  and  C_10 
REMARK    2  A    between atoms: C_10  and  C_12 
REMARK    3  A    between atoms: C_12  and  O_13 
REMARK    4  A    between atoms: O_13  and  C_14 
ROOT
HETATM    1  N   UNL     1     -43.021 -53.872  12.905  1.00  0.00    -0.323 N 
HETATM    2  C   UNL     1     -41.885 -53.833  13.700  1.00  0.00     0.245 C 
HETATM    3  O   UNL     1     -41.873 -53.744  14.926  1.00  0.00    -0.271 OA
HETATM    4  H   UNL     1     -42.873 -53.985  11.905  1.00  0.00     0.169 HD
ENDROOT
BRANCH   1   5
HETATM    5  C   UNL     1     -44.367 -53.711  13.326  1.00  0.00     0.076 A 
HETATM    6  C   UNL     1     -44.969 -54.750  14.039  1.00  0.00     0.158 A 
HETATM    7  F   UNL     1     -44.280 -55.861  14.343  1.00  0.00    -0.202 F 
HETATM    8  C   UNL     1     -46.292 -54.626  14.442  1.00  0.00     0.132 A 
HETATM    9  N   UNL     1     -47.053 -53.544  14.181  1.00  0.00    -0.372 N 
HETATM   10  C   UNL     1     -46.458 -52.547  13.492  1.00  0.00     0.090 A 
ATOM     11  HN  UNL     1     -48.025 -53.483  14.487  1.00  0.00     0.164 HD
HETATM   12  C   UNL     1     -45.137 -52.583  13.056  1.00  0.00     0.050 A 
ENDBRANCH   1   5
BRANCH   2  13
HETATM   13  C   UNL     1     -40.571 -53.984  12.913  1.00  0.00     0.271 C 
BRANCH  13  14
HETATM   14  O   UNL     1     -40.303 -52.808  12.170  1.00  0.00    -0.377 OA
BRANCH  14  15
HETATM   15  C   UNL     1     -39.965 -51.619  12.898  1.00  0.00     0.122 C 
HETATM   16  C   UNL     1     -40.183 -50.332  12.090  1.00  0.00     0.032 C 
HETATM   17  C   UNL     1     -38.919 -49.707  11.506  1.00  0.00     0.002 C 
HETATM   18  C   UNL     1     -37.806 -49.613  12.538  1.00  0.00     0.000 C 
HETATM   19  C   UNL     1     -37.446 -51.000  13.048  1.00  0.00     0.002 C 
HETATM   20  C   UNL     1     -38.644 -51.703  13.683  1.00  0.00     0.032 C 
ENDBRANCH  14  15
ENDBRANCH  13  14
ENDBRANCH   2  13
TORSDOF 4
ENDMDL
MODEL 3
REMARK VINA RESULT:      -5.5      4.834      5.639
REMARK  4 active torsions:
REMARK  status: ('A' for Active; 'I' for Inactive)
REMARK    1  A    between atoms: C_8  and  N_9 
REMARK       I    between atoms: N_9  and  C_10 
REMARK    2  A    between atoms: C_10  and  C_12 
REMARK    3  A    between atoms: C_12  and  O_13 
REMARK    4  A    between atoms: O_13  and  C_14 
ROOT
HETATM    1  N   UNL     1     -43.080 -53.866  13.970  1.00  0.00    -0.323 N 
HETATM    2  C   UNL     1     -43.884 -54.909  14.408  1.00  0.00     0.245 C 
HETATM    3  O   UNL     1     -43.609 -55.690  15.316  1.00  0.00    -0.271 OA
HETATM    4  H   UNL     1     -43.458 -53.279  13.230  1.00  0.00     0.169 HD
ENDROOT
BRANCH   1   5
HETATM    5  C   UNL     1     -41.762 -53.561  14.400  1.00  0.00     0.076 A 
HETATM    6  C   UNL     1     -40.689 -54.039  13.645  1.00  0.00     0.158 A 
HETATM    7  F   UNL     1     -40.902 -54.745  12.523  1.00  0.00    -0.202 F 
HETATM    8  C   UNL     1     -39.391 -53.773  14.057  1.00  0.00     0.132 A 
HETATM    9  N   UNL     1     -39.089 -53.070  15.168  1.00  0.00    -0.372 N 
HETATM   10  C   UNL     1     -40.136 -52.613  15.887  1.00  0.00     0.090 A 
ATOM     11  HN  UNL     1     -38.124 -52.893  15.448  1.00  0.00     0.164 HD
HETATM   12  C   UNL     1     -41.468 -52.826  15.545  1.00  0.00     0.050 A 
ENDBRANCH   1   5
BRANCH   2  13
HETATM   13  C   UNL     1     -45.242 -54.989  13.688  1.00  0.00     0.271 C 
BRANCH  13  14
HETATM   14  O   UNL     1     -45.444 -53.840  12.885  1.00  0.00    -0.377 OA
BRANCH  14  15
HETATM   15  C   UNL     1     -46.284 -52.800  13.405  1.00  0.00     0.122 C 
HETATM   16  C   UNL     1     -45.615 -51.419  13.391  1.00  0.00     0.032 C 
HETATM   17  C   UNL     1     -45.077 -50.941  14.736  1.00  0.00     0.002 C 
HETATM   18  C   UNL     1     -46.096 -51.128  15.850  1.00  0.00     0.000 C 
HETATM   19  C   UNL     1     -46.456 -52.599  15.989  1.00  0.00     0.002 C 
HETATM   20  C   UNL     1     -47.036 -53.169  14.696  1.00  0.00     0.032 C 
ENDBRANCH  14  15
ENDBRANCH  13  14
ENDBRANCH   2  13
TORSDOF 4
ENDMDL
MODEL 4
REMARK VINA RESULT:      -5.5      3.542      7.004
REMARK  4 active torsions:
REMARK  status: ('A' for Active; 'I' for Inactive)
REMARK    1  A    between atoms: C_8  and  N_9 
REMARK       I    between atoms: N_9  and  C_10 
REMARK    2  A    between atoms: C_10  and  C_12 
REMARK    3  A    between atoms: C_12  and  O_13 
REMARK    4  A    between atoms: O_13  and  C_14 
ROOT
HETATM    1  N   UNL     1     -43.204 -52.743  12.216  1.00  0.00    -0.323 N 
HETATM    2  C   UNL     1     -42.086 -52.168  12.804  1.00  0.00     0.245 C 
HETATM    3  O   UNL     1     -41.899 -52.043  14.013  1.00  0.00    -0.271 OA
HETATM    4  H   UNL     1     -43.201 -52.809  11.201  1.00  0.00     0.169 HD
ENDROOT
BRANCH   1   5
HETATM    5  C   UNL     1     -44.379 -53.196  12.871  1.00  0.00     0.076 A 
HETATM    6  C   UNL     1     -45.383 -52.267  13.154  1.00  0.00     0.158 A 
HETATM    7  F   UNL     1     -45.249 -50.982  12.789  1.00  0.00    -0.202 F 
HETATM    8  C   UNL     1     -46.532 -52.683  13.813  1.00  0.00     0.132 A 
HETATM    9  N   UNL     1     -46.746 -53.953  14.212  1.00  0.00    -0.372 N 
HETATM   10  C   UNL     1     -45.768 -54.840  13.930  1.00  0.00     0.090 A 
ATOM     11  HN  UNL     1     -47.600 -54.228  14.698  1.00  0.00     0.164 HD
HETATM   12  C   UNL     1     -44.589 -54.514  13.268  1.00  0.00     0.050 A 
ENDBRANCH   1   5
BRANCH   2  13
HETATM   13  C   UNL     1     -41.009 -51.733  11.795  1.00  0.00     0.271 C 
BRANCH  13  14
HETATM   14  O   UNL     1     -39.723 -51.802  12.384  1.00  0.00    -0.377 OA
BRANCH  14  15
HETATM   15  C   UNL     1     -38.829 -50.701  12.170  1.00  0.00     0.122 C 
HETATM   16  C   UNL     1     -37.511 -50.831  12.945  1.00  0.00     0.032 C 
HETATM   17  C   UNL     1     -37.413 -49.987  14.212  1.00  0.00     0.002 C 
HETATM   18  C   UNL     1     -37.853 -48.551  13.969  1.00  0.00     0.000 C 
HETATM   19  C   UNL     1     -39.299 -48.519  13.499  1.00  0.00     0.002 C 
HETATM   20  C   UNL     1     -39.498 -49.315  12.210  1.00  0.00     0.032 C 
ENDBRANCH  14  15
ENDBRANCH  13  14
ENDBRANCH   2  13
TORSDOF 4
ENDMDL
MODEL 5
REMARK VINA RESULT:      -5.5      1.732      2.162
REMARK  4 active torsions:
REMARK  status: ('A' for Active; 'I' for Inactive)
REMARK    1  A    between atoms: C_8  and  N_9 
REMARK       I    between atoms: N_9  and  C_10 
REMARK    2  A    between atoms: C_10  and  C_12 
REMARK    3  A    between atoms: C_12  and  O_13 
REMARK    4  A    between atoms: O_13  and  C_14 
ROOT
HETATM    1  N   UNL     1     -42.083 -51.236  12.018  1.00  0.00    -0.323 N 
HETATM    2  C   UNL     1     -42.523 -51.684  13.256  1.00  0.00     0.245 C 
HETATM    3  O   UNL     1     -42.391 -51.084  14.321  1.00  0.00    -0.271 OA
HETATM    4  H   UNL     1     -42.297 -51.827  11.218  1.00  0.00     0.169 HD
ENDROOT
BRANCH   1   5
HETATM    5  C   UNL     1     -41.316 -50.073  11.751  1.00  0.00     0.076 A 
HETATM    6  C   UNL     1     -39.931 -50.134  11.924  1.00  0.00     0.158 A 
HETATM    7  F   UNL     1     -39.339 -51.278  12.306  1.00  0.00    -0.202 F 
HETATM    8  C   UNL     1     -39.161 -49.003  11.690  1.00  0.00     0.132 A 
HETATM    9  N   UNL     1     -39.675 -47.818  11.301  1.00  0.00    -0.372 N 
HETATM   10  C   UNL     1     -41.014 -47.773  11.137  1.00  0.00     0.090 A 
ATOM     11  HN  UNL     1     -39.084 -47.002  11.141  1.00  0.00     0.164 HD
HETATM   12  C   UNL     1     -41.861 -48.858  11.341  1.00  0.00     0.050 A 
ENDBRANCH   1   5
BRANCH   2  13
HETATM   13  C   UNL     1     -43.284 -53.020  13.197  1.00  0.00     0.271 C 
BRANCH  13  14
HETATM   14  O   UNL     1     -44.345 -52.944  12.262  1.00  0.00    -0.377 OA
BRANCH  14  15
HETATM   15  C   UNL     1     -45.682 -53.108  12.754  1.00  0.00     0.122 C 
HETATM   16  C   UNL     1     -46.410 -51.777  12.985  1.00  0.00     0.032 C 
HETATM   17  C   UNL     1     -46.488 -51.320  14.439  1.00  0.00     0.002 C 
HETATM   18  C   UNL     1     -46.940 -52.444  15.359  1.00  0.00     0.000 C 
HETATM   19  C   UNL     1     -45.959 -53.604  15.289  1.00  0.00     0.002 C 
HETATM   20  C   UNL     1     -45.831 -54.157  13.870  1.00  0.00     0.032 C 
ENDBRANCH  14  15
ENDBRANCH  13  14
ENDBRANCH   2  13
TORSDOF 4
ENDMDL
MODEL 6
REMARK VINA RESULT:      -5.4      1.810      2.412
REMARK  4 active torsions:
REMARK  status: ('A' for Active; 'I' for Inactive)
REMARK    1  A    between atoms: C_8  and  N_9 
REMARK       I    between atoms: N_9  and  C_10 
REMARK    2  A    between atoms: C_10  and  C_12 
REMARK    3  A    between atoms: C_12  and  O_13 
REMARK    4  A    between atoms: O_13  and  C_14 
ROOT
HETATM    1  N   UNL     1     -42.853 -49.302  11.981  1.00  0.00    -0.323 N 
HETATM    2  C   UNL     1     -43.193 -49.444  13.319  1.00  0.00     0.245 C 
HETATM    3  O   UNL     1     -43.155 -48.553  14.165  1.00  0.00    -0.271 OA
HETATM    4  H   UNL     1     -42.971 -50.123  11.391  1.00  0.00     0.169 HD
ENDROOT
BRANCH   1   5
HETATM    5  C   UNL     1     -42.303 -48.153  11.355  1.00  0.00     0.076 A 
HETATM    6  C   UNL     1     -43.117 -47.408  10.499  1.00  0.00     0.158 A 
HETATM    7  F   UNL     1     -44.398 -47.755  10.299  1.00  0.00    -0.202 F 
HETATM    8  C   UNL     1     -42.595 -46.293   9.857  1.00  0.00     0.132 A 
HETATM    9  N   UNL     1     -41.321 -45.875  10.006  1.00  0.00    -0.372 N 
HETATM   10  C   UNL     1     -40.546 -46.604  10.836  1.00  0.00     0.090 A 
ATOM     11  HN  UNL     1     -40.964 -45.053   9.517  1.00  0.00     0.164 HD
HETATM   12  C   UNL     1     -40.987 -47.729  11.526  1.00  0.00     0.050 A 
ENDBRANCH   1   5
BRANCH   2  13
HETATM   13  C   UNL     1     -43.711 -50.847  13.681  1.00  0.00     0.271 C 
BRANCH  13  14
HETATM   14  O   UNL     1     -42.712 -51.821  13.436  1.00  0.00    -0.377 OA
BRANCH  14  15
HETATM   15  C   UNL     1     -43.131 -53.095  12.926  1.00  0.00     0.122 C 
HETATM   16  C   UNL     1     -44.593 -53.110  12.461  1.00  0.00     0.032 C 
HETATM   17  C   UNL     1     -45.578 -53.759  13.429  1.00  0.00     0.002 C 
HETATM   18  C   UNL     1     -45.072 -55.101  13.935  1.00  0.00     0.000 C 
HETATM   19  C   UNL     1     -43.752 -54.920  14.667  1.00  0.00     0.002 C 
HETATM   20  C   UNL     1     -42.681 -54.301  13.770  1.00  0.00     0.032 C 
ENDBRANCH  14  15
ENDBRANCH  13  14
ENDBRANCH   2  13
TORSDOF 4
ENDMDL
MODEL 7
REMARK VINA RESULT:      -5.2      3.838      6.981
REMARK  4 active torsions:
REMARK  status: ('A' for Active; 'I' for Inactive)
REMARK    1  A    between atoms: C_8  and  N_9 
REMARK       I    between atoms: N_9  and  C_10 
REMARK    2  A    between atoms: C_10  and  C_12 
REMARK    3  A    between atoms: C_12  and  O_13 
REMARK    4  A    between atoms: O_13  and  C_14 
ROOT
HETATM    1  N   UNL     1     -41.853 -53.222  14.346  1.00  0.00    -0.323 N 
HETATM    2  C   UNL     1     -40.703 -53.436  13.599  1.00  0.00     0.245 C 
HETATM    3  O   UNL     1     -40.668 -53.849  12.442  1.00  0.00    -0.271 OA
HETATM    4  H   UNL     1     -41.725 -52.841  15.281  1.00  0.00     0.169 HD
ENDROOT
BRANCH   1   5
HETATM    5  C   UNL     1     -43.187 -53.530  13.972  1.00  0.00     0.076 A 
HETATM    6  C   UNL     1     -43.891 -52.607  13.196  1.00  0.00     0.158 A 
HETATM    7  F   UNL     1     -43.307 -51.468  12.789  1.00  0.00    -0.202 F 
HETATM    8  C   UNL     1     -45.204 -52.876  12.835  1.00  0.00     0.132 A 
HETATM    9  N   UNL     1     -45.863 -53.995  13.198  1.00  0.00    -0.372 N 
HETATM   10  C   UNL     1     -45.171 -54.880  13.947  1.00  0.00     0.090 A 
ATOM     11  HN  UNL     1     -46.830 -54.164  12.921  1.00  0.00     0.164 HD
HETATM   12  C   UNL     1     -43.850 -54.696  14.347  1.00  0.00     0.050 A 
ENDBRANCH   1   5
BRANCH   2  13
HETATM   13  C   UNL     1     -39.407 -53.040  14.329  1.00  0.00     0.271 C 
BRANCH  13  14
HETATM   14  O   UNL     1     -38.430 -52.605  13.401  1.00  0.00    -0.377 OA
BRANCH  14  15
HETATM   15  C   UNL     1     -37.955 -51.256  13.512  1.00  0.00     0.122 C 
HETATM   16  C   UNL     1     -38.942 -50.324  14.227  1.00  0.00     0.032 C 
HETATM   17  C   UNL     1     -39.754 -49.410  13.314  1.00  0.00     0.002 C 
HETATM   18  C   UNL     1     -38.877 -48.715  12.285  1.00  0.00     0.000 C 
HETATM   19  C   UNL     1     -38.179 -49.746  11.410  1.00  0.00     0.002 C 
HETATM   20  C   UNL     1     -37.310 -50.697  12.231  1.00  0.00     0.032 C 
ENDBRANCH  14  15
ENDBRANCH  13  14
ENDBRANCH   2  13
TORSDOF 4
ENDMDL
MODEL 8
REMARK VINA RESULT:      -5.2      3.043      7.028
REMARK  4 active torsions:
REMARK  status: ('A' for Active; 'I' for Inactive)
REMARK    1  A    between atoms: C_8  and  N_9 
REMARK       I    between atoms: N_9  and  C_10 
REMARK    2  A    between atoms: C_10  and  C_12 
REMARK    3  A    between atoms: C_12  and  O_13 
REMARK    4  A    between atoms: O_13  and  C_14 
ROOT
HETATM    1  N   UNL     1     -44.283 -51.687  12.772  1.00  0.00    -0.323 N 
HETATM    2  C   UNL     1     -43.187 -51.070  13.358  1.00  0.00     0.245 C 
HETATM    3  O   UNL     1     -42.656 -51.408  14.414  1.00  0.00    -0.271 OA
HETATM    4  H   UNL     1     -44.590 -51.316  11.876  1.00  0.00     0.169 HD
ENDROOT
BRANCH   1   5
HETATM    5  C   UNL     1     -45.062 -52.742  13.314  1.00  0.00     0.076 A 
HETATM    6  C   UNL     1     -46.228 -52.418  14.011  1.00  0.00     0.158 A 
HETATM    7  F   UNL     1     -46.616 -51.139  14.140  1.00  0.00    -0.202 F 
HETATM    8  C   UNL     1     -46.996 -53.432  14.568  1.00  0.00     0.132 A 
HETATM    9  N   UNL     1     -46.680 -54.740  14.483  1.00  0.00    -0.372 N 
HETATM   10  C   UNL     1     -45.552 -55.039  13.805  1.00  0.00     0.090 A 
ATOM     11  HN  UNL     1     -47.262 -55.463  14.906  1.00  0.00     0.164 HD
HETATM   12  C   UNL     1     -44.727 -54.090  13.208  1.00  0.00     0.050 A 
ENDBRANCH   1   5
BRANCH   2  13
HETATM   13  C   UNL     1     -42.607 -49.914  12.524  1.00  0.00     0.271 C 
BRANCH  13  14
HETATM   14  O   UNL     1     -41.411 -50.319  11.881  1.00  0.00    -0.377 OA
BRANCH  14  15
HETATM   15  C   UNL     1     -40.701 -49.340  11.111  1.00  0.00     0.122 C 
HETATM   16  C   UNL     1     -39.414 -48.853  11.790  1.00  0.00     0.032 C 
HETATM   17  C   UNL     1     -39.510 -47.489  12.467  1.00  0.00     0.002 C 
HETATM   18  C   UNL     1     -40.167 -46.456  11.565  1.00  0.00     0.000 C 
HETATM   19  C   UNL     1     -41.578 -46.897  11.204  1.00  0.00     0.002 C 
HETATM   20  C   UNL     1     -41.588 -48.247  10.489  1.00  0.00     0.032 C 
ENDBRANCH  14  15
ENDBRANCH  13  14
ENDBRANCH   2  13
TORSDOF 4
ENDMDL
MODEL 9
REMARK VINA RESULT:      -5.2      3.489      7.007
REMARK  4 active torsions:
REMARK  status: ('A' for Active; 'I' for Inactive)
REMARK    1  A    between atoms: C_8  and  N_9 
REMARK       I    between atoms: N_9  and  C_10 
REMARK    2  A    between atoms: C_10  and  C_12 
REMARK    3  A    between atoms: C_12  and  O_13 
REMARK    4  A    between atoms: O_13  and  C_14 
ROOT
HETATM    1  N   UNL     1     -44.250 -51.598  12.823  1.00  0.00    -0.323 N 
HETATM    2  C   UNL     1     -43.235 -50.889  13.450  1.00  0.00     0.245 C 
HETATM    3  O   UNL     1     -42.848 -51.063  14.604  1.00  0.00    -0.271 OA
HETATM    4  H   UNL     1     -44.435 -51.365  11.850  1.00  0.00     0.169 HD
ENDROOT
BRANCH   1   5
HETATM    5  C   UNL     1     -45.098 -52.575  13.406  1.00  0.00     0.076 A 
HETATM    6  C   UNL     1     -44.768 -53.923  13.249  1.00  0.00     0.158 A 
HETATM    7  F   UNL     1     -43.657 -54.283  12.586  1.00  0.00    -0.202 F 
HETATM    8  C   UNL     1     -45.595 -54.897  13.791  1.00  0.00     0.132 A 
HETATM    9  N   UNL     1     -46.726 -54.622  14.473  1.00  0.00    -0.372 N 
HETATM   10  C   UNL     1     -47.032 -53.316  14.619  1.00  0.00     0.090 A 
ATOM     11  HN  UNL     1     -47.316 -55.361  14.857  1.00  0.00     0.164 HD
HETATM   12  C   UNL     1     -46.258 -52.274  14.116  1.00  0.00     0.050 A 
ENDBRANCH   1   5
BRANCH   2  13
HETATM   13  C   UNL     1     -42.546 -49.857  12.539  1.00  0.00     0.271 C 
BRANCH  13  14
HETATM   14  O   UNL     1     -41.277 -50.334  12.126  1.00  0.00    -0.377 OA
BRANCH  14  15
HETATM   15  C   UNL     1     -40.117 -49.801  12.781  1.00  0.00     0.122 C 
HETATM   16  C   UNL     1     -39.102 -49.185  11.808  1.00  0.00     0.032 C 
HETATM   17  C   UNL     1     -37.887 -50.054  11.498  1.00  0.00     0.002 C 
HETATM   18  C   UNL     1     -37.267 -50.629  12.762  1.00  0.00     0.000 C 
HETATM   19  C   UNL     1     -38.280 -51.494  13.495  1.00  0.00     0.002 C 
HETATM   20  C   UNL     1     -39.531 -50.705  13.880  1.00  0.00     0.032 C 
ENDBRANCH  14  15
ENDBRANCH  13  14
ENDBRANCH   2  13
TORSDOF 4
ENDMDL
