MODEL 1
REMARK VINA RESULT:      -5.8      0.000      0.000
REMARK  4 active torsions:
REMARK  status: ('A' for Active; 'I' for Inactive)
REMARK    1  A    between atoms: O_2  and  C_3 
REMARK    2  A    between atoms: C_3  and  C_4 
REMARK    3  A    between atoms: C_4  and  N_5 
REMARK       I    between atoms: N_5  and  C_6 
REMARK       I    between atoms: C_6  and  N_8 
REMARK    4  A    between atoms: N_8  and  C_9 
ROOT
HETATM    1  N   UNL     1     -42.318 -48.585  10.251  1.00  0.00    -0.340 N 
HETATM    2  C   UNL     1     -41.490 -49.032  11.234  1.00  0.00     0.321 C 
HETATM    3  O   UNL     1     -41.553 -48.749  12.415  1.00  0.00    -0.247 OA
HETATM    4  N   UNL     1     -40.432 -49.824  10.718  1.00  0.00    -0.293 N 
HETATM    5  H   UNL     1     -42.318 -48.973   9.318  1.00  0.00     0.164 HD
HETATM    6  H   UNL     1     -40.257 -49.828   9.725  1.00  0.00     0.172 HD
ENDROOT
BRANCH   1   7
HETATM    7  C   UNL     1     -43.307 -47.583  10.607  1.00  0.00     0.162 C 
BRANCH   7   8
HETATM    8  C   UNL     1     -43.727 -46.790   9.367  1.00  0.00     0.076 C 
HETATM    9  C   UNL     1     -43.628 -47.627   8.054  1.00  0.00     0.040 C 
HETATM   10  C   UNL     1     -45.124 -47.959   8.189  1.00  0.00     0.006 C 
HETATM   11  C   UNL     1     -45.265 -46.732   9.102  1.00  0.00     0.040 C 
BRANCH   8  12
HETATM   12  O   UNL     1     -43.092 -45.481   9.343  1.00  0.00    -0.383 OA
HETATM   13  C   UNL     1     -42.507 -45.015  10.555  1.00  0.00     0.202 C 
ENDBRANCH   8  12
ENDBRANCH   7   8
ENDBRANCH   1   7
BRANCH   4  14
HETATM   14  C   UNL     1     -39.420 -50.243  11.572  1.00  0.00     0.126 A 
HETATM   15  C   UNL     1     -38.159 -49.692  11.595  1.00  0.00     0.068 A 
HETATM   16  C   UNL     1     -37.516 -50.318  12.681  1.00  0.00     0.111 A 
HETATM   17  N   UNL     1     -38.273 -51.257  13.249  1.00  0.00    -0.308 N 
HETATM   18  N   UNL     1     -39.431 -51.207  12.555  1.00  0.00    -0.281 N 
ATOM     19  HN  UNL     1     -38.033 -51.871  14.028  1.00  0.00     0.186 HD
HETATM   20  C   UNL     1     -40.401 -52.259  12.751  1.00  0.00     0.179 C 
ENDBRANCH   4  14
TORSDOF 4
ENDMDL
MODEL 2
REMARK VINA RESULT:      -5.6      3.866      6.327
REMARK  4 active torsions:
REMARK  status: ('A' for Active; 'I' for Inactive)
REMARK    1  A    between atoms: O_2  and  C_3 
REMARK    2  A    between atoms: C_3  and  C_4 
REMARK    3  A    between atoms: C_4  and  N_5 
REMARK       I    between atoms: N_5  and  C_6 
REMARK       I    between atoms: C_6  and  N_8 
REMARK    4  A    between atoms: N_8  and  C_9 
ROOT
HETATM    1  N   UNL     1     -41.426 -51.842  11.806  1.00  0.00    -0.340 N 
HETATM    2  C   UNL     1     -42.443 -52.179  12.645  1.00  0.00     0.321 C 
HETATM    3  O   UNL     1     -42.464 -52.029  13.852  1.00  0.00    -0.247 OA
HETATM    4  N   UNL     1     -43.494 -52.844  11.963  1.00  0.00    -0.293 N 
HETATM    5  H   UNL     1     -41.523 -51.843  10.800  1.00  0.00     0.164 HD
HETATM    6  H   UNL     1     -43.340 -53.182  11.026  1.00  0.00     0.172 HD
ENDROOT
BRANCH   1   7
HETATM    7  C   UNL     1     -40.191 -51.362  12.403  1.00  0.00     0.162 C 
BRANCH   7   8
HETATM    8  C   UNL     1     -39.826 -49.989  11.832  1.00  0.00     0.076 C 
HETATM    9  C   UNL     1     -39.619 -48.910  12.941  1.00  0.00     0.040 C 
HETATM   10  C   UNL     1     -38.108 -49.190  12.889  1.00  0.00     0.006 C 
HETATM   11  C   UNL     1     -38.316 -49.790  11.490  1.00  0.00     0.040 C 
BRANCH   8  12
HETATM   12  O   UNL     1     -40.714 -49.624  10.740  1.00  0.00    -0.383 OA
HETATM   13  C   UNL     1     -41.412 -48.387  10.848  1.00  0.00     0.202 C 
ENDBRANCH   8  12
ENDBRANCH   7   8
ENDBRANCH   1   7
BRANCH   4  14
HETATM   14  C   UNL     1     -44.546 -53.379  12.696  1.00  0.00     0.126 A 
HETATM   15  C   UNL     1     -44.511 -54.617  13.296  1.00  0.00     0.068 A 
HETATM   16  C   UNL     1     -45.712 -54.694  14.028  1.00  0.00     0.111 A 
HETATM   17  N   UNL     1     -46.493 -53.629  13.838  1.00  0.00    -0.308 N 
HETATM   18  N   UNL     1     -45.772 -52.838  13.014  1.00  0.00    -0.281 N 
ATOM     19  HN  UNL     1     -47.420 -53.454  14.225  1.00  0.00     0.186 HD
HETATM   20  C   UNL     1     -46.418 -51.698  12.407  1.00  0.00     0.179 C 
ENDBRANCH   4  14
TORSDOF 4
ENDMDL
MODEL 3
REMARK VINA RESULT:      -5.5      3.620      5.874
REMARK  4 active torsions:
REMARK  status: ('A' for Active; 'I' for Inactive)
REMARK    1  A    between atoms: O_2  and  C_3 
REMARK    2  A    between atoms: C_3  and  C_4 
REMARK    3  A    between atoms: C_4  and  N_5 
REMARK       I    between atoms: N_5  and  C_6 
REMARK       I    between atoms: C_6  and  N_8 
REMARK    4  A    between atoms: N_8  and  C_9 
ROOT
HETATM    1  N   UNL     1     -43.258 -51.449  12.581  1.00  0.00    -0.340 N 
HETATM    2  C   UNL     1     -42.763 -50.182  12.552  1.00  0.00     0.321 C 
HETATM    3  O   UNL     1     -43.153 -49.240  13.216  1.00  0.00    -0.247 OA
HETATM    4  N   UNL     1     -41.763 -50.025  11.559  1.00  0.00    -0.293 N 
HETATM    5  H   UNL     1     -42.797 -52.226  12.128  1.00  0.00     0.164 HD
HETATM    6  H   UNL     1     -41.644 -50.741  10.860  1.00  0.00     0.172 HD
ENDROOT
BRANCH   1   7
HETATM    7  C   UNL     1     -44.440 -51.694  13.389  1.00  0.00     0.162 C 
BRANCH   7   8
HETATM    8  C   UNL     1     -45.096 -53.016  12.981  1.00  0.00     0.076 C 
HETATM    9  C   UNL     1     -44.058 -54.158  12.750  1.00  0.00     0.040 C 
HETATM   10  C   UNL     1     -44.303 -54.630  14.193  1.00  0.00     0.006 C 
HETATM   11  C   UNL     1     -45.643 -53.879  14.161  1.00  0.00     0.040 C 
BRANCH   8  12
HETATM   12  O   UNL     1     -46.071 -52.810  11.921  1.00  0.00    -0.383 OA
HETATM   13  C   UNL     1     -46.929 -51.679  12.030  1.00  0.00     0.202 C 
ENDBRANCH   8  12
ENDBRANCH   7   8
ENDBRANCH   1   7
BRANCH   4  14
HETATM   14  C   UNL     1     -41.254 -48.758  11.305  1.00  0.00     0.126 A 
HETATM   15  C   UNL     1     -40.146 -48.236  11.934  1.00  0.00     0.068 A 
HETATM   16  C   UNL     1     -39.915 -47.006  11.287  1.00  0.00     0.111 A 
HETATM   17  N   UNL     1     -40.852 -46.722  10.381  1.00  0.00    -0.308 N 
HETATM   18  N   UNL     1     -41.670 -47.797  10.410  1.00  0.00    -0.281 N 
ATOM     19  HN  UNL     1     -40.932 -45.887   9.801  1.00  0.00     0.186 HD
HETATM   20  C   UNL     1     -42.935 -47.724   9.717  1.00  0.00     0.179 C 
ENDBRANCH   4  14
TORSDOF 4
ENDMDL
MODEL 4
REMARK VINA RESULT:      -5.5      3.622      6.293
REMARK  4 active torsions:
REMARK  status: ('A' for Active; 'I' for Inactive)
REMARK    1  A    between atoms: O_2  and  C_3 
REMARK    2  A    between atoms: C_3  and  C_4 
REMARK    3  A    between atoms: C_4  and  N_5 
REMARK       I    between atoms: N_5  and  C_6 
REMARK       I    between atoms: C_6  and  N_8 
REMARK    4  A    between atoms: N_8  and  C_9 
ROOT
HETATM    1  N   UNL     1     -43.034 -52.807  11.989  1.00  0.00    -0.340 N 
HETATM    2  C   UNL     1     -42.239 -51.764  12.351  1.00  0.00     0.321 C 
HETATM    3  O   UNL     1     -42.428 -50.998  13.277  1.00  0.00    -0.247 OA
HETATM    4  N   UNL     1     -41.163 -51.578  11.446  1.00  0.00    -0.293 N 
HETATM    5  H   UNL     1     -42.750 -53.502  11.313  1.00  0.00     0.164 HD
HETATM    6  H   UNL     1     -41.175 -52.055  10.558  1.00  0.00     0.172 HD
ENDROOT
BRANCH   1   7
HETATM    7  C   UNL     1     -44.295 -52.969  12.693  1.00  0.00     0.162 C 
BRANCH   7   8
HETATM    8  C   UNL     1     -44.168 -54.056  13.763  1.00  0.00     0.076 C 
HETATM    9  C   UNL     1     -44.755 -53.618  15.141  1.00  0.00     0.040 C 
HETATM   10  C   UNL     1     -46.072 -54.320  14.768  1.00  0.00     0.006 C 
HETATM   11  C   UNL     1     -45.284 -55.147  13.740  1.00  0.00     0.040 C 
BRANCH   8  12
HETATM   12  O   UNL     1     -42.824 -54.613  13.786  1.00  0.00    -0.383 OA
HETATM   13  C   UNL     1     -42.134 -54.607  15.032  1.00  0.00     0.202 C 
ENDBRANCH   8  12
ENDBRANCH   7   8
ENDBRANCH   1   7
BRANCH   4  14
HETATM   14  C   UNL     1     -40.337 -50.470  11.593  1.00  0.00     0.126 A 
HETATM   15  C   UNL     1     -39.109 -50.506  12.214  1.00  0.00     0.068 A 
HETATM   16  C   UNL     1     -38.574 -49.217  12.021  1.00  0.00     0.111 A 
HETATM   17  N   UNL     1     -39.428 -48.398  11.406  1.00  0.00    -0.308 N 
HETATM   18  N   UNL     1     -40.505 -49.174  11.159  1.00  0.00    -0.281 N 
ATOM     19  HN  UNL     1     -39.297 -47.413  11.176  1.00  0.00     0.186 HD
HETATM   20  C   UNL     1     -41.725 -48.544  10.710  1.00  0.00     0.179 C 
ENDBRANCH   4  14
TORSDOF 4
ENDMDL
MODEL 5
REMARK VINA RESULT:      -5.5      4.360      7.324
REMARK  4 active torsions:
REMARK  status: ('A' for Active; 'I' for Inactive)
REMARK    1  A    between atoms: O_2  and  C_3 
REMARK    2  A    between atoms: C_3  and  C_4 
REMARK    3  A    between atoms: C_4  and  N_5 
REMARK       I    between atoms: N_5  and  C_6 
REMARK       I    between atoms: C_6  and  N_8 
REMARK    4  A    between atoms: N_8  and  C_9 
ROOT
HETATM    1  N   UNL     1     -41.739 -51.839  11.743  1.00  0.00    -0.340 N 
HETATM    2  C   UNL     1     -42.837 -52.033  12.522  1.00  0.00     0.321 C 
HETATM    3  O   UNL     1     -43.112 -51.435  13.545  1.00  0.00    -0.247 OA
HETATM    4  N   UNL     1     -43.627 -53.119  12.065  1.00  0.00    -0.293 N 
HETATM    5  H   UNL     1     -41.640 -52.251  10.825  1.00  0.00     0.164 HD
HETATM    6  H   UNL     1     -43.247 -53.753  11.379  1.00  0.00     0.172 HD
ENDROOT
BRANCH   1   7
HETATM    7  C   UNL     1     -40.727 -50.912  12.222  1.00  0.00     0.162 C 
BRANCH   7   8
HETATM    8  C   UNL     1     -39.718 -51.644  13.110  1.00  0.00     0.076 C 
HETATM    9  C   UNL     1     -38.303 -50.987  13.082  1.00  0.00     0.040 C 
HETATM   10  C   UNL     1     -38.670 -50.214  14.360  1.00  0.00     0.006 C 
HETATM   11  C   UNL     1     -39.762 -51.263  14.623  1.00  0.00     0.040 C 
BRANCH   8  12
HETATM   12  O   UNL     1     -39.763 -53.080  12.880  1.00  0.00    -0.383 OA
HETATM   13  C   UNL     1     -39.448 -53.930  13.978  1.00  0.00     0.202 C 
ENDBRANCH   8  12
ENDBRANCH   7   8
ENDBRANCH   1   7
BRANCH   4  14
HETATM   14  C   UNL     1     -44.709 -53.539  12.829  1.00  0.00     0.126 A 
HETATM   15  C   UNL     1     -44.687 -54.646  13.646  1.00  0.00     0.068 A 
HETATM   16  C   UNL     1     -45.926 -54.619  14.316  1.00  0.00     0.111 A 
HETATM   17  N   UNL     1     -46.712 -53.627  13.895  1.00  0.00    -0.308 N 
HETATM   18  N   UNL     1     -45.959 -52.981  12.978  1.00  0.00    -0.281 N 
ATOM     19  HN  UNL     1     -47.662 -53.408  14.195  1.00  0.00     0.186 HD
HETATM   20  C   UNL     1     -46.589 -51.987  12.141  1.00  0.00     0.179 C 
ENDBRANCH   4  14
TORSDOF 4
ENDMDL
MODEL 6
REMARK VINA RESULT:      -5.5      4.042      6.499
REMARK  4 active torsions:
REMARK  status: ('A' for Active; 'I' for Inactive)
REMARK    1  A    between atoms: O_2  and  C_3 
REMARK    2  A    between atoms: C_3  and  C_4 
REMARK    3  A    between atoms: C_4  and  N_5 
REMARK       I    between atoms: N_5  and  C_6 
REMARK       I    between atoms: C_6  and  N_8 
REMARK    4  A    between atoms: N_8  and  C_9 
ROOT
HETATM    1  N   UNL     1     -41.006 -51.218  11.313  1.00  0.00    -0.340 N 
HETATM    2  C   UNL     1     -42.020 -51.549  12.158  1.00  0.00     0.321 C 
HETATM    3  O   UNL     1     -42.364 -50.934  13.150  1.00  0.00    -0.247 OA
HETATM    4  N   UNL     1     -42.611 -52.793  11.816  1.00  0.00    -0.293 N 
HETATM    5  H   UNL     1     -40.866 -51.675  10.422  1.00  0.00     0.164 HD
HETATM    6  H   UNL     1     -42.145 -53.397  11.158  1.00  0.00     0.172 HD
ENDROOT
BRANCH   1   7
HETATM    7  C   UNL     1     -40.168 -50.089  11.677  1.00  0.00     0.162 C 
BRANCH   7   8
HETATM    8  C   UNL     1     -38.985 -50.560  12.527  1.00  0.00     0.076 C 
HETATM    9  C   UNL     1     -37.631 -49.923  12.083  1.00  0.00     0.040 C 
HETATM   10  C   UNL     1     -37.816 -48.849  13.168  1.00  0.00     0.006 C 
HETATM   11  C   UNL     1     -38.791 -49.801  13.877  1.00  0.00     0.040 C 
BRANCH   8  12
HETATM   12  O   UNL     1     -38.994 -52.007  12.680  1.00  0.00    -0.383 OA
HETATM   13  C   UNL     1     -38.947 -52.526  14.005  1.00  0.00     0.202 C 
ENDBRANCH   8  12
ENDBRANCH   7   8
ENDBRANCH   1   7
BRANCH   4  14
HETATM   14  C   UNL     1     -43.568 -53.343  12.660  1.00  0.00     0.126 A 
HETATM   15  C   UNL     1     -44.921 -53.134  12.524  1.00  0.00     0.068 A 
HETATM   16  C   UNL     1     -45.511 -53.971  13.492  1.00  0.00     0.111 A 
HETATM   17  N   UNL     1     -44.605 -54.595  14.245  1.00  0.00    -0.308 N 
HETATM   18  N   UNL     1     -43.421 -54.194  13.733  1.00  0.00    -0.281 N 
ATOM     19  HN  UNL     1     -44.768 -55.229  15.028  1.00  0.00     0.186 HD
HETATM   20  C   UNL     1     -42.213 -54.495  14.463  1.00  0.00     0.179 C 
ENDBRANCH   4  14
TORSDOF 4
ENDMDL
MODEL 7
REMARK VINA RESULT:      -5.3      4.296      6.594
REMARK  4 active torsions:
REMARK  status: ('A' for Active; 'I' for Inactive)
REMARK    1  A    between atoms: O_2  and  C_3 
REMARK    2  A    between atoms: C_3  and  C_4 
REMARK    3  A    between atoms: C_4  and  N_5 
REMARK       I    between atoms: N_5  and  C_6 
REMARK       I    between atoms: C_6  and  N_8 
REMARK    4  A    between atoms: N_8  and  C_9 
ROOT
HETATM    1  N   UNL     1     -41.959 -45.031  10.569  1.00  0.00    -0.340 N 
HETATM    2  C   UNL     1     -42.757 -46.108  10.339  1.00  0.00     0.321 C 
HETATM    3  O   UNL     1     -42.555 -47.249  10.710  1.00  0.00    -0.247 OA
HETATM    4  N   UNL     1     -43.856 -45.786   9.502  1.00  0.00    -0.293 N 
HETATM    5  H   UNL     1     -42.251 -44.083  10.375  1.00  0.00     0.164 HD
HETATM    6  H   UNL     1     -43.858 -44.910   9.004  1.00  0.00     0.172 HD
ENDROOT
BRANCH   1   7
HETATM    7  C   UNL     1     -40.681 -45.265  11.218  1.00  0.00     0.162 C 
BRANCH   7   8
HETATM    8  C   UNL     1     -40.316 -44.078  12.113  1.00  0.00     0.076 C 
HETATM    9  C   UNL     1     -41.049 -44.113  13.490  1.00  0.00     0.040 C 
HETATM   10  C   UNL     1     -39.807 -44.786  14.099  1.00  0.00     0.006 C 
HETATM   11  C   UNL     1     -38.990 -44.235  12.921  1.00  0.00     0.040 C 
BRANCH   8  12
HETATM   12  O   UNL     1     -40.393 -42.825  11.377  1.00  0.00    -0.383 OA
HETATM   13  C   UNL     1     -40.407 -41.620  12.135  1.00  0.00     0.202 C 
ENDBRANCH   8  12
ENDBRANCH   7   8
ENDBRANCH   1   7
BRANCH   4  14
HETATM   14  C   UNL     1     -44.690 -46.804   9.057  1.00  0.00     0.126 A 
HETATM   15  C   UNL     1     -45.941 -47.052   9.575  1.00  0.00     0.068 A 
HETATM   16  C   UNL     1     -46.473 -48.066   8.755  1.00  0.00     0.111 A 
HETATM   17  N   UNL     1     -45.598 -48.495   7.843  1.00  0.00    -0.308 N 
HETATM   18  N   UNL     1     -44.510 -47.722   8.046  1.00  0.00    -0.281 N 
ATOM     19  HN  UNL     1     -45.724 -49.235   7.153  1.00  0.00     0.186 HD
HETATM   20  C   UNL     1     -43.276 -48.075   7.384  1.00  0.00     0.179 C 
ENDBRANCH   4  14
TORSDOF 4
ENDMDL
MODEL 8
REMARK VINA RESULT:      -5.1      4.140      5.631
REMARK  4 active torsions:
REMARK  status: ('A' for Active; 'I' for Inactive)
REMARK    1  A    between atoms: O_2  and  C_3 
REMARK    2  A    between atoms: C_3  and  C_4 
REMARK    3  A    between atoms: C_4  and  N_5 
REMARK       I    between atoms: N_5  and  C_6 
REMARK       I    between atoms: C_6  and  N_8 
REMARK    4  A    between atoms: N_8  and  C_9 
ROOT
HETATM    1  N   UNL     1     -43.508 -52.354  12.515  1.00  0.00    -0.340 N 
HETATM    2  C   UNL     1     -42.573 -51.422  12.844  1.00  0.00     0.321 C 
HETATM    3  O   UNL     1     -42.269 -51.070  13.968  1.00  0.00    -0.247 OA
HETATM    4  N   UNL     1     -42.021 -50.796  11.698  1.00  0.00    -0.293 N 
HETATM    5  H   UNL     1     -43.608 -52.721  11.579  1.00  0.00     0.164 HD
HETATM    6  H   UNL     1     -42.469 -50.919  10.803  1.00  0.00     0.172 HD
ENDROOT
BRANCH   1   7
HETATM    7  C   UNL     1     -44.314 -52.909  13.589  1.00  0.00     0.162 C 
BRANCH   7   8
HETATM    8  C   UNL     1     -45.797 -52.617  13.343  1.00  0.00     0.076 C 
HETATM    9  C   UNL     1     -46.730 -53.341  14.363  1.00  0.00     0.040 C 
HETATM   10  C   UNL     1     -46.751 -52.056  15.209  1.00  0.00     0.006 C 
HETATM   11  C   UNL     1     -46.322 -51.280  13.954  1.00  0.00     0.040 C 
BRANCH   8  12
HETATM   12  O   UNL     1     -46.135 -52.777  11.938  1.00  0.00    -0.383 OA
HETATM   13  C   UNL     1     -47.086 -51.872  11.386  1.00  0.00     0.202 C 
ENDBRANCH   8  12
ENDBRANCH   7   8
ENDBRANCH   1   7
BRANCH   4  14
HETATM   14  C   UNL     1     -41.153 -49.723  11.863  1.00  0.00     0.126 A 
HETATM   15  C   UNL     1     -39.782 -49.840  11.866  1.00  0.00     0.068 A 
HETATM   16  C   UNL     1     -39.311 -48.514  11.927  1.00  0.00     0.111 A 
HETATM   17  N   UNL     1     -40.300 -47.627  12.047  1.00  0.00    -0.308 N 
HETATM   18  N   UNL     1     -41.420 -48.381  12.016  1.00  0.00    -0.281 N 
ATOM     19  HN  UNL     1     -40.227 -46.614  12.139  1.00  0.00     0.186 HD
HETATM   20  C   UNL     1     -42.680 -47.764  12.361  1.00  0.00     0.179 C 
ENDBRANCH   4  14
TORSDOF 4
ENDMDL
MODEL 9
REMARK VINA RESULT:      -4.9      2.405      3.800
REMARK  4 active torsions:
REMARK  status: ('A' for Active; 'I' for Inactive)
REMARK    1  A    between atoms: O_2  and  C_3 
REMARK    2  A    between atoms: C_3  and  C_4 
REMARK    3  A    between atoms: C_4  and  N_5 
REMARK       I    between atoms: N_5  and  C_6 
REMARK       I    between atoms: C_6  and  N_8 
REMARK    4  A    between atoms: N_8  and  C_9 
ROOT
HETATM    1  N   UNL     1     -41.146 -47.156  10.239  1.00  0.00    -0.340 N 
HETATM    2  C   UNL     1     -41.129 -48.106  11.213  1.00  0.00     0.321 C 
HETATM    3  O   UNL     1     -41.431 -47.949  12.381  1.00  0.00    -0.247 OA
HETATM    4  N   UNL     1     -40.608 -49.339  10.743  1.00  0.00    -0.293 N 
HETATM    5  H   UNL     1     -41.038 -47.377   9.259  1.00  0.00     0.164 HD
HETATM    6  H   UNL     1     -40.131 -49.368   9.856  1.00  0.00     0.172 HD
ENDROOT
BRANCH   1   7
HETATM    7  C   UNL     1     -41.439 -45.790  10.635  1.00  0.00     0.162 C 
BRANCH   7   8
HETATM    8  C   UNL     1     -40.140 -45.002  10.820  1.00  0.00     0.076 C 
HETATM    9  C   UNL     1     -40.378 -43.463  10.925  1.00  0.00     0.040 C 
HETATM   10  C   UNL     1     -40.362 -43.597  12.458  1.00  0.00     0.006 C 
HETATM   11  C   UNL     1     -39.609 -44.926  12.286  1.00  0.00     0.040 C 
BRANCH   8  12
HETATM   12  O   UNL     1     -39.128 -45.431   9.866  1.00  0.00    -0.383 OA
HETATM   13  C   UNL     1     -38.686 -44.476   8.906  1.00  0.00     0.202 C 
ENDBRANCH   8  12
ENDBRANCH   7   8
ENDBRANCH   1   7
BRANCH   4  14
HETATM   14  C   UNL     1     -40.393 -50.372  11.647  1.00  0.00     0.126 A 
HETATM   15  C   UNL     1     -41.306 -51.370  11.903  1.00  0.00     0.068 A 
HETATM   16  C   UNL     1     -40.632 -52.257  12.766  1.00  0.00     0.111 A 
HETATM   17  N   UNL     1     -39.420 -51.816  13.105  1.00  0.00    -0.308 N 
HETATM   18  N   UNL     1     -39.291 -50.658  12.422  1.00  0.00    -0.281 N 
ATOM     19  HN  UNL     1     -38.747 -52.253  13.735  1.00  0.00     0.186 HD
HETATM   20  C   UNL     1     -38.184 -49.786  12.740  1.00  0.00     0.179 C 
ENDBRANCH   4  14
TORSDOF 4
ENDMDL
