MODEL 1
REMARK VINA RESULT:      -6.5      0.000      0.000
REMARK  6 active torsions:
REMARK  status: ('A' for Active; 'I' for Inactive)
REMARK    1  A    between atoms: C_2  and  N_4 
REMARK    2  A    between atoms: N_3  and  C_15 
REMARK    3  A    between atoms: C_14  and  C_15 
REMARK    4  A    between atoms: C_14  and  C_27 
REMARK    5  A    between atoms: N_16  and  C_28 
REMARK    6  A    between atoms: C_27  and  O_29 
ROOT
HETATM    1  C   UNL     1     -42.142 -48.773  11.474  1.00  0.00     0.117 A 
HETATM    2  C   UNL     1     -41.683 -49.961  12.117  1.00  0.00     0.115 A 
HETATM    3  N   UNL     1     -41.889 -46.806  10.528  1.00  0.00    -0.326 N 
HETATM    4  C   UNL     1     -41.191 -47.827  11.114  1.00  0.00     0.140 A 
HETATM    5  N   UNL     1     -43.398 -48.326  11.090  1.00  0.00    -0.346 N 
ATOM      6  HN  UNL     1     -44.289 -48.804  11.226  1.00  0.00     0.167 HD
HETATM    7  C   UNL     1     -43.206 -47.161  10.516  1.00  0.00     0.185 A 
HETATM    8  N   UNL     1     -40.327 -50.030  12.325  1.00  0.00    -0.341 N 
ATOM      9  HN  UNL     1     -39.927 -50.845  12.791  1.00  0.00     0.167 HD
HETATM   10  N   UNL     1     -39.864 -47.886  11.303  1.00  0.00    -0.336 N 
ATOM     11  HN  UNL     1     -39.205 -47.161  11.019  1.00  0.00     0.168 HD
HETATM   12  C   UNL     1     -39.522 -49.029  11.918  1.00  0.00     0.183 A 
ENDROOT
BRANCH   2  13
HETATM   13  N   UNL     1     -42.479 -51.038  12.574  1.00  0.00    -0.257 NA
HETATM   14  C   UNL     1     -43.637 -50.608  13.407  1.00  0.00     0.093 C 
HETATM   15  C   UNL     1     -44.854 -51.588  13.330  1.00  0.00     0.292 C 
HETATM   16  C   UNL     1     -43.039 -50.587  14.817  1.00  0.00     0.023 C 
HETATM   17  N   UNL     1     -44.583 -53.004  13.683  1.00  0.00     0.089 N 
HETATM   18  C   UNL     1     -43.774 -53.614  12.618  1.00  0.00     0.274 C 
HETATM   19  C   UNL     1     -42.281 -53.479  12.902  1.00  0.00     0.050 C 
HETATM   20  C   UNL     1     -41.789 -52.094  13.343  1.00  0.00     0.067 C 
HETATM   21  C   UNL     1     -42.064 -51.762  14.825  1.00  0.00     0.022 C 
BRANCH  17  22
HETATM   22  C   UNL     1     -45.791 -53.792  13.943  1.00  0.00     0.268 C 
HETATM   23  C   UNL     1     -45.554 -55.298  13.851  1.00  0.00     0.037 C 
ENDBRANCH  17  22
ENDBRANCH   2  13
BRANCH   3  24
HETATM   24  C   UNL     1     -41.354 -45.511  10.151  1.00  0.00     0.147 C 
BRANCH  24  25
HETATM   25  C   UNL     1     -41.360 -44.452  11.245  1.00  0.00     0.040 C 
HETATM   26  C   UNL     1     -41.898 -44.827  12.640  1.00  0.00     0.183 C 
HETATM   27  O   UNL     1     -42.812 -43.698  12.613  1.00  0.00    -0.389 OA
HETATM   28  C   UNL     1     -42.645 -43.597  11.177  1.00  0.00     0.183 C 
BRANCH  25  29
HETATM   29  C   UNL     1     -40.115 -43.569  11.278  1.00  0.00     0.179 C 
BRANCH  29  30
HETATM   30  O   UNL     1     -40.477 -42.195  11.227  1.00  0.00    -0.400 OA
HETATM   31  H   UNL     1     -41.324 -42.078  11.694  1.00  0.00     0.209 HD
ENDBRANCH  29  30
ENDBRANCH  25  29
ENDBRANCH  24  25
ENDBRANCH   3  24
TORSDOF 6
ENDMDL
MODEL 2
REMARK VINA RESULT:      -6.4      3.345      7.792
REMARK  6 active torsions:
REMARK  status: ('A' for Active; 'I' for Inactive)
REMARK    1  A    between atoms: C_2  and  N_4 
REMARK    2  A    between atoms: N_3  and  C_15 
REMARK    3  A    between atoms: C_14  and  C_15 
REMARK    4  A    between atoms: C_14  and  C_27 
REMARK    5  A    between atoms: N_16  and  C_28 
REMARK    6  A    between atoms: C_27  and  O_29 
ROOT
HETATM    1  C   UNL     1     -41.767 -49.025  12.550  1.00  0.00     0.117 A 
HETATM    2  C   UNL     1     -40.842 -48.034  12.106  1.00  0.00     0.115 A 
HETATM    3  N   UNL     1     -42.550 -51.072  12.725  1.00  0.00    -0.326 N 
HETATM    4  C   UNL     1     -41.528 -50.343  12.178  1.00  0.00     0.140 A 
HETATM    5  N   UNL     1     -42.916 -48.972  13.327  1.00  0.00    -0.346 N 
ATOM      6  HN  UNL     1     -43.340 -48.141  13.739  1.00  0.00     0.167 HD
HETATM    7  C   UNL     1     -43.343 -50.209  13.424  1.00  0.00     0.185 A 
HETATM    8  N   UNL     1     -39.806 -48.501  11.334  1.00  0.00    -0.341 N 
ATOM      9  HN  UNL     1     -39.111 -47.849  10.971  1.00  0.00     0.167 HD
HETATM   10  N   UNL     1     -40.517 -50.813  11.433  1.00  0.00    -0.336 N 
ATOM     11  HN  UNL     1     -40.386 -51.794  11.187  1.00  0.00     0.168 HD
HETATM   12  C   UNL     1     -39.701 -49.816  11.055  1.00  0.00     0.183 A 
ENDROOT
BRANCH   2  13
HETATM   13  N   UNL     1     -40.904 -46.644  12.359  1.00  0.00    -0.257 NA
HETATM   14  C   UNL     1     -42.177 -46.016  11.908  1.00  0.00     0.093 C 
HETATM   15  C   UNL     1     -42.578 -44.755  12.745  1.00  0.00     0.292 C 
HETATM   16  C   UNL     1     -41.860 -45.633  10.460  1.00  0.00     0.023 C 
HETATM   17  N   UNL     1     -41.572 -43.666  12.817  1.00  0.00     0.089 N 
HETATM   18  C   UNL     1     -40.450 -44.109  13.657  1.00  0.00     0.274 C 
HETATM   19  C   UNL     1     -39.357 -44.774  12.826  1.00  0.00     0.050 C 
HETATM   20  C   UNL     1     -39.817 -45.817  11.798  1.00  0.00     0.067 C 
HETATM   21  C   UNL     1     -40.392 -45.219  10.496  1.00  0.00     0.022 C 
BRANCH  17  22
HETATM   22  C   UNL     1     -42.114 -42.390  13.293  1.00  0.00     0.268 C 
HETATM   23  C   UNL     1     -43.317 -41.912  12.484  1.00  0.00     0.037 C 
ENDBRANCH  17  22
ENDBRANCH   2  13
BRANCH   3  24
HETATM   24  C   UNL     1     -42.836 -52.470  12.464  1.00  0.00     0.147 C 
BRANCH  24  25
HETATM   25  C   UNL     1     -42.173 -53.465  13.407  1.00  0.00     0.040 C 
HETATM   26  C   UNL     1     -43.064 -54.415  14.231  1.00  0.00     0.183 C 
HETATM   27  O   UNL     1     -42.411 -53.994  15.459  1.00  0.00    -0.389 OA
HETATM   28  C   UNL     1     -41.897 -52.819  14.783  1.00  0.00     0.183 C 
BRANCH  25  29
HETATM   29  C   UNL     1     -40.914 -54.124  12.848  1.00  0.00     0.179 C 
BRANCH  29  30
HETATM   30  O   UNL     1     -40.635 -53.639  11.542  1.00  0.00    -0.400 OA
HETATM   31  H   UNL     1     -39.693 -53.395  11.495  1.00  0.00     0.209 HD
ENDBRANCH  29  30
ENDBRANCH  25  29
ENDBRANCH  24  25
ENDBRANCH   3  24
TORSDOF 6
ENDMDL
MODEL 3
REMARK VINA RESULT:      -6.2      1.602      2.229
REMARK  6 active torsions:
REMARK  status: ('A' for Active; 'I' for Inactive)
REMARK    1  A    between atoms: C_2  and  N_4 
REMARK    2  A    between atoms: N_3  and  C_15 
REMARK    3  A    between atoms: C_14  and  C_15 
REMARK    4  A    between atoms: C_14  and  C_27 
REMARK    5  A    between atoms: N_16  and  C_28 
REMARK    6  A    between atoms: C_27  and  O_29 
ROOT
HETATM    1  C   UNL     1     -42.266 -49.185  12.891  1.00  0.00     0.117 A 
HETATM    2  C   UNL     1     -42.242 -50.576  12.575  1.00  0.00     0.115 A 
HETATM    3  N   UNL     1     -41.583 -47.102  12.729  1.00  0.00    -0.326 N 
HETATM    4  C   UNL     1     -41.348 -48.362  12.250  1.00  0.00     0.140 A 
HETATM    5  N   UNL     1     -43.053 -48.416  13.737  1.00  0.00    -0.346 N 
ATOM      6  HN  UNL     1     -43.807 -48.744  14.341  1.00  0.00     0.167 HD
HETATM    7  C   UNL     1     -42.629 -47.181  13.601  1.00  0.00     0.185 A 
HETATM    8  N   UNL     1     -41.287 -50.955  11.664  1.00  0.00    -0.341 N 
ATOM      9  HN  UNL     1     -41.202 -51.936  11.397  1.00  0.00     0.167 HD
HETATM   10  N   UNL     1     -40.417 -48.718  11.352  1.00  0.00    -0.336 N 
ATOM     11  HN  UNL     1     -39.764 -48.073  10.907  1.00  0.00     0.168 HD
HETATM   12  C   UNL     1     -40.461 -50.039  11.119  1.00  0.00     0.183 A 
ENDROOT
BRANCH   2  13
HETATM   13  N   UNL     1     -43.074 -51.582  13.120  1.00  0.00    -0.257 NA
HETATM   14  C   UNL     1     -43.001 -51.673  14.605  1.00  0.00     0.093 C 
HETATM   15  C   UNL     1     -44.318 -52.206  15.260  1.00  0.00     0.292 C 
HETATM   16  C   UNL     1     -41.847 -52.658  14.817  1.00  0.00     0.023 C 
HETATM   17  N   UNL     1     -44.807 -53.523  14.779  1.00  0.00     0.089 N 
HETATM   18  C   UNL     1     -45.318 -53.371  13.410  1.00  0.00     0.274 C 
HETATM   19  C   UNL     1     -44.229 -53.635  12.373  1.00  0.00     0.050 C 
HETATM   20  C   UNL     1     -42.874 -52.955  12.613  1.00  0.00     0.067 C 
HETATM   21  C   UNL     1     -41.989 -53.652  13.668  1.00  0.00     0.022 C 
BRANCH  17  22
HETATM   22  C   UNL     1     -45.813 -54.135  15.651  1.00  0.00     0.268 C 
HETATM   23  C   UNL     1     -45.653 -53.741  17.118  1.00  0.00     0.037 C 
ENDBRANCH  17  22
ENDBRANCH   2  13
BRANCH   3  24
HETATM   24  C   UNL     1     -40.760 -45.931  12.492  1.00  0.00     0.147 C 
BRANCH  24  25
HETATM   25  C   UNL     1     -41.024 -45.194  11.186  1.00  0.00     0.040 C 
HETATM   26  C   UNL     1     -39.881 -45.069  10.160  1.00  0.00     0.183 C 
HETATM   27  O   UNL     1     -40.056 -43.627  10.111  1.00  0.00    -0.389 OA
HETATM   28  C   UNL     1     -40.798 -43.675  11.355  1.00  0.00     0.183 C 
BRANCH  25  29
HETATM   29  C   UNL     1     -42.388 -45.479  10.563  1.00  0.00     0.179 C 
BRANCH  29  30
HETATM   30  O   UNL     1     -43.084 -44.266  10.310  1.00  0.00    -0.400 OA
HETATM   31  H   UNL     1     -42.834 -43.615  10.991  1.00  0.00     0.209 HD
ENDBRANCH  29  30
ENDBRANCH  25  29
ENDBRANCH  24  25
ENDBRANCH   3  24
TORSDOF 6
ENDMDL
MODEL 4
REMARK VINA RESULT:      -6.0      2.309      3.005
REMARK  6 active torsions:
REMARK  status: ('A' for Active; 'I' for Inactive)
REMARK    1  A    between atoms: C_2  and  N_4 
REMARK    2  A    between atoms: N_3  and  C_15 
REMARK    3  A    between atoms: C_14  and  C_15 
REMARK    4  A    between atoms: C_14  and  C_27 
REMARK    5  A    between atoms: N_16  and  C_28 
REMARK    6  A    between atoms: C_27  and  O_29 
ROOT
HETATM    1  C   UNL     1     -40.708 -49.414  13.301  1.00  0.00     0.117 A 
HETATM    2  C   UNL     1     -40.321 -50.762  13.037  1.00  0.00     0.115 A 
HETATM    3  N   UNL     1     -40.630 -47.237  13.015  1.00  0.00    -0.326 N 
HETATM    4  C   UNL     1     -40.085 -48.411  12.570  1.00  0.00     0.140 A 
HETATM    5  N   UNL     1     -41.630 -48.843  14.166  1.00  0.00    -0.346 N 
ATOM      6  HN  UNL     1     -42.233 -49.329  14.830  1.00  0.00     0.167 HD
HETATM    7  C   UNL     1     -41.568 -47.549  13.956  1.00  0.00     0.185 A 
HETATM    8  N   UNL     1     -39.348 -50.918  12.081  1.00  0.00    -0.341 N 
ATOM      9  HN  UNL     1     -39.013 -51.853  11.847  1.00  0.00     0.167 HD
HETATM   10  N   UNL     1     -39.141 -48.550  11.627  1.00  0.00    -0.336 N 
ATOM     11  HN  UNL     1     -38.714 -47.777  11.116  1.00  0.00     0.168 HD
HETATM   12  C   UNL     1     -38.834 -49.845  11.448  1.00  0.00     0.183 A 
ENDROOT
BRANCH   2  13
HETATM   13  N   UNL     1     -40.817 -51.925  13.674  1.00  0.00    -0.257 NA
HETATM   14  C   UNL     1     -40.614 -51.926  15.149  1.00  0.00     0.093 C 
HETATM   15  C   UNL     1     -41.693 -52.754  15.924  1.00  0.00     0.292 C 
HETATM   16  C   UNL     1     -39.229 -52.565  15.290  1.00  0.00     0.023 C 
HETATM   17  N   UNL     1     -41.851 -54.172  15.518  1.00  0.00     0.089 N 
HETATM   18  C   UNL     1     -42.483 -54.221  14.192  1.00  0.00     0.274 C 
HETATM   19  C   UNL     1     -41.442 -54.240  13.076  1.00  0.00     0.050 C 
HETATM   20  C   UNL     1     -40.300 -53.220  13.186  1.00  0.00     0.067 C 
HETATM   21  C   UNL     1     -39.188 -53.614  14.181  1.00  0.00     0.022 C 
BRANCH  17  22
HETATM   22  C   UNL     1     -42.594 -54.986  16.484  1.00  0.00     0.268 C 
HETATM   23  C   UNL     1     -41.975 -56.364  16.707  1.00  0.00     0.037 C 
ENDBRANCH  17  22
ENDBRANCH   2  13
BRANCH   3  24
HETATM   24  C   UNL     1     -40.172 -45.902  12.680  1.00  0.00     0.147 C 
BRANCH  24  25
HETATM   25  C   UNL     1     -40.668 -45.350  11.351  1.00  0.00     0.040 C 
HETATM   26  C   UNL     1     -39.679 -45.247  10.173  1.00  0.00     0.183 C 
HETATM   27  O   UNL     1     -40.005 -43.842   9.996  1.00  0.00    -0.389 OA
HETATM   28  C   UNL     1     -40.579 -43.807  11.327  1.00  0.00     0.183 C 
BRANCH  25  29
HETATM   29  C   UNL     1     -42.063 -45.823  10.949  1.00  0.00     0.179 C 
BRANCH  29  30
HETATM   30  O   UNL     1     -42.662 -44.903  10.047  1.00  0.00    -0.400 OA
HETATM   31  H   UNL     1     -43.430 -45.331   9.629  1.00  0.00     0.209 HD
ENDBRANCH  29  30
ENDBRANCH  25  29
ENDBRANCH  24  25
ENDBRANCH   3  24
TORSDOF 6
ENDMDL
MODEL 5
REMARK VINA RESULT:      -5.9      3.767      8.093
REMARK  6 active torsions:
REMARK  status: ('A' for Active; 'I' for Inactive)
REMARK    1  A    between atoms: C_2  and  N_4 
REMARK    2  A    between atoms: N_3  and  C_15 
REMARK    3  A    between atoms: C_14  and  C_15 
REMARK    4  A    between atoms: C_14  and  C_27 
REMARK    5  A    between atoms: N_16  and  C_28 
REMARK    6  A    between atoms: C_27  and  O_29 
ROOT
HETATM    1  C   UNL     1     -42.368 -50.473  12.634  1.00  0.00     0.117 A 
HETATM    2  C   UNL     1     -41.244 -49.620  12.418  1.00  0.00     0.115 A 
HETATM    3  N   UNL     1     -43.353 -52.410  12.964  1.00  0.00    -0.326 N 
HETATM    4  C   UNL     1     -42.126 -51.834  12.773  1.00  0.00     0.140 A 
HETATM    5  N   UNL     1     -43.730 -50.237  12.757  1.00  0.00    -0.346 N 
ATOM      6  HN  UNL     1     -44.205 -49.337  12.695  1.00  0.00     0.167 HD
HETATM    7  C   UNL     1     -44.281 -51.409  12.970  1.00  0.00     0.185 A 
HETATM    8  N   UNL     1     -40.028 -50.254  12.357  1.00  0.00    -0.341 N 
ATOM      9  HN  UNL     1     -39.181 -49.711  12.193  1.00  0.00     0.167 HD
HETATM   10  N   UNL     1     -40.943 -52.465  12.725  1.00  0.00    -0.336 N 
ATOM     11  HN  UNL     1     -40.818 -53.471  12.834  1.00  0.00     0.168 HD
HETATM   12  C   UNL     1     -39.946 -51.591  12.513  1.00  0.00     0.183 A 
ENDROOT
BRANCH   2  13
HETATM   13  N   UNL     1     -41.270 -48.217  12.239  1.00  0.00    -0.257 NA
HETATM   14  C   UNL     1     -39.946 -47.643  11.867  1.00  0.00     0.093 C 
HETATM   15  C   UNL     1     -40.055 -46.335  11.014  1.00  0.00     0.292 C 
HETATM   16  C   UNL     1     -39.318 -47.353  13.234  1.00  0.00     0.023 C 
HETATM   17  N   UNL     1     -40.846 -45.227  11.604  1.00  0.00     0.089 N 
HETATM   18  C   UNL     1     -42.269 -45.592  11.582  1.00  0.00     0.274 C 
HETATM   19  C   UNL     1     -42.687 -46.294  12.872  1.00  0.00     0.050 C 
HETATM   20  C   UNL     1     -41.763 -47.411  13.375  1.00  0.00     0.067 C 
HETATM   21  C   UNL     1     -40.495 -46.912  14.099  1.00  0.00     0.022 C 
BRANCH  17  22
HETATM   22  C   UNL     1     -40.625 -43.931  10.955  1.00  0.00     0.268 C 
HETATM   23  C   UNL     1     -40.524 -42.775  11.948  1.00  0.00     0.037 C 
ENDBRANCH  17  22
ENDBRANCH   2  13
BRANCH   3  24
HETATM   24  C   UNL     1     -43.636 -53.832  12.980  1.00  0.00     0.147 C 
BRANCH  24  25
HETATM   25  C   UNL     1     -44.317 -54.355  14.237  1.00  0.00     0.040 C 
HETATM   26  C   UNL     1     -44.198 -53.540  15.540  1.00  0.00     0.183 C 
HETATM   27  O   UNL     1     -43.710 -54.710  16.250  1.00  0.00    -0.389 OA
HETATM   28  C   UNL     1     -43.402 -55.349  14.986  1.00  0.00     0.183 C 
BRANCH  25  29
HETATM   29  C   UNL     1     -45.702 -54.953  14.004  1.00  0.00     0.179 C 
BRANCH  29  30
HETATM   30  O   UNL     1     -46.453 -54.957  15.211  1.00  0.00    -0.400 OA
HETATM   31  H   UNL     1     -47.230 -54.380  15.097  1.00  0.00     0.209 HD
ENDBRANCH  29  30
ENDBRANCH  25  29
ENDBRANCH  24  25
ENDBRANCH   3  24
TORSDOF 6
ENDMDL
MODEL 6
REMARK VINA RESULT:      -5.7      3.449      7.904
REMARK  6 active torsions:
REMARK  status: ('A' for Active; 'I' for Inactive)
REMARK    1  A    between atoms: C_2  and  N_4 
REMARK    2  A    between atoms: N_3  and  C_15 
REMARK    3  A    between atoms: C_14  and  C_15 
REMARK    4  A    between atoms: C_14  and  C_27 
REMARK    5  A    between atoms: N_16  and  C_28 
REMARK    6  A    between atoms: C_27  and  O_29 
ROOT
HETATM    1  C   UNL     1     -42.816 -49.879  13.996  1.00  0.00     0.117 A 
HETATM    2  C   UNL     1     -42.209 -49.533  12.752  1.00  0.00     0.115 A 
HETATM    3  N   UNL     1     -43.649 -51.274  15.476  1.00  0.00    -0.326 N 
HETATM    4  C   UNL     1     -43.074 -51.223  14.235  1.00  0.00     0.140 A 
HETATM    5  N   UNL     1     -43.220 -49.135  15.095  1.00  0.00    -0.346 N 
ATOM      6  HN  UNL     1     -43.160 -48.123  15.208  1.00  0.00     0.167 HD
HETATM    7  C   UNL     1     -43.694 -49.999  15.962  1.00  0.00     0.185 A 
HETATM    8  N   UNL     1     -41.957 -50.586  11.907  1.00  0.00    -0.341 N 
ATOM      9  HN  UNL     1     -41.536 -50.415  10.995  1.00  0.00     0.167 HD
HETATM   10  N   UNL     1     -42.826 -52.262  13.423  1.00  0.00    -0.336 N 
ATOM     11  HN  UNL     1     -43.035 -53.235  13.646  1.00  0.00     0.168 HD
HETATM   12  C   UNL     1     -42.263 -51.846  12.277  1.00  0.00     0.183 A 
ENDROOT
BRANCH   2  13
HETATM   13  N   UNL     1     -41.875 -48.232  12.306  1.00  0.00    -0.257 NA
HETATM   14  C   UNL     1     -43.045 -47.313  12.227  1.00  0.00     0.093 C 
HETATM   15  C   UNL     1     -42.668 -45.809  12.436  1.00  0.00     0.292 C 
HETATM   16  C   UNL     1     -43.559 -47.556  10.805  1.00  0.00     0.023 C 
HETATM   17  N   UNL     1     -41.634 -45.257  11.524  1.00  0.00     0.089 N 
HETATM   18  C   UNL     1     -40.330 -45.835  11.876  1.00  0.00     0.274 C 
HETATM   19  C   UNL     1     -40.048 -47.107  11.080  1.00  0.00     0.050 C 
HETATM   20  C   UNL     1     -41.187 -48.133  11.003  1.00  0.00     0.067 C 
HETATM   21  C   UNL     1     -42.293 -47.784   9.985  1.00  0.00     0.022 C 
BRANCH  17  22
HETATM   22  C   UNL     1     -41.575 -43.792  11.515  1.00  0.00     0.268 C 
HETATM   23  C   UNL     1     -40.207 -43.247  11.920  1.00  0.00     0.037 C 
ENDBRANCH  17  22
ENDBRANCH   2  13
BRANCH   3  24
HETATM   24  C   UNL     1     -44.259 -52.439  16.088  1.00  0.00     0.147 C 
BRANCH  24  25
HETATM   25  C   UNL     1     -45.676 -52.758  15.630  1.00  0.00     0.040 C 
HETATM   26  C   UNL     1     -46.483 -51.668  14.897  1.00  0.00     0.183 C 
HETATM   27  O   UNL     1     -47.580 -51.821  15.838  1.00  0.00    -0.389 OA
HETATM   28  C   UNL     1     -46.693 -52.498  16.763  1.00  0.00     0.183 C 
BRANCH  25  29
HETATM   29  C   UNL     1     -45.852 -54.158  15.046  1.00  0.00     0.179 C 
BRANCH  29  30
HETATM   30  O   UNL     1     -47.127 -54.284  14.431  1.00  0.00    -0.400 OA
HETATM   31  H   UNL     1     -47.095 -53.859  13.555  1.00  0.00     0.209 HD
ENDBRANCH  29  30
ENDBRANCH  25  29
ENDBRANCH  24  25
ENDBRANCH   3  24
TORSDOF 6
ENDMDL
MODEL 7
REMARK VINA RESULT:      -5.7      1.478      2.333
REMARK  6 active torsions:
REMARK  status: ('A' for Active; 'I' for Inactive)
REMARK    1  A    between atoms: C_2  and  N_4 
REMARK    2  A    between atoms: N_3  and  C_15 
REMARK    3  A    between atoms: C_14  and  C_15 
REMARK    4  A    between atoms: C_14  and  C_27 
REMARK    5  A    between atoms: N_16  and  C_28 
REMARK    6  A    between atoms: C_27  and  O_29 
ROOT
HETATM    1  C   UNL     1     -41.873 -49.001  12.043  1.00  0.00     0.117 A 
HETATM    2  C   UNL     1     -41.063 -49.981  12.690  1.00  0.00     0.115 A 
HETATM    3  N   UNL     1     -42.220 -47.187  10.851  1.00  0.00    -0.326 N 
HETATM    4  C   UNL     1     -41.226 -47.973  11.368  1.00  0.00     0.140 A 
HETATM    5  N   UNL     1     -43.245 -48.836  11.916  1.00  0.00    -0.346 N 
ATOM      6  HN  UNL     1     -43.974 -49.432  12.309  1.00  0.00     0.167 HD
HETATM    7  C   UNL     1     -43.413 -47.758  11.187  1.00  0.00     0.185 A 
HETATM    8  N   UNL     1     -39.707 -49.787  12.582  1.00  0.00    -0.341 N 
ATOM      9  HN  UNL     1     -39.065 -50.441  13.029  1.00  0.00     0.167 HD
HETATM   10  N   UNL     1     -39.904 -47.778  11.247  1.00  0.00    -0.336 N 
ATOM     11  HN  UNL     1     -39.477 -47.004  10.738  1.00  0.00     0.168 HD
HETATM   12  C   UNL     1     -39.221 -48.739  11.888  1.00  0.00     0.183 A 
ENDROOT
BRANCH   2  13
HETATM   13  N   UNL     1     -41.515 -51.094  13.437  1.00  0.00    -0.257 NA
HETATM   14  C   UNL     1     -40.602 -52.268  13.364  1.00  0.00     0.093 C 
HETATM   15  C   UNL     1     -40.660 -53.179  14.635  1.00  0.00     0.292 C 
HETATM   16  C   UNL     1     -41.124 -53.014  12.132  1.00  0.00     0.023 C 
HETATM   17  N   UNL     1     -41.997 -53.705  15.008  1.00  0.00     0.089 N 
HETATM   18  C   UNL     1     -42.818 -52.601  15.523  1.00  0.00     0.274 C 
HETATM   19  C   UNL     1     -43.625 -51.937  14.410  1.00  0.00     0.050 C 
HETATM   20  C   UNL     1     -42.865 -51.602  13.119  1.00  0.00     0.067 C 
HETATM   21  C   UNL     1     -42.635 -52.808  12.184  1.00  0.00     0.022 C 
BRANCH  17  22
HETATM   22  C   UNL     1     -41.951 -54.816  15.964  1.00  0.00     0.268 C 
HETATM   23  C   UNL     1     -40.540 -55.114  16.466  1.00  0.00     0.037 C 
ENDBRANCH  17  22
ENDBRANCH   2  13
BRANCH   3  24
HETATM   24  C   UNL     1     -42.044 -45.894  10.217  1.00  0.00     0.147 C 
BRANCH  24  25
HETATM   25  C   UNL     1     -41.745 -44.735  11.158  1.00  0.00     0.040 C 
HETATM   26  C   UNL     1     -42.275 -44.796  12.605  1.00  0.00     0.183 C 
HETATM   27  O   UNL     1     -42.905 -43.496  12.449  1.00  0.00    -0.389 OA
HETATM   28  C   UNL     1     -42.801 -43.617  11.008  1.00  0.00     0.183 C 
BRANCH  25  29
HETATM   29  C   UNL     1     -40.331 -44.172  11.040  1.00  0.00     0.179 C 
BRANCH  29  30
HETATM   30  O   UNL     1     -40.334 -42.970  10.282  1.00  0.00    -0.400 OA
HETATM   31  H   UNL     1     -39.667 -43.043   9.577  1.00  0.00     0.209 HD
ENDBRANCH  29  30
ENDBRANCH  25  29
ENDBRANCH  24  25
ENDBRANCH   3  24
TORSDOF 6
ENDMDL
MODEL 8
REMARK VINA RESULT:      -5.7      3.524      8.080
REMARK  6 active torsions:
REMARK  status: ('A' for Active; 'I' for Inactive)
REMARK    1  A    between atoms: C_2  and  N_4 
REMARK    2  A    between atoms: N_3  and  C_15 
REMARK    3  A    between atoms: C_14  and  C_15 
REMARK    4  A    between atoms: C_14  and  C_27 
REMARK    5  A    between atoms: N_16  and  C_28 
REMARK    6  A    between atoms: C_27  and  O_29 
ROOT
HETATM    1  C   UNL     1     -41.203 -46.860  12.014  1.00  0.00     0.117 A 
HETATM    2  C   UNL     1     -42.257 -45.919  11.811  1.00  0.00     0.115 A 
HETATM    3  N   UNL     1     -40.191 -48.792  11.745  1.00  0.00    -0.326 N 
HETATM    4  C   UNL     1     -41.313 -48.095  11.387  1.00  0.00     0.140 A 
HETATM    5  N   UNL     1     -40.015 -46.816  12.728  1.00  0.00    -0.346 N 
ATOM      6  HN  UNL     1     -39.665 -46.040  13.292  1.00  0.00     0.167 HD
HETATM    7  C   UNL     1     -39.432 -47.975  12.531  1.00  0.00     0.185 A 
HETATM    8  N   UNL     1     -43.288 -46.354  11.014  1.00  0.00    -0.341 N 
ATOM      9  HN  UNL     1     -44.082 -45.740  10.834  1.00  0.00     0.167 HD
HETATM   10  N   UNL     1     -42.309 -48.528  10.600  1.00  0.00    -0.336 N 
ATOM     11  HN  UNL     1     -42.342 -49.448  10.161  1.00  0.00     0.168 HD
HETATM   12  C   UNL     1     -43.256 -47.586  10.469  1.00  0.00     0.183 A 
ENDROOT
BRANCH   2  13
HETATM   13  N   UNL     1     -42.349 -44.620  12.363  1.00  0.00    -0.257 NA
HETATM   14  C   UNL     1     -42.447 -43.545  11.336  1.00  0.00     0.093 C 
HETATM   15  C   UNL     1     -43.222 -42.280  11.834  1.00  0.00     0.292 C 
HETATM   16  C   UNL     1     -40.977 -43.214  11.065  1.00  0.00     0.023 C 
HETATM   17  N   UNL     1     -42.710 -41.638  13.071  1.00  0.00     0.089 N 
HETATM   18  C   UNL     1     -43.002 -42.510  14.217  1.00  0.00     0.274 C 
HETATM   19  C   UNL     1     -41.853 -43.474  14.496  1.00  0.00     0.050 C 
HETATM   20  C   UNL     1     -41.268 -44.211  13.283  1.00  0.00     0.067 C 
HETATM   21  C   UNL     1     -40.303 -43.365  12.426  1.00  0.00     0.022 C 
BRANCH  17  22
HETATM   22  C   UNL     1     -43.227 -40.285  13.293  1.00  0.00     0.268 C 
HETATM   23  C   UNL     1     -44.304 -40.227  14.375  1.00  0.00     0.037 C 
ENDBRANCH  17  22
ENDBRANCH   2  13
BRANCH   3  24
HETATM   24  C   UNL     1     -39.938 -50.196  11.485  1.00  0.00     0.147 C 
BRANCH  24  25
HETATM   25  C   UNL     1     -40.544 -51.171  12.485  1.00  0.00     0.040 C 
HETATM   26  C   UNL     1     -41.102 -50.622  13.814  1.00  0.00     0.183 C 
HETATM   27  O   UNL     1     -40.286 -51.559  14.566  1.00  0.00    -0.389 OA
HETATM   28  C   UNL     1     -39.453 -51.772  13.399  1.00  0.00     0.183 C 
BRANCH  25  29
HETATM   29  C   UNL     1     -41.401 -52.269  11.860  1.00  0.00     0.179 C 
BRANCH  29  30
HETATM   30  O   UNL     1     -40.587 -53.349  11.423  1.00  0.00    -0.400 OA
HETATM   31  H   UNL     1     -40.111 -53.711  12.191  1.00  0.00     0.209 HD
ENDBRANCH  29  30
ENDBRANCH  25  29
ENDBRANCH  24  25
ENDBRANCH   3  24
TORSDOF 6
ENDMDL
MODEL 9
REMARK VINA RESULT:      -5.6      1.606      2.254
REMARK  6 active torsions:
REMARK  status: ('A' for Active; 'I' for Inactive)
REMARK    1  A    between atoms: C_2  and  N_4 
REMARK    2  A    between atoms: N_3  and  C_15 
REMARK    3  A    between atoms: C_14  and  C_15 
REMARK    4  A    between atoms: C_14  and  C_27 
REMARK    5  A    between atoms: N_16  and  C_28 
REMARK    6  A    between atoms: C_27  and  O_29 
ROOT
HETATM    1  C   UNL     1     -40.987 -48.908  13.281  1.00  0.00     0.117 A 
HETATM    2  C   UNL     1     -40.938 -50.292  12.940  1.00  0.00     0.115 A 
HETATM    3  N   UNL     1     -40.427 -46.793  13.070  1.00  0.00    -0.326 N 
HETATM    4  C   UNL     1     -40.196 -48.035  12.543  1.00  0.00     0.140 A 
HETATM    5  N   UNL     1     -41.696 -48.188  14.232  1.00  0.00    -0.346 N 
ATOM      6  HN  UNL     1     -42.352 -48.558  14.919  1.00  0.00     0.167 HD
HETATM    7  C   UNL     1     -41.351 -46.932  14.065  1.00  0.00     0.185 A 
HETATM    8  N   UNL     1     -40.089 -50.615  11.910  1.00  0.00    -0.341 N 
ATOM      9  HN  UNL     1     -39.993 -51.587  11.618  1.00  0.00     0.167 HD
HETATM   10  N   UNL     1     -39.370 -48.335  11.530  1.00  0.00    -0.336 N 
ATOM     11  HN  UNL     1     -38.809 -47.654  11.018  1.00  0.00     0.168 HD
HETATM   12  C   UNL     1     -39.382 -49.654  11.282  1.00  0.00     0.183 A 
ENDROOT
BRANCH   2  13
HETATM   13  N   UNL     1     -41.648 -51.343  13.567  1.00  0.00    -0.257 NA
HETATM   14  C   UNL     1     -42.830 -51.808  12.789  1.00  0.00     0.093 C 
HETATM   15  C   UNL     1     -43.186 -53.311  13.040  1.00  0.00     0.292 C 
HETATM   16  C   UNL     1     -43.943 -50.889  13.303  1.00  0.00     0.023 C 
HETATM   17  N   UNL     1     -43.427 -53.704  14.450  1.00  0.00     0.089 N 
HETATM   18  C   UNL     1     -42.149 -53.683  15.176  1.00  0.00     0.274 C 
HETATM   19  C   UNL     1     -41.894 -52.324  15.822  1.00  0.00     0.050 C 
HETATM   20  C   UNL     1     -42.132 -51.091  14.940  1.00  0.00     0.067 C 
HETATM   21  C   UNL     1     -43.615 -50.697  14.781  1.00  0.00     0.022 C 
BRANCH  17  22
HETATM   22  C   UNL     1     -44.095 -55.001  14.598  1.00  0.00     0.268 C 
HETATM   23  C   UNL     1     -45.391 -55.100  13.797  1.00  0.00     0.037 C 
ENDBRANCH  17  22
ENDBRANCH   2  13
BRANCH   3  24
HETATM   24  C   UNL     1     -39.696 -45.581  12.752  1.00  0.00     0.147 C 
BRANCH  24  25
HETATM   25  C   UNL     1     -40.281 -44.734  11.630  1.00  0.00     0.040 C 
HETATM   26  C   UNL     1     -41.551 -45.229  10.910  1.00  0.00     0.183 C 
HETATM   27  O   UNL     1     -40.894 -45.099   9.621  1.00  0.00    -0.389 OA
HETATM   28  C   UNL     1     -39.604 -45.063  10.281  1.00  0.00     0.183 C 
BRANCH  25  29
HETATM   29  C   UNL     1     -40.266 -43.231  11.898  1.00  0.00     0.179 C 
BRANCH  29  30
HETATM   30  O   UNL     1     -40.620 -42.512  10.725  1.00  0.00    -0.400 OA
HETATM   31  H   UNL     1     -41.589 -42.406  10.704  1.00  0.00     0.209 HD
ENDBRANCH  29  30
ENDBRANCH  25  29
ENDBRANCH  24  25
ENDBRANCH   3  24
TORSDOF 6
ENDMDL
