MODEL 1
REMARK VINA RESULT:      -5.4      0.000      0.000
REMARK  4 active torsions:
REMARK  status: ('A' for Active; 'I' for Inactive)
REMARK    1  A    between atoms: C_9  and  C_10 
REMARK    2  A    between atoms: C_10  and  C_11 
REMARK       I    between atoms: C_11  and  N_13 
REMARK    3  A    between atoms: N_13  and  C_14 
REMARK    4  A    between atoms: C_14  and  C_15 
ROOT
HETATM    1  C   UNL     1     -46.221 -52.728  13.410  1.00  0.00     0.222 C 
HETATM    2  O   UNL     1     -45.996 -52.765  12.204  1.00  0.00    -0.273 OA
HETATM    3  N   UNL     1     -45.940 -53.787  14.255  1.00  0.00    -0.360 N 
HETATM    4  H   UNL     1     -46.143 -53.696  15.242  1.00  0.00     0.162 HD
ENDROOT
BRANCH   1   5
HETATM    5  C   UNL     1     -46.787 -51.494  14.092  1.00  0.00     0.145 C 
BRANCH   5   6
HETATM    6  C   UNL     1     -46.083 -51.061  15.344  1.00  0.00    -0.002 A 
HETATM    7  C   UNL     1     -44.710 -50.735  15.553  1.00  0.00     0.030 A 
HETATM    8  C   UNL     1     -43.584 -50.712  14.585  1.00  0.00     0.070 C 
HETATM    9  N   UNL     1     -44.464 -50.432  16.832  1.00  0.00    -0.303 N 
HETATM   10  N   UNL     1     -45.638 -50.597  17.454  1.00  0.00    -0.300 N 
ATOM     11  HN  UNL     1     -43.577 -50.140  17.243  1.00  0.00     0.186 HD
HETATM   12  C   UNL     1     -45.702 -50.391  18.883  1.00  0.00     0.177 C 
HETATM   13  C   UNL     1     -46.650 -50.975  16.611  1.00  0.00     0.033 A 
HETATM   14  C   UNL     1     -48.039 -51.249  17.066  1.00  0.00     0.070 C 
ENDBRANCH   5   6
ENDBRANCH   1   5
BRANCH   3  15
HETATM   15  C   UNL     1     -45.261 -54.986  13.789  1.00  0.00     0.127 C 
BRANCH  15  16
HETATM   16  C   UNL     1     -43.772 -54.991  14.171  1.00  0.00     0.003 C 
HETATM   17  C   UNL     1     -42.922 -54.121  13.233  1.00  0.00     0.006 C 
HETATM   18  C   UNL     1     -41.437 -54.264  13.573  1.00  0.00     0.000 C 
HETATM   19  C   UNL     1     -41.142 -53.938  15.036  1.00  0.00     0.000 C 
HETATM   20  C   UNL     1     -42.078 -54.657  16.005  1.00  0.00     0.000 C 
HETATM   21  C   UNL     1     -43.549 -54.513  15.615  1.00  0.00     0.006 C 
ENDBRANCH  15  16
ENDBRANCH   3  15
TORSDOF 4
ENDMDL
MODEL 2
REMARK VINA RESULT:      -5.4      5.059      6.617
REMARK  4 active torsions:
REMARK  status: ('A' for Active; 'I' for Inactive)
REMARK    1  A    between atoms: C_9  and  C_10 
REMARK    2  A    between atoms: C_10  and  C_11 
REMARK       I    between atoms: C_11  and  N_13 
REMARK    3  A    between atoms: N_13  and  C_14 
REMARK    4  A    between atoms: C_14  and  C_15 
ROOT
HETATM    1  C   UNL     1     -41.558 -50.044  11.815  1.00  0.00     0.222 C 
HETATM    2  O   UNL     1     -40.411 -50.061  11.379  1.00  0.00    -0.273 OA
HETATM    3  N   UNL     1     -42.248 -51.196  12.145  1.00  0.00    -0.360 N 
HETATM    4  H   UNL     1     -43.190 -51.119  12.506  1.00  0.00     0.162 HD
ENDROOT
BRANCH   1   5
HETATM    5  C   UNL     1     -42.306 -48.749  12.078  1.00  0.00     0.145 C 
BRANCH   5   6
HETATM    6  C   UNL     1     -41.850 -47.559  11.287  1.00  0.00    -0.002 A 
HETATM    7  C   UNL     1     -42.325 -47.056  10.040  1.00  0.00     0.030 A 
HETATM    8  C   UNL     1     -43.424 -47.554   9.174  1.00  0.00     0.070 C 
HETATM    9  N   UNL     1     -41.625 -45.989   9.639  1.00  0.00    -0.303 N 
HETATM   10  N   UNL     1     -40.687 -45.824  10.579  1.00  0.00    -0.300 N 
ATOM     11  HN  UNL     1     -41.773 -45.426   8.801  1.00  0.00     0.186 HD
HETATM   12  C   UNL     1     -39.718 -44.764  10.415  1.00  0.00     0.177 C 
HETATM   13  C   UNL     1     -40.770 -46.738  11.596  1.00  0.00     0.033 A 
HETATM   14  C   UNL     1     -39.824 -46.782  12.742  1.00  0.00     0.070 C 
ENDBRANCH   5   6
ENDBRANCH   1   5
BRANCH   3  15
HETATM   15  C   UNL     1     -41.625 -52.511  12.094  1.00  0.00     0.127 C 
BRANCH  15  16
HETATM   16  C   UNL     1     -42.500 -53.590  12.753  1.00  0.00     0.003 C 
HETATM   17  C   UNL     1     -42.162 -53.794  14.237  1.00  0.00     0.006 C 
HETATM   18  C   UNL     1     -42.964 -54.963  14.811  1.00  0.00     0.000 C 
HETATM   19  C   UNL     1     -44.468 -54.789  14.612  1.00  0.00     0.000 C 
HETATM   20  C   UNL     1     -44.839 -54.418  13.178  1.00  0.00     0.000 C 
HETATM   21  C   UNL     1     -43.997 -53.265  12.633  1.00  0.00     0.006 C 
ENDBRANCH  15  16
ENDBRANCH   3  15
TORSDOF 4
ENDMDL
MODEL 3
REMARK VINA RESULT:      -5.3      2.091      4.908
REMARK  4 active torsions:
REMARK  status: ('A' for Active; 'I' for Inactive)
REMARK    1  A    between atoms: C_9  and  C_10 
REMARK    2  A    between atoms: C_10  and  C_11 
REMARK       I    between atoms: C_11  and  N_13 
REMARK    3  A    between atoms: N_13  and  C_14 
REMARK    4  A    between atoms: C_14  and  C_15 
ROOT
HETATM    1  C   UNL     1     -44.499 -53.709  12.720  1.00  0.00     0.222 C 
HETATM    2  O   UNL     1     -45.333 -54.572  12.973  1.00  0.00    -0.273 OA
HETATM    3  N   UNL     1     -44.826 -52.372  12.582  1.00  0.00    -0.360 N 
HETATM    4  H   UNL     1     -44.093 -51.705  12.377  1.00  0.00     0.162 HD
ENDROOT
BRANCH   1   5
HETATM    5  C   UNL     1     -43.019 -54.026  12.582  1.00  0.00     0.145 C 
BRANCH   5   6
HETATM    6  C   UNL     1     -42.141 -53.539  13.696  1.00  0.00    -0.002 A 
HETATM    7  C   UNL     1     -41.199 -52.468  13.712  1.00  0.00     0.030 A 
HETATM    8  C   UNL     1     -40.829 -51.514  12.635  1.00  0.00     0.070 C 
HETATM    9  N   UNL     1     -40.579 -52.374  14.894  1.00  0.00    -0.303 N 
HETATM   10  N   UNL     1     -41.073 -53.385  15.619  1.00  0.00    -0.300 N 
ATOM     11  HN  UNL     1     -39.884 -51.685  15.180  1.00  0.00     0.186 HD
HETATM   12  C   UNL     1     -40.564 -53.596  16.955  1.00  0.00     0.177 C 
HETATM   13  C   UNL     1     -42.017 -54.122  14.953  1.00  0.00     0.033 A 
HETATM   14  C   UNL     1     -42.691 -55.314  15.533  1.00  0.00     0.070 C 
ENDBRANCH   5   6
ENDBRANCH   1   5
BRANCH   3  15
HETATM   15  C   UNL     1     -46.172 -51.878  12.828  1.00  0.00     0.127 C 
BRANCH  15  16
HETATM   16  C   UNL     1     -46.323 -51.297  14.243  1.00  0.00     0.003 C 
HETATM   17  C   UNL     1     -47.184 -52.185  15.154  1.00  0.00     0.006 C 
HETATM   18  C   UNL     1     -47.412 -51.502  16.504  1.00  0.00     0.000 C 
HETATM   19  C   UNL     1     -46.102 -51.122  17.192  1.00  0.00     0.000 C 
HETATM   20  C   UNL     1     -45.140 -50.379  16.268  1.00  0.00     0.000 C 
HETATM   21  C   UNL     1     -44.960 -51.078  14.921  1.00  0.00     0.006 C 
ENDBRANCH  15  16
ENDBRANCH   3  15
TORSDOF 4
ENDMDL
MODEL 4
REMARK VINA RESULT:      -5.3      4.129      6.000
REMARK  4 active torsions:
REMARK  status: ('A' for Active; 'I' for Inactive)
REMARK    1  A    between atoms: C_9  and  C_10 
REMARK    2  A    between atoms: C_10  and  C_11 
REMARK       I    between atoms: C_11  and  N_13 
REMARK    3  A    between atoms: N_13  and  C_14 
REMARK    4  A    between atoms: C_14  and  C_15 
ROOT
HETATM    1  C   UNL     1     -41.235 -51.892  11.947  1.00  0.00     0.222 C 
HETATM    2  O   UNL     1     -40.451 -52.817  12.138  1.00  0.00    -0.273 OA
HETATM    3  N   UNL     1     -42.606 -52.042  12.049  1.00  0.00    -0.360 N 
HETATM    4  H   UNL     1     -43.202 -51.240  11.885  1.00  0.00     0.162 HD
ENDROOT
BRANCH   1   5
HETATM    5  C   UNL     1     -40.764 -50.483  11.628  1.00  0.00     0.145 C 
BRANCH   5   6
HETATM    6  C   UNL     1     -39.783 -49.888  12.594  1.00  0.00    -0.002 A 
HETATM    7  C   UNL     1     -38.378 -49.684  12.458  1.00  0.00     0.030 A 
HETATM    8  C   UNL     1     -37.484 -49.984  11.310  1.00  0.00     0.070 C 
HETATM    9  N   UNL     1     -37.846 -49.159  13.567  1.00  0.00    -0.303 N 
HETATM   10  N   UNL     1     -38.870 -49.062  14.423  1.00  0.00    -0.300 N 
ATOM     11  HN  UNL     1     -36.874 -48.892  13.725  1.00  0.00     0.186 HD
HETATM   12  C   UNL     1     -38.615 -48.567  15.757  1.00  0.00     0.177 C 
HETATM   13  C   UNL     1     -40.061 -49.485  13.896  1.00  0.00     0.033 A 
HETATM   14  C   UNL     1     -41.338 -49.504  14.659  1.00  0.00     0.070 C 
ENDBRANCH   5   6
ENDBRANCH   1   5
BRANCH   3  15
HETATM   15  C   UNL     1     -43.215 -53.287  12.491  1.00  0.00     0.127 C 
BRANCH  15  16
HETATM   16  C   UNL     1     -44.651 -53.079  12.999  1.00  0.00     0.003 C 
HETATM   17  C   UNL     1     -44.954 -53.905  14.258  1.00  0.00     0.006 C 
HETATM   18  C   UNL     1     -46.427 -53.765  14.646  1.00  0.00     0.000 C 
HETATM   19  C   UNL     1     -46.842 -52.308  14.836  1.00  0.00     0.000 C 
HETATM   20  C   UNL     1     -46.412 -51.411  13.678  1.00  0.00     0.000 C 
HETATM   21  C   UNL     1     -44.942 -51.600  13.303  1.00  0.00     0.006 C 
ENDBRANCH  15  16
ENDBRANCH   3  15
TORSDOF 4
ENDMDL
MODEL 5
REMARK VINA RESULT:      -5.3      3.947      6.154
REMARK  4 active torsions:
REMARK  status: ('A' for Active; 'I' for Inactive)
REMARK    1  A    between atoms: C_9  and  C_10 
REMARK    2  A    between atoms: C_10  and  C_11 
REMARK       I    between atoms: C_11  and  N_13 
REMARK    3  A    between atoms: N_13  and  C_14 
REMARK    4  A    between atoms: C_14  and  C_15 
ROOT
HETATM    1  C   UNL     1     -41.300 -52.167  11.939  1.00  0.00     0.222 C 
HETATM    2  O   UNL     1     -40.543 -53.075  12.268  1.00  0.00    -0.273 OA
HETATM    3  N   UNL     1     -42.676 -52.306  11.938  1.00  0.00    -0.360 N 
HETATM    4  H   UNL     1     -43.250 -51.519  11.662  1.00  0.00     0.162 HD
ENDROOT
BRANCH   1   5
HETATM    5  C   UNL     1     -40.793 -50.789  11.549  1.00  0.00     0.145 C 
BRANCH   5   6
HETATM    6  C   UNL     1     -40.150 -49.996  12.647  1.00  0.00    -0.002 A 
HETATM    7  C   UNL     1     -40.737 -49.381  13.792  1.00  0.00     0.030 A 
HETATM    8  C   UNL     1     -42.153 -49.366  14.239  1.00  0.00     0.070 C 
HETATM    9  N   UNL     1     -39.827 -48.723  14.520  1.00  0.00    -0.303 N 
HETATM   10  N   UNL     1     -38.681 -48.867  13.845  1.00  0.00    -0.300 N 
ATOM     11  HN  UNL     1     -39.975 -48.222  15.396  1.00  0.00     0.186 HD
HETATM   12  C   UNL     1     -37.491 -48.221  14.349  1.00  0.00     0.177 C 
HETATM   13  C   UNL     1     -38.811 -49.623  12.709  1.00  0.00     0.033 A 
HETATM   14  C   UNL     1     -37.689 -49.902  11.774  1.00  0.00     0.070 C 
ENDBRANCH   5   6
ENDBRANCH   1   5
BRANCH   3  15
HETATM   15  C   UNL     1     -43.331 -53.511  12.426  1.00  0.00     0.127 C 
BRANCH  15  16
HETATM   16  C   UNL     1     -44.743 -53.224  12.960  1.00  0.00     0.003 C 
HETATM   17  C   UNL     1     -45.052 -54.003  14.248  1.00  0.00     0.006 C 
HETATM   18  C   UNL     1     -46.508 -53.786  14.666  1.00  0.00     0.000 C 
HETATM   19  C   UNL     1     -46.852 -52.307  14.826  1.00  0.00     0.000 C 
HETATM   20  C   UNL     1     -46.410 -51.461  13.634  1.00  0.00     0.000 C 
HETATM   21  C   UNL     1     -44.960 -51.727  13.232  1.00  0.00     0.006 C 
ENDBRANCH  15  16
ENDBRANCH   3  15
TORSDOF 4
ENDMDL
MODEL 6
REMARK VINA RESULT:      -5.3      4.166      6.187
REMARK  4 active torsions:
REMARK  status: ('A' for Active; 'I' for Inactive)
REMARK    1  A    between atoms: C_9  and  C_10 
REMARK    2  A    between atoms: C_10  and  C_11 
REMARK       I    between atoms: C_11  and  N_13 
REMARK    3  A    between atoms: N_13  and  C_14 
REMARK    4  A    between atoms: C_14  and  C_15 
ROOT
HETATM    1  C   UNL     1     -40.996 -52.324  12.858  1.00  0.00     0.222 C 
HETATM    2  O   UNL     1     -40.488 -53.174  12.133  1.00  0.00    -0.273 OA
HETATM    3  N   UNL     1     -42.323 -52.369  13.246  1.00  0.00    -0.360 N 
HETATM    4  H   UNL     1     -42.684 -51.642  13.850  1.00  0.00     0.162 HD
ENDROOT
BRANCH   1   5
HETATM    5  C   UNL     1     -40.196 -51.169  13.437  1.00  0.00     0.145 C 
BRANCH   5   6
HETATM    6  C   UNL     1     -40.049 -49.969  12.551  1.00  0.00    -0.002 A 
HETATM    7  C   UNL     1     -38.925 -49.528  11.791  1.00  0.00     0.030 A 
HETATM    8  C   UNL     1     -37.581 -50.143  11.644  1.00  0.00     0.070 C 
HETATM    9  N   UNL     1     -39.178 -48.379  11.156  1.00  0.00    -0.303 N 
HETATM   10  N   UNL     1     -40.423 -48.053  11.525  1.00  0.00    -0.300 N 
ATOM     11  HN  UNL     1     -38.559 -47.864  10.529  1.00  0.00     0.186 HD
HETATM   12  C   UNL     1     -40.989 -46.814  11.041  1.00  0.00     0.177 C 
HETATM   13  C   UNL     1     -40.999 -48.970  12.363  1.00  0.00     0.033 A 
HETATM   14  C   UNL     1     -42.363 -48.819  12.935  1.00  0.00     0.070 C 
ENDBRANCH   5   6
ENDBRANCH   1   5
BRANCH   3  15
HETATM   15  C   UNL     1     -43.190 -53.486  12.901  1.00  0.00     0.127 C 
BRANCH  15  16
HETATM   16  C   UNL     1     -44.655 -53.218  13.281  1.00  0.00     0.003 C 
HETATM   17  C   UNL     1     -45.099 -54.023  14.512  1.00  0.00     0.006 C 
HETATM   18  C   UNL     1     -46.594 -53.823  14.769  1.00  0.00     0.000 C 
HETATM   19  C   UNL     1     -46.966 -52.349  14.917  1.00  0.00     0.000 C 
HETATM   20  C   UNL     1     -46.401 -51.478  13.798  1.00  0.00     0.000 C 
HETATM   21  C   UNL     1     -44.912 -51.727  13.554  1.00  0.00     0.006 C 
ENDBRANCH  15  16
ENDBRANCH   3  15
TORSDOF 4
ENDMDL
MODEL 7
REMARK VINA RESULT:      -5.2      4.455      6.354
REMARK  4 active torsions:
REMARK  status: ('A' for Active; 'I' for Inactive)
REMARK    1  A    between atoms: C_9  and  C_10 
REMARK    2  A    between atoms: C_10  and  C_11 
REMARK       I    between atoms: C_11  and  N_13 
REMARK    3  A    between atoms: N_13  and  C_14 
REMARK    4  A    between atoms: C_14  and  C_15 
ROOT
HETATM    1  C   UNL     1     -41.117 -51.340  12.285  1.00  0.00     0.222 C 
HETATM    2  O   UNL     1     -40.899 -51.295  13.492  1.00  0.00    -0.273 OA
HETATM    3  N   UNL     1     -42.096 -52.148  11.734  1.00  0.00    -0.360 N 
HETATM    4  H   UNL     1     -42.234 -52.139  10.731  1.00  0.00     0.162 HD
ENDROOT
BRANCH   1   5
HETATM    5  C   UNL     1     -40.363 -50.474  11.291  1.00  0.00     0.145 C 
BRANCH   5   6
HETATM    6  C   UNL     1     -40.237 -49.024  11.652  1.00  0.00    -0.002 A 
HETATM    7  C   UNL     1     -39.270 -48.368  12.469  1.00  0.00     0.030 A 
HETATM    8  C   UNL     1     -38.094 -48.930  13.182  1.00  0.00     0.070 C 
HETATM    9  N   UNL     1     -39.525 -47.060  12.584  1.00  0.00    -0.303 N 
HETATM   10  N   UNL     1     -40.656 -46.872  11.894  1.00  0.00    -0.300 N 
ATOM     11  HN  UNL     1     -38.978 -46.360  13.086  1.00  0.00     0.186 HD
HETATM   12  C   UNL     1     -41.238 -45.550  11.860  1.00  0.00     0.177 C 
HETATM   13  C   UNL     1     -41.134 -48.016  11.311  1.00  0.00     0.033 A 
HETATM   14  C   UNL     1     -42.391 -48.073  10.518  1.00  0.00     0.070 C 
ENDBRANCH   5   6
ENDBRANCH   1   5
BRANCH   3  15
HETATM   15  C   UNL     1     -43.007 -52.928  12.557  1.00  0.00     0.127 C 
BRANCH  15  16
HETATM   16  C   UNL     1     -44.185 -52.086  13.071  1.00  0.00     0.003 C 
HETATM   17  C   UNL     1     -45.538 -52.582  12.538  1.00  0.00     0.006 C 
HETATM   18  C   UNL     1     -46.660 -51.637  12.970  1.00  0.00     0.000 C 
HETATM   19  C   UNL     1     -46.708 -51.444  14.484  1.00  0.00     0.000 C 
HETATM   20  C   UNL     1     -45.344 -51.112  15.084  1.00  0.00     0.000 C 
HETATM   21  C   UNL     1     -44.245 -52.062  14.607  1.00  0.00     0.006 C 
ENDBRANCH  15  16
ENDBRANCH   3  15
TORSDOF 4
ENDMDL
MODEL 8
REMARK VINA RESULT:      -5.2      2.509      3.621
REMARK  4 active torsions:
REMARK  status: ('A' for Active; 'I' for Inactive)
REMARK    1  A    between atoms: C_9  and  C_10 
REMARK    2  A    between atoms: C_10  and  C_11 
REMARK       I    between atoms: C_11  and  N_13 
REMARK    3  A    between atoms: N_13  and  C_14 
REMARK    4  A    between atoms: C_14  and  C_15 
ROOT
HETATM    1  C   UNL     1     -44.019 -54.898  14.325  1.00  0.00     0.222 C 
HETATM    2  O   UNL     1     -43.562 -55.721  15.112  1.00  0.00    -0.273 OA
HETATM    3  N   UNL     1     -43.216 -54.095  13.534  1.00  0.00    -0.360 N 
HETATM    4  H   UNL     1     -43.650 -53.438  12.899  1.00  0.00     0.162 HD
ENDROOT
BRANCH   1   5
HETATM    5  C   UNL     1     -45.513 -54.720  14.112  1.00  0.00     0.145 C 
BRANCH   5   6
HETATM    6  C   UNL     1     -46.095 -53.432  14.613  1.00  0.00    -0.002 A 
HETATM    7  C   UNL     1     -46.511 -52.276  13.889  1.00  0.00     0.030 A 
HETATM    8  C   UNL     1     -46.507 -52.023  12.425  1.00  0.00     0.070 C 
HETATM    9  N   UNL     1     -46.942 -51.310  14.706  1.00  0.00    -0.303 N 
HETATM   10  N   UNL     1     -46.771 -51.804  15.938  1.00  0.00    -0.300 N 
ATOM     11  HN  UNL     1     -47.317 -50.397  14.448  1.00  0.00     0.186 HD
HETATM   12  C   UNL     1     -47.101 -50.972  17.073  1.00  0.00     0.177 C 
HETATM   13  C   UNL     1     -46.264 -53.077  15.947  1.00  0.00     0.033 A 
HETATM   14  C   UNL     1     -45.957 -53.832  17.191  1.00  0.00     0.070 C 
ENDBRANCH   5   6
ENDBRANCH   1   5
BRANCH   3  15
HETATM   15  C   UNL     1     -41.768 -54.241  13.506  1.00  0.00     0.127 C 
BRANCH  15  16
HETATM   16  C   UNL     1     -41.053 -52.883  13.434  1.00  0.00     0.003 C 
HETATM   17  C   UNL     1     -39.582 -52.970  13.867  1.00  0.00     0.006 C 
HETATM   18  C   UNL     1     -38.953 -51.576  13.903  1.00  0.00     0.000 C 
HETATM   19  C   UNL     1     -39.086 -50.844  12.569  1.00  0.00     0.000 C 
HETATM   20  C   UNL     1     -40.508 -50.875  12.014  1.00  0.00     0.000 C 
HETATM   21  C   UNL     1     -41.110 -52.280  12.020  1.00  0.00     0.006 C 
ENDBRANCH  15  16
ENDBRANCH   3  15
TORSDOF 4
ENDMDL
MODEL 9
REMARK VINA RESULT:      -5.0      3.885      6.486
REMARK  4 active torsions:
REMARK  status: ('A' for Active; 'I' for Inactive)
REMARK    1  A    between atoms: C_9  and  C_10 
REMARK    2  A    between atoms: C_10  and  C_11 
REMARK       I    between atoms: C_11  and  N_13 
REMARK    3  A    between atoms: N_13  and  C_14 
REMARK    4  A    between atoms: C_14  and  C_15 
ROOT
HETATM    1  C   UNL     1     -40.366 -52.310  12.423  1.00  0.00     0.222 C 
HETATM    2  O   UNL     1     -39.395 -52.133  13.152  1.00  0.00    -0.273 OA
HETATM    3  N   UNL     1     -40.819 -51.350  11.537  1.00  0.00    -0.360 N 
HETATM    4  H   UNL     1     -41.622 -51.555  10.957  1.00  0.00     0.162 HD
ENDROOT
BRANCH   1   5
HETATM    5  C   UNL     1     -41.130 -53.623  12.394  1.00  0.00     0.145 C 
BRANCH   5   6
HETATM    6  C   UNL     1     -42.062 -53.860  13.544  1.00  0.00    -0.002 A 
HETATM    7  C   UNL     1     -41.789 -54.355  14.854  1.00  0.00     0.030 A 
HETATM    8  C   UNL     1     -40.495 -54.760  15.463  1.00  0.00     0.070 C 
HETATM    9  N   UNL     1     -42.904 -54.463  15.584  1.00  0.00    -0.303 N 
HETATM   10  N   UNL     1     -43.889 -54.088  14.760  1.00  0.00    -0.300 N 
ATOM     11  HN  UNL     1     -42.986 -54.764  16.556  1.00  0.00     0.186 HD
HETATM   12  C   UNL     1     -45.252 -54.139  15.237  1.00  0.00     0.177 C 
HETATM   13  C   UNL     1     -43.446 -53.715  13.518  1.00  0.00     0.033 A 
HETATM   14  C   UNL     1     -44.349 -53.288  12.416  1.00  0.00     0.070 C 
ENDBRANCH   5   6
ENDBRANCH   1   5
BRANCH   3  15
HETATM   15  C   UNL     1     -40.112 -50.094  11.332  1.00  0.00     0.127 C 
BRANCH  15  16
HETATM   16  C   UNL     1     -41.075 -48.928  11.056  1.00  0.00     0.003 C 
HETATM   17  C   UNL     1     -42.356 -49.013  11.900  1.00  0.00     0.006 C 
HETATM   18  C   UNL     1     -43.335 -47.909  11.495  1.00  0.00     0.000 C 
HETATM   19  C   UNL     1     -42.712 -46.518  11.587  1.00  0.00     0.000 C 
HETATM   20  C   UNL     1     -41.350 -46.430  10.901  1.00  0.00     0.000 C 
HETATM   21  C   UNL     1     -40.412 -47.565  11.311  1.00  0.00     0.006 C 
ENDBRANCH  15  16
ENDBRANCH   3  15
TORSDOF 4
ENDMDL
