MODEL 1
REMARK VINA RESULT:      -5.6      0.000      0.000
REMARK  4 active torsions:
REMARK  status: ('A' for Active; 'I' for Inactive)
REMARK    1  A    between atoms: C_2  and  C_4 
REMARK    2  A    between atoms: C_4  and  N_5 
REMARK    3  A    between atoms: C_8  and  N_11 
REMARK       I    between atoms: N_11  and  C_12 
REMARK       I    between atoms: C_12  and  N_14 
REMARK    4  A    between atoms: N_14  and  C_15 
ROOT
HETATM    1  N   UNL     1     -40.501 -48.786  10.954  1.00  0.00    -0.338 N 
HETATM    2  C   UNL     1     -41.645 -48.016  10.851  1.00  0.00     0.321 C 
HETATM    3  O   UNL     1     -42.130 -47.438  11.817  1.00  0.00    -0.247 OA
HETATM    4  N   UNL     1     -42.182 -48.032   9.585  1.00  0.00    -0.306 N 
HETATM    5  H   UNL     1     -39.903 -48.818  10.143  1.00  0.00     0.164 HD
HETATM    6  H   UNL     1     -41.879 -48.748   8.942  1.00  0.00     0.171 HD
ENDROOT
BRANCH   1   7
HETATM    7  C   UNL     1     -39.882 -48.927  12.278  1.00  0.00     0.089 C 
HETATM    8  C   UNL     1     -38.376 -49.219  12.186  1.00  0.00     0.055 C 
HETATM    9  C   UNL     1     -38.023 -50.707  12.212  1.00  0.00     0.275 C 
HETATM   10  N   UNL     1     -38.709 -51.483  13.253  1.00  0.00     0.092 N 
HETATM   11  C   UNL     1     -40.160 -51.340  13.089  1.00  0.00     0.275 C 
HETATM   12  C   UNL     1     -40.655 -49.899  13.171  1.00  0.00     0.055 C 
BRANCH  10  13
HETATM   13  C   UNL     1     -38.267 -51.174  14.623  1.00  0.00     0.305 C 
BRANCH  13  14
HETATM   14  C   UNL     1     -38.969 -51.965  15.709  1.00  0.00    -0.065 C 
HETATM   15  C   UNL     1     -38.982 -53.464  15.563  1.00  0.00     0.044 C 
HETATM   16  C   UNL     1     -39.622 -51.372  16.722  1.00  0.00     0.015 C 
ENDBRANCH  13  14
ENDBRANCH  10  13
ENDBRANCH   1   7
BRANCH   4  17
HETATM   17  C   UNL     1     -43.362 -47.363   9.288  1.00  0.00     0.070 A 
HETATM   18  C   UNL     1     -43.589 -45.998   8.994  1.00  0.00     0.138 A 
HETATM   19  N   UNL     1     -44.884 -45.721   8.819  1.00  0.00    -0.308 N 
HETATM   20  N   UNL     1     -45.486 -46.901   9.026  1.00  0.00    -0.306 N 
ATOM     21  HN  UNL     1     -45.313 -44.826   8.583  1.00  0.00     0.186 HD
HETATM   22  C   UNL     1     -46.926 -46.961   9.089  1.00  0.00     0.177 C 
HETATM   23  C   UNL     1     -44.612 -47.934   9.243  1.00  0.00     0.140 A 
ENDBRANCH   4  17
TORSDOF 4
ENDMDL
MODEL 2
REMARK VINA RESULT:      -5.5      2.036      3.074
REMARK  4 active torsions:
REMARK  status: ('A' for Active; 'I' for Inactive)
REMARK    1  A    between atoms: C_2  and  C_4 
REMARK    2  A    between atoms: C_4  and  N_5 
REMARK    3  A    between atoms: C_8  and  N_11 
REMARK       I    between atoms: N_11  and  C_12 
REMARK       I    between atoms: C_12  and  N_14 
REMARK    4  A    between atoms: N_14  and  C_15 
ROOT
HETATM    1  N   UNL     1     -40.956 -51.050  12.045  1.00  0.00    -0.338 N 
HETATM    2  C   UNL     1     -41.461 -49.769  11.914  1.00  0.00     0.321 C 
HETATM    3  O   UNL     1     -42.077 -49.217  12.819  1.00  0.00    -0.247 OA
HETATM    4  N   UNL     1     -41.245 -49.239  10.664  1.00  0.00    -0.306 N 
HETATM    5  H   UNL     1     -40.108 -51.255  11.540  1.00  0.00     0.164 HD
HETATM    6  H   UNL     1     -40.987 -49.863   9.914  1.00  0.00     0.171 HD
ENDROOT
BRANCH   1   7
HETATM    7  C   UNL     1     -41.203 -51.763  13.303  1.00  0.00     0.089 C 
HETATM    8  C   UNL     1     -40.004 -51.684  14.260  1.00  0.00     0.055 C 
HETATM    9  C   UNL     1     -39.035 -52.861  14.152  1.00  0.00     0.275 C 
HETATM   10  N   UNL     1     -39.674 -54.182  14.121  1.00  0.00     0.092 N 
HETATM   11  C   UNL     1     -40.621 -54.238  13.001  1.00  0.00     0.275 C 
HETATM   12  C   UNL     1     -41.721 -53.183  13.065  1.00  0.00     0.055 C 
BRANCH  10  13
HETATM   13  C   UNL     1     -40.292 -54.581  15.396  1.00  0.00     0.305 C 
BRANCH  13  14
HETATM   14  C   UNL     1     -39.534 -55.649  16.162  1.00  0.00    -0.065 C 
HETATM   15  C   UNL     1     -40.354 -56.645  16.939  1.00  0.00     0.044 C 
HETATM   16  C   UNL     1     -38.192 -55.676  16.219  1.00  0.00     0.015 C 
ENDBRANCH  13  14
ENDBRANCH  10  13
ENDBRANCH   1   7
BRANCH   4  17
HETATM   17  C   UNL     1     -41.722 -47.982  10.315  1.00  0.00     0.070 A 
HETATM   18  C   UNL     1     -41.257 -46.696  10.677  1.00  0.00     0.138 A 
HETATM   19  N   UNL     1     -42.023 -45.718  10.185  1.00  0.00    -0.308 N 
HETATM   20  N   UNL     1     -42.990 -46.379   9.532  1.00  0.00    -0.306 N 
ATOM     21  HN  UNL     1     -41.901 -44.710  10.282  1.00  0.00     0.186 HD
HETATM   22  C   UNL     1     -44.115 -45.648   9.002  1.00  0.00     0.177 C 
HETATM   23  C   UNL     1     -42.817 -47.738   9.520  1.00  0.00     0.140 A 
ENDBRANCH   4  17
TORSDOF 4
ENDMDL
MODEL 3
REMARK VINA RESULT:      -5.5      3.818      4.778
REMARK  4 active torsions:
REMARK  status: ('A' for Active; 'I' for Inactive)
REMARK    1  A    between atoms: C_2  and  C_4 
REMARK    2  A    between atoms: C_4  and  N_5 
REMARK    3  A    between atoms: C_8  and  N_11 
REMARK       I    between atoms: N_11  and  C_12 
REMARK       I    between atoms: C_12  and  N_14 
REMARK    4  A    between atoms: N_14  and  C_15 
ROOT
HETATM    1  N   UNL     1     -42.322 -49.568  11.736  1.00  0.00    -0.338 N 
HETATM    2  C   UNL     1     -41.703 -48.344  11.906  1.00  0.00     0.321 C 
HETATM    3  O   UNL     1     -41.224 -48.000  12.981  1.00  0.00    -0.247 OA
HETATM    4  N   UNL     1     -41.747 -47.565  10.774  1.00  0.00    -0.306 N 
HETATM    5  H   UNL     1     -42.251 -49.987  10.822  1.00  0.00     0.164 HD
HETATM    6  H   UNL     1     -42.396 -47.813  10.043  1.00  0.00     0.171 HD
ENDROOT
BRANCH   1   7
HETATM    7  C   UNL     1     -42.426 -50.457  12.899  1.00  0.00     0.089 C 
HETATM    8  C   UNL     1     -42.170 -51.926  12.531  1.00  0.00     0.055 C 
HETATM    9  C   UNL     1     -43.435 -52.722  12.210  1.00  0.00     0.275 C 
HETATM   10  N   UNL     1     -44.535 -52.540  13.164  1.00  0.00     0.092 N 
HETATM   11  C   UNL     1     -44.876 -51.114  13.247  1.00  0.00     0.275 C 
HETATM   12  C   UNL     1     -43.717 -50.224  13.685  1.00  0.00     0.055 C 
BRANCH  10  13
HETATM   13  C   UNL     1     -44.287 -53.133  14.488  1.00  0.00     0.305 C 
BRANCH  13  14
HETATM   14  C   UNL     1     -44.233 -54.648  14.505  1.00  0.00    -0.065 C 
HETATM   15  C   UNL     1     -45.403 -55.381  13.901  1.00  0.00     0.044 C 
HETATM   16  C   UNL     1     -43.235 -55.325  15.095  1.00  0.00     0.015 C 
ENDBRANCH  13  14
ENDBRANCH  10  13
ENDBRANCH   1   7
BRANCH   4  17
HETATM   17  C   UNL     1     -41.225 -46.278  10.756  1.00  0.00     0.070 A 
HETATM   18  C   UNL     1     -39.899 -45.832  10.546  1.00  0.00     0.138 A 
HETATM   19  N   UNL     1     -39.780 -44.507  10.665  1.00  0.00    -0.308 N 
HETATM   20  N   UNL     1     -41.023 -44.109  10.977  1.00  0.00    -0.306 N 
ATOM     21  HN  UNL     1     -38.944 -43.934  10.547  1.00  0.00     0.186 HD
HETATM   22  C   UNL     1     -41.254 -42.736  11.353  1.00  0.00     0.177 C 
HETATM   23  C   UNL     1     -41.942 -45.125  10.976  1.00  0.00     0.140 A 
ENDBRANCH   4  17
TORSDOF 4
ENDMDL
MODEL 4
REMARK VINA RESULT:      -5.5      2.413      3.918
REMARK  4 active torsions:
REMARK  status: ('A' for Active; 'I' for Inactive)
REMARK    1  A    between atoms: C_2  and  C_4 
REMARK    2  A    between atoms: C_4  and  N_5 
REMARK    3  A    between atoms: C_8  and  N_11 
REMARK       I    between atoms: N_11  and  C_12 
REMARK       I    between atoms: C_12  and  N_14 
REMARK    4  A    between atoms: N_14  and  C_15 
ROOT
HETATM    1  N   UNL     1     -41.563 -51.501  12.468  1.00  0.00    -0.338 N 
HETATM    2  C   UNL     1     -41.192 -50.371  11.763  1.00  0.00     0.321 C 
HETATM    3  O   UNL     1     -40.045 -50.197  11.369  1.00  0.00    -0.247 OA
HETATM    4  N   UNL     1     -42.224 -49.473  11.622  1.00  0.00    -0.306 N 
HETATM    5  H   UNL     1     -42.510 -51.823  12.340  1.00  0.00     0.164 HD
HETATM    6  H   UNL     1     -43.035 -49.573  12.212  1.00  0.00     0.171 HD
ENDROOT
BRANCH   1   7
HETATM    7  C   UNL     1     -40.528 -52.497  12.768  1.00  0.00     0.089 C 
HETATM    8  C   UNL     1     -41.086 -53.928  12.781  1.00  0.00     0.055 C 
HETATM    9  C   UNL     1     -41.514 -54.422  14.164  1.00  0.00     0.275 C 
HETATM   10  N   UNL     1     -40.547 -54.160  15.237  1.00  0.00     0.092 N 
HETATM   11  C   UNL     1     -40.277 -52.719  15.306  1.00  0.00     0.275 C 
HETATM   12  C   UNL     1     -39.721 -52.128  14.015  1.00  0.00     0.055 C 
BRANCH  10  13
HETATM   13  C   UNL     1     -39.311 -54.956  15.141  1.00  0.00     0.305 C 
BRANCH  13  14
HETATM   14  C   UNL     1     -39.003 -55.798  16.363  1.00  0.00    -0.065 C 
HETATM   15  C   UNL     1     -37.579 -55.796  16.854  1.00  0.00     0.044 C 
HETATM   16  C   UNL     1     -39.927 -56.578  16.950  1.00  0.00     0.015 C 
ENDBRANCH  13  14
ENDBRANCH  10  13
ENDBRANCH   1   7
BRANCH   4  17
HETATM   17  C   UNL     1     -42.040 -48.249  10.990  1.00  0.00     0.070 A 
HETATM   18  C   UNL     1     -42.559 -47.767   9.765  1.00  0.00     0.138 A 
HETATM   19  N   UNL     1     -42.103 -46.549   9.460  1.00  0.00    -0.308 N 
HETATM   20  N   UNL     1     -41.274 -46.265  10.475  1.00  0.00    -0.306 N 
ATOM     21  HN  UNL     1     -42.330 -45.973   8.650  1.00  0.00     0.186 HD
HETATM   22  C   UNL     1     -40.452 -45.081  10.409  1.00  0.00     0.177 C 
HETATM   23  C   UNL     1     -41.254 -47.222  11.455  1.00  0.00     0.140 A 
ENDBRANCH   4  17
TORSDOF 4
ENDMDL
MODEL 5
REMARK VINA RESULT:      -5.4      3.721      7.425
REMARK  4 active torsions:
REMARK  status: ('A' for Active; 'I' for Inactive)
REMARK    1  A    between atoms: C_2  and  C_4 
REMARK    2  A    between atoms: C_4  and  N_5 
REMARK    3  A    between atoms: C_8  and  N_11 
REMARK       I    between atoms: N_11  and  C_12 
REMARK       I    between atoms: C_12  and  N_14 
REMARK    4  A    between atoms: N_14  and  C_15 
ROOT
HETATM    1  N   UNL     1     -42.582 -50.176  11.862  1.00  0.00    -0.338 N 
HETATM    2  C   UNL     1     -42.953 -51.085  12.836  1.00  0.00     0.321 C 
HETATM    3  O   UNL     1     -43.281 -50.733  13.963  1.00  0.00    -0.247 OA
HETATM    4  N   UNL     1     -42.850 -52.388  12.411  1.00  0.00    -0.306 N 
HETATM    5  H   UNL     1     -42.795 -50.424  10.908  1.00  0.00     0.164 HD
HETATM    6  H   UNL     1     -42.311 -52.584  11.581  1.00  0.00     0.171 HD
ENDROOT
BRANCH   1   7
HETATM    7  C   UNL     1     -42.558 -48.753  12.219  1.00  0.00     0.089 C 
HETATM    8  C   UNL     1     -43.280 -47.882  11.180  1.00  0.00     0.055 C 
HETATM    9  C   UNL     1     -42.363 -47.300  10.103  1.00  0.00     0.275 C 
HETATM   10  N   UNL     1     -41.122 -46.702  10.610  1.00  0.00     0.092 N 
HETATM   11  C   UNL     1     -40.378 -47.706  11.381  1.00  0.00     0.275 C 
HETATM   12  C   UNL     1     -41.148 -48.273  12.568  1.00  0.00     0.055 C 
BRANCH  10  13
HETATM   13  C   UNL     1     -41.321 -45.453  11.364  1.00  0.00     0.305 C 
BRANCH  13  14
HETATM   14  C   UNL     1     -40.334 -44.350  11.035  1.00  0.00    -0.065 C 
HETATM   15  C   UNL     1     -39.392 -44.595   9.886  1.00  0.00     0.044 C 
HETATM   16  C   UNL     1     -40.236 -43.231  11.772  1.00  0.00     0.015 C 
ENDBRANCH  13  14
ENDBRANCH  10  13
ENDBRANCH   1   7
BRANCH   4  17
HETATM   17  C   UNL     1     -43.127 -53.453  13.260  1.00  0.00     0.070 A 
HETATM   18  C   UNL     1     -44.338 -54.148  13.488  1.00  0.00     0.138 A 
HETATM   19  N   UNL     1     -44.219 -55.085  14.433  1.00  0.00    -0.308 N 
HETATM   20  N   UNL     1     -42.942 -54.971  14.826  1.00  0.00    -0.306 N 
ATOM     21  HN  UNL     1     -44.930 -55.732  14.774  1.00  0.00     0.186 HD
HETATM   22  C   UNL     1     -42.484 -55.719  15.971  1.00  0.00     0.177 C 
HETATM   23  C   UNL     1     -42.224 -54.054  14.105  1.00  0.00     0.140 A 
ENDBRANCH   4  17
TORSDOF 4
ENDMDL
MODEL 6
REMARK VINA RESULT:      -5.3      3.248      4.357
REMARK  4 active torsions:
REMARK  status: ('A' for Active; 'I' for Inactive)
REMARK    1  A    between atoms: C_2  and  C_4 
REMARK    2  A    between atoms: C_4  and  N_5 
REMARK    3  A    between atoms: C_8  and  N_11 
REMARK       I    between atoms: N_11  and  C_12 
REMARK       I    between atoms: C_12  and  N_14 
REMARK    4  A    between atoms: N_14  and  C_15 
ROOT
HETATM    1  N   UNL     1     -42.369 -51.057  12.213  1.00  0.00    -0.338 N 
HETATM    2  C   UNL     1     -42.245 -49.681  12.148  1.00  0.00     0.321 C 
HETATM    3  O   UNL     1     -42.591 -48.951  13.070  1.00  0.00    -0.247 OA
HETATM    4  N   UNL     1     -41.758 -49.250  10.936  1.00  0.00    -0.306 N 
HETATM    5  H   UNL     1     -41.679 -51.597  11.716  1.00  0.00     0.164 HD
HETATM    6  H   UNL     1     -41.770 -49.890  10.156  1.00  0.00     0.171 HD
ENDROOT
BRANCH   1   7
HETATM    7  C   UNL     1     -42.966 -51.639  13.421  1.00  0.00     0.089 C 
HETATM    8  C   UNL     1     -41.903 -52.174  14.393  1.00  0.00     0.055 C 
HETATM    9  C   UNL     1     -41.585 -53.660  14.218  1.00  0.00     0.275 C 
HETATM   10  N   UNL     1     -42.760 -54.530  14.097  1.00  0.00     0.092 N 
HETATM   11  C   UNL     1     -43.583 -54.081  12.968  1.00  0.00     0.275 C 
HETATM   12  C   UNL     1     -44.072 -52.642  13.088  1.00  0.00     0.055 C 
BRANCH  10  13
HETATM   13  C   UNL     1     -43.540 -54.662  15.339  1.00  0.00     0.305 C 
BRANCH  13  14
HETATM   14  C   UNL     1     -42.724 -55.017  16.566  1.00  0.00    -0.065 C 
HETATM   15  C   UNL     1     -42.060 -56.369  16.579  1.00  0.00     0.044 C 
HETATM   16  C   UNL     1     -42.647 -54.209  17.636  1.00  0.00     0.015 C 
ENDBRANCH  13  14
ENDBRANCH  10  13
ENDBRANCH   1   7
BRANCH   4  17
HETATM   17  C   UNL     1     -41.609 -47.898  10.652  1.00  0.00     0.070 A 
HETATM   18  C   UNL     1     -42.446 -47.021   9.923  1.00  0.00     0.138 A 
HETATM   19  N   UNL     1     -41.929 -45.793   9.815  1.00  0.00    -0.308 N 
HETATM   20  N   UNL     1     -40.753 -45.894  10.452  1.00  0.00    -0.306 N 
ATOM     21  HN  UNL     1     -42.333 -44.976   9.358  1.00  0.00     0.186 HD
HETATM   22  C   UNL     1     -39.821 -44.794  10.396  1.00  0.00     0.177 C 
HETATM   23  C   UNL     1     -40.544 -47.117  11.033  1.00  0.00     0.140 A 
ENDBRANCH   4  17
TORSDOF 4
ENDMDL
MODEL 7
REMARK VINA RESULT:      -5.3      4.084      5.093
REMARK  4 active torsions:
REMARK  status: ('A' for Active; 'I' for Inactive)
REMARK    1  A    between atoms: C_2  and  C_4 
REMARK    2  A    between atoms: C_4  and  N_5 
REMARK    3  A    between atoms: C_8  and  N_11 
REMARK       I    between atoms: N_11  and  C_12 
REMARK       I    between atoms: C_12  and  N_14 
REMARK    4  A    between atoms: N_14  and  C_15 
ROOT
HETATM    1  N   UNL     1     -42.242 -50.928  12.099  1.00  0.00    -0.338 N 
HETATM    2  C   UNL     1     -42.073 -49.555  12.072  1.00  0.00     0.321 C 
HETATM    3  O   UNL     1     -42.285 -48.853  13.054  1.00  0.00    -0.247 OA
HETATM    4  N   UNL     1     -41.711 -49.090  10.830  1.00  0.00    -0.306 N 
HETATM    5  H   UNL     1     -41.633 -51.469  11.506  1.00  0.00     0.164 HD
HETATM    6  H   UNL     1     -41.835 -49.696  10.033  1.00  0.00     0.171 HD
ENDROOT
BRANCH   1   7
HETATM    7  C   UNL     1     -42.720 -51.539  13.345  1.00  0.00     0.089 C 
HETATM    8  C   UNL     1     -41.943 -52.816  13.699  1.00  0.00     0.055 C 
HETATM    9  C   UNL     1     -42.590 -54.105  13.191  1.00  0.00     0.275 C 
HETATM   10  N   UNL     1     -44.033 -54.208  13.439  1.00  0.00     0.092 N 
HETATM   11  C   UNL     1     -44.715 -53.059  12.831  1.00  0.00     0.275 C 
HETATM   12  C   UNL     1     -44.240 -51.708  13.354  1.00  0.00     0.055 C 
BRANCH  10  13
HETATM   13  C   UNL     1     -44.388 -54.381  14.858  1.00  0.00     0.305 C 
BRANCH  13  14
HETATM   14  C   UNL     1     -45.852 -54.152  15.177  1.00  0.00    -0.065 C 
HETATM   15  C   UNL     1     -46.170 -53.122  16.230  1.00  0.00     0.044 C 
HETATM   16  C   UNL     1     -46.833 -54.878  14.615  1.00  0.00     0.015 C 
ENDBRANCH  13  14
ENDBRANCH  10  13
ENDBRANCH   1   7
BRANCH   4  17
HETATM   17  C   UNL     1     -41.543 -47.734  10.582  1.00  0.00     0.070 A 
HETATM   18  C   UNL     1     -42.395 -46.814   9.926  1.00  0.00     0.138 A 
HETATM   19  N   UNL     1     -41.854 -45.596   9.830  1.00  0.00    -0.308 N 
HETATM   20  N   UNL     1     -40.649 -45.744  10.400  1.00  0.00    -0.306 N 
ATOM     21  HN  UNL     1     -42.261 -44.754   9.422  1.00  0.00     0.186 HD
HETATM   22  C   UNL     1     -39.695 -44.665  10.330  1.00  0.00     0.177 C 
HETATM   23  C   UNL     1     -40.440 -46.990  10.929  1.00  0.00     0.140 A 
ENDBRANCH   4  17
TORSDOF 4
ENDMDL
MODEL 8
REMARK VINA RESULT:      -5.3      5.227     10.292
REMARK  4 active torsions:
REMARK  status: ('A' for Active; 'I' for Inactive)
REMARK    1  A    between atoms: C_2  and  C_4 
REMARK    2  A    between atoms: C_4  and  N_5 
REMARK    3  A    between atoms: C_8  and  N_11 
REMARK       I    between atoms: N_11  and  C_12 
REMARK       I    between atoms: C_12  and  N_14 
REMARK    4  A    between atoms: N_14  and  C_15 
ROOT
HETATM    1  N   UNL     1     -41.067 -54.439  14.930  1.00  0.00    -0.338 N 
HETATM    2  C   UNL     1     -40.320 -54.738  16.054  1.00  0.00     0.321 C 
HETATM    3  O   UNL     1     -40.445 -54.116  17.103  1.00  0.00    -0.247 OA
HETATM    4  N   UNL     1     -39.408 -55.743  15.833  1.00  0.00    -0.306 N 
HETATM    5  H   UNL     1     -41.290 -55.209  14.319  1.00  0.00     0.164 HD
HETATM    6  H   UNL     1     -39.188 -55.994  14.881  1.00  0.00     0.171 HD
ENDROOT
BRANCH   1   7
HETATM    7  C   UNL     1     -42.013 -53.319  15.008  1.00  0.00     0.089 C 
HETATM    8  C   UNL     1     -43.474 -53.793  15.012  1.00  0.00     0.055 C 
HETATM    9  C   UNL     1     -44.125 -53.832  13.629  1.00  0.00     0.275 C 
HETATM   10  N   UNL     1     -43.899 -52.636  12.809  1.00  0.00     0.092 N 
HETATM   11  C   UNL     1     -42.455 -52.420  12.652  1.00  0.00     0.275 C 
HETATM   12  C   UNL     1     -41.708 -52.238  13.969  1.00  0.00     0.055 C 
BRANCH  10  13
HETATM   13  C   UNL     1     -44.594 -51.433  13.296  1.00  0.00     0.305 C 
BRANCH  13  14
HETATM   14  C   UNL     1     -46.104 -51.552  13.353  1.00  0.00    -0.065 C 
HETATM   15  C   UNL     1     -46.824 -51.750  12.044  1.00  0.00     0.044 C 
HETATM   16  C   UNL     1     -46.794 -51.414  14.497  1.00  0.00     0.015 C 
ENDBRANCH  13  14
ENDBRANCH  10  13
ENDBRANCH   1   7
BRANCH   4  17
HETATM   17  C   UNL     1     -38.525 -56.155  16.823  1.00  0.00     0.070 A 
HETATM   18  C   UNL     1     -37.227 -55.690  17.139  1.00  0.00     0.138 A 
HETATM   19  N   UNL     1     -36.664 -56.384  18.133  1.00  0.00    -0.308 N 
HETATM   20  N   UNL     1     -37.590 -57.306  18.433  1.00  0.00    -0.306 N 
ATOM     21  HN  UNL     1     -35.748 -56.245  18.561  1.00  0.00     0.186 HD
HETATM   22  C   UNL     1     -37.265 -58.360  19.362  1.00  0.00     0.177 C 
HETATM   23  C   UNL     1     -38.754 -57.169  17.723  1.00  0.00     0.140 A 
ENDBRANCH   4  17
TORSDOF 4
ENDMDL
MODEL 9
REMARK VINA RESULT:      -5.0      2.973      7.720
REMARK  4 active torsions:
REMARK  status: ('A' for Active; 'I' for Inactive)
REMARK    1  A    between atoms: C_2  and  C_4 
REMARK    2  A    between atoms: C_4  and  N_5 
REMARK    3  A    between atoms: C_8  and  N_11 
REMARK       I    between atoms: N_11  and  C_12 
REMARK       I    between atoms: C_12  and  N_14 
REMARK    4  A    between atoms: N_14  and  C_15 
ROOT
HETATM    1  N   UNL     1     -42.344 -49.276  11.398  1.00  0.00    -0.338 N 
HETATM    2  C   UNL     1     -42.258 -50.286  12.338  1.00  0.00     0.321 C 
HETATM    3  O   UNL     1     -42.539 -50.104  13.517  1.00  0.00    -0.247 OA
HETATM    4  N   UNL     1     -41.776 -51.461  11.811  1.00  0.00    -0.306 N 
HETATM    5  H   UNL     1     -42.581 -49.553  10.458  1.00  0.00     0.164 HD
HETATM    6  H   UNL     1     -41.314 -51.434  10.915  1.00  0.00     0.171 HD
ENDROOT
BRANCH   1   7
HETATM    7  C   UNL     1     -42.757 -47.944  11.853  1.00  0.00     0.089 C 
HETATM    8  C   UNL     1     -43.514 -47.167  10.764  1.00  0.00     0.055 C 
HETATM    9  C   UNL     1     -42.629 -46.255   9.914  1.00  0.00     0.275 C 
HETATM   10  N   UNL     1     -41.687 -45.427  10.677  1.00  0.00     0.092 N 
HETATM   11  C   UNL     1     -40.832 -46.293  11.497  1.00  0.00     0.275 C 
HETATM   12  C   UNL     1     -41.599 -47.168  12.483  1.00  0.00     0.055 C 
BRANCH  10  13
HETATM   13  C   UNL     1     -42.327 -44.363  11.469  1.00  0.00     0.305 C 
BRANCH  13  14
HETATM   14  C   UNL     1     -41.644 -43.012  11.386  1.00  0.00    -0.065 C 
HETATM   15  C   UNL     1     -42.480 -41.850  10.918  1.00  0.00     0.044 C 
HETATM   16  C   UNL     1     -40.334 -42.853  11.638  1.00  0.00     0.015 C 
ENDBRANCH  13  14
ENDBRANCH  10  13
ENDBRANCH   1   7
BRANCH   4  17
HETATM   17  C   UNL     1     -41.566 -52.581  12.605  1.00  0.00     0.070 A 
HETATM   18  C   UNL     1     -42.474 -53.575  13.041  1.00  0.00     0.138 A 
HETATM   19  N   UNL     1     -41.902 -54.471  13.851  1.00  0.00    -0.308 N 
HETATM   20  N   UNL     1     -40.637 -54.035  13.953  1.00  0.00    -0.306 N 
ATOM     21  HN  UNL     1     -42.325 -55.290  14.287  1.00  0.00     0.186 HD
HETATM   22  C   UNL     1     -39.745 -54.665  14.895  1.00  0.00     0.177 C 
HETATM   23  C   UNL     1     -40.366 -52.945  13.169  1.00  0.00     0.140 A 
ENDBRANCH   4  17
TORSDOF 4
ENDMDL
