MODEL 1
REMARK VINA RESULT:      -5.9      0.000      0.000
REMARK  7 active torsions:
REMARK  status: ('A' for Active; 'I' for Inactive)
REMARK    1  A    between atoms: C_2  and  C_4 
REMARK    2  A    between atoms: C_4  and  O_5 
REMARK    3  A    between atoms: O_5  and  C_6 
REMARK    4  A    between atoms: C_6  and  C_8 
REMARK       I    between atoms: C_8  and  N_10 
REMARK    5  A    between atoms: N_10  and  C_11 
REMARK    6  A    between atoms: C_11  and  C_12 
REMARK    7  A    between atoms: C_18  and  N_19 
ROOT
HETATM    1  C   UNL     1     -42.558 -49.496  12.577  1.00  0.00     0.004 A 
HETATM    2  C   UNL     1     -43.256 -48.383  12.077  1.00  0.00     0.014 A 
HETATM    3  C   UNL     1     -42.840 -47.768  10.909  1.00  0.00     0.018 A 
HETATM    4  C   UNL     1     -41.724 -48.279  10.281  1.00  0.00     0.089 A 
HETATM    5  N   UNL     1     -41.011 -49.332  10.745  1.00  0.00    -0.352 N 
ATOM      6  HN  UNL     1     -40.194 -49.672  10.236  1.00  0.00     0.166 HD
HETATM    7  C   UNL     1     -41.400 -49.926  11.897  1.00  0.00     0.111 A 
ENDROOT
BRANCH   1   8
HETATM    8  C   UNL     1     -43.049 -50.198  13.818  1.00  0.00     0.165 C 
BRANCH   8   9
HETATM    9  N   UNL     1     -44.386 -50.716  13.716  1.00  0.00    -0.355 N 
HETATM   10  C   UNL     1     -45.183 -50.952  14.810  1.00  0.00     0.246 C 
HETATM   11  O   UNL     1     -44.857 -50.683  15.964  1.00  0.00    -0.271 OA
HETATM   12  H   UNL     1     -44.748 -51.017  12.813  1.00  0.00     0.162 HD
BRANCH  10  13
HETATM   13  C   UNL     1     -46.537 -51.582  14.450  1.00  0.00     0.209 C 
HETATM   14  C   UNL     1     -47.271 -51.926  15.739  1.00  0.00     0.049 C 
BRANCH  13  15
HETATM   15  O   UNL     1     -46.322 -52.749  13.640  1.00  0.00    -0.377 OA
BRANCH  15  16
HETATM   16  C   UNL     1     -46.196 -53.947  14.401  1.00  0.00     0.172 C 
BRANCH  16  17
HETATM   17  C   UNL     1     -44.885 -54.651  14.032  1.00  0.00     0.001 C 
HETATM   18  C   UNL     1     -44.369 -54.110  12.701  1.00  0.00     0.011 C 
HETATM   19  C   UNL     1     -43.828 -54.493  15.126  1.00  0.00     0.011 C 
ENDBRANCH  16  17
ENDBRANCH  15  16
ENDBRANCH  13  15
ENDBRANCH  10  13
ENDBRANCH   8   9
ENDBRANCH   1   8
BRANCH   7  20
HETATM   20  N   UNL     1     -40.700 -51.036  12.326  1.00  0.00    -0.363 N 
HETATM   21  C   UNL     1     -41.070 -52.367  11.826  1.00  0.00     0.150 C 
HETATM   22  C   UNL     1     -40.716 -53.375  12.943  1.00  0.00     0.187 C 
HETATM   23  O   UNL     1     -39.332 -53.291  13.346  1.00  0.00    -0.388 OA
HETATM   24  C   UNL     1     -38.985 -51.949  13.742  1.00  0.00     0.187 C 
HETATM   25  C   UNL     1     -39.258 -50.961  12.597  1.00  0.00     0.150 C 
ENDBRANCH   7  20
TORSDOF 7
ENDMDL
MODEL 2
REMARK VINA RESULT:      -5.7      2.264      4.203
REMARK  7 active torsions:
REMARK  status: ('A' for Active; 'I' for Inactive)
REMARK    1  A    between atoms: C_2  and  C_4 
REMARK    2  A    between atoms: C_4  and  O_5 
REMARK    3  A    between atoms: O_5  and  C_6 
REMARK    4  A    between atoms: C_6  and  C_8 
REMARK       I    between atoms: C_8  and  N_10 
REMARK    5  A    between atoms: N_10  and  C_11 
REMARK    6  A    between atoms: C_11  and  C_12 
REMARK    7  A    between atoms: C_18  and  N_19 
ROOT
HETATM    1  C   UNL     1     -41.440 -49.407  12.469  1.00  0.00     0.004 A 
HETATM    2  C   UNL     1     -40.754 -50.480  13.063  1.00  0.00     0.014 A 
HETATM    3  C   UNL     1     -39.458 -50.774  12.681  1.00  0.00     0.018 A 
HETATM    4  C   UNL     1     -38.888 -49.988  11.701  1.00  0.00     0.089 A 
HETATM    5  N   UNL     1     -39.524 -48.963  11.087  1.00  0.00    -0.352 N 
ATOM      6  HN  UNL     1     -39.052 -48.412  10.371  1.00  0.00     0.166 HD
HETATM    7  C   UNL     1     -40.800 -48.683  11.442  1.00  0.00     0.111 A 
ENDROOT
BRANCH   1   8
HETATM    8  C   UNL     1     -42.832 -49.054  12.930  1.00  0.00     0.165 C 
BRANCH   8   9
HETATM    9  N   UNL     1     -43.813 -50.076  12.687  1.00  0.00    -0.355 N 
HETATM   10  C   UNL     1     -44.377 -50.827  13.691  1.00  0.00     0.246 C 
HETATM   11  O   UNL     1     -44.148 -50.653  14.885  1.00  0.00    -0.271 OA
HETATM   12  H   UNL     1     -44.050 -50.339  11.732  1.00  0.00     0.162 HD
BRANCH  10  13
HETATM   13  C   UNL     1     -45.336 -51.909  13.173  1.00  0.00     0.209 C 
HETATM   14  C   UNL     1     -46.745 -51.576  13.646  1.00  0.00     0.049 C 
BRANCH  13  15
HETATM   15  O   UNL     1     -44.912 -53.195  13.653  1.00  0.00    -0.377 OA
BRANCH  15  16
HETATM   16  C   UNL     1     -43.813 -53.733  12.924  1.00  0.00     0.172 C 
BRANCH  16  17
HETATM   17  C   UNL     1     -42.613 -53.906  13.862  1.00  0.00     0.001 C 
HETATM   18  C   UNL     1     -42.901 -55.022  14.864  1.00  0.00     0.011 C 
HETATM   19  C   UNL     1     -41.325 -54.194  13.088  1.00  0.00     0.011 C 
ENDBRANCH  16  17
ENDBRANCH  15  16
ENDBRANCH  13  15
ENDBRANCH  10  13
ENDBRANCH   8   9
ENDBRANCH   1   8
BRANCH   7  20
HETATM   20  N   UNL     1     -41.416 -47.597  10.852  1.00  0.00    -0.363 N 
HETATM   21  C   UNL     1     -40.694 -46.323  10.742  1.00  0.00     0.150 C 
HETATM   22  C   UNL     1     -41.758 -45.203  10.785  1.00  0.00     0.187 C 
HETATM   23  O   UNL     1     -42.772 -45.364   9.770  1.00  0.00    -0.388 OA
HETATM   24  C   UNL     1     -43.393 -46.662   9.855  1.00  0.00     0.187 C 
HETATM   25  C   UNL     1     -42.340 -47.774   9.724  1.00  0.00     0.150 C 
ENDBRANCH   7  20
TORSDOF 7
ENDMDL
MODEL 3
REMARK VINA RESULT:      -5.6      3.126      5.093
REMARK  7 active torsions:
REMARK  status: ('A' for Active; 'I' for Inactive)
REMARK    1  A    between atoms: C_2  and  C_4 
REMARK    2  A    between atoms: C_4  and  O_5 
REMARK    3  A    between atoms: O_5  and  C_6 
REMARK    4  A    between atoms: C_6  and  C_8 
REMARK       I    between atoms: C_8  and  N_10 
REMARK    5  A    between atoms: N_10  and  C_11 
REMARK    6  A    between atoms: C_11  and  C_12 
REMARK    7  A    between atoms: C_18  and  N_19 
ROOT
HETATM    1  C   UNL     1     -42.522 -47.326  10.172  1.00  0.00     0.004 A 
HETATM    2  C   UNL     1     -43.361 -47.671   9.098  1.00  0.00     0.014 A 
HETATM    3  C   UNL     1     -44.194 -46.722   8.533  1.00  0.00     0.018 A 
HETATM    4  C   UNL     1     -44.172 -45.452   9.071  1.00  0.00     0.089 A 
HETATM    5  N   UNL     1     -43.398 -45.088  10.120  1.00  0.00    -0.352 N 
ATOM      6  HN  UNL     1     -43.419 -44.131  10.474  1.00  0.00     0.166 HD
HETATM    7  C   UNL     1     -42.595 -46.017  10.690  1.00  0.00     0.111 A 
ENDROOT
BRANCH   1   8
HETATM    8  C   UNL     1     -41.574 -48.348  10.747  1.00  0.00     0.165 C 
BRANCH   8   9
HETATM    9  N   UNL     1     -42.219 -49.430  11.440  1.00  0.00    -0.355 N 
HETATM   10  C   UNL     1     -41.780 -49.912  12.649  1.00  0.00     0.246 C 
HETATM   11  O   UNL     1     -40.845 -49.426  13.280  1.00  0.00    -0.271 OA
HETATM   12  H   UNL     1     -42.979 -49.940  10.993  1.00  0.00     0.162 HD
BRANCH  10  13
HETATM   13  C   UNL     1     -42.583 -51.123  13.147  1.00  0.00     0.209 C 
HETATM   14  C   UNL     1     -42.243 -52.324  12.274  1.00  0.00     0.049 C 
BRANCH  13  15
HETATM   15  O   UNL     1     -43.987 -50.820  13.099  1.00  0.00    -0.377 OA
BRANCH  15  16
HETATM   16  C   UNL     1     -44.649 -51.021  14.344  1.00  0.00     0.172 C 
BRANCH  16  17
HETATM   17  C   UNL     1     -45.949 -51.800  14.113  1.00  0.00     0.001 C 
HETATM   18  C   UNL     1     -46.990 -51.380  15.148  1.00  0.00     0.011 C 
HETATM   19  C   UNL     1     -46.486 -51.598  12.695  1.00  0.00     0.011 C 
ENDBRANCH  16  17
ENDBRANCH  15  16
ENDBRANCH  13  15
ENDBRANCH  10  13
ENDBRANCH   8   9
ENDBRANCH   1   8
BRANCH   7  20
HETATM   20  N   UNL     1     -41.766 -45.616  11.720  1.00  0.00    -0.363 N 
HETATM   21  C   UNL     1     -40.732 -44.604  11.468  1.00  0.00     0.150 C 
HETATM   22  C   UNL     1     -39.571 -44.904  12.444  1.00  0.00     0.187 C 
HETATM   23  O   UNL     1     -40.000 -44.937  13.822  1.00  0.00    -0.388 OA
HETATM   24  C   UNL     1     -41.079 -45.876  14.008  1.00  0.00     0.187 C 
HETATM   25  C   UNL     1     -42.266 -45.523  13.098  1.00  0.00     0.150 C 
ENDBRANCH   7  20
TORSDOF 7
ENDMDL
MODEL 4
REMARK VINA RESULT:      -5.6      2.404      4.538
REMARK  7 active torsions:
REMARK  status: ('A' for Active; 'I' for Inactive)
REMARK    1  A    between atoms: C_2  and  C_4 
REMARK    2  A    between atoms: C_4  and  O_5 
REMARK    3  A    between atoms: O_5  and  C_6 
REMARK    4  A    between atoms: C_6  and  C_8 
REMARK       I    between atoms: C_8  and  N_10 
REMARK    5  A    between atoms: N_10  and  C_11 
REMARK    6  A    between atoms: C_11  and  C_12 
REMARK    7  A    between atoms: C_18  and  N_19 
ROOT
HETATM    1  C   UNL     1     -39.537 -49.831  13.039  1.00  0.00     0.004 A 
HETATM    2  C   UNL     1     -38.498 -50.738  13.313  1.00  0.00     0.014 A 
HETATM    3  C   UNL     1     -37.418 -50.838  12.455  1.00  0.00     0.018 A 
HETATM    4  C   UNL     1     -37.415 -50.032  11.335  1.00  0.00     0.089 A 
HETATM    5  N   UNL     1     -38.407 -49.166  11.024  1.00  0.00    -0.352 N 
ATOM      6  HN  UNL     1     -38.350 -48.591  10.184  1.00  0.00     0.166 HD
HETATM    7  C   UNL     1     -39.477 -49.078  11.849  1.00  0.00     0.111 A 
ENDROOT
BRANCH   1   8
HETATM    8  C   UNL     1     -40.684 -49.684  14.007  1.00  0.00     0.165 C 
BRANCH   8   9
HETATM    9  N   UNL     1     -41.275 -50.927  14.418  1.00  0.00    -0.355 N 
HETATM   10  C   UNL     1     -42.164 -51.628  13.640  1.00  0.00     0.246 C 
HETATM   11  O   UNL     1     -42.484 -51.297  12.501  1.00  0.00    -0.271 OA
HETATM   12  H   UNL     1     -41.117 -51.278  15.362  1.00  0.00     0.162 HD
BRANCH  10  13
HETATM   13  C   UNL     1     -42.719 -52.882  14.332  1.00  0.00     0.209 C 
HETATM   14  C   UNL     1     -43.019 -53.931  13.269  1.00  0.00     0.049 C 
BRANCH  13  15
HETATM   15  O   UNL     1     -43.898 -52.538  15.077  1.00  0.00    -0.377 OA
BRANCH  15  16
HETATM   16  C   UNL     1     -45.108 -52.865  14.399  1.00  0.00     0.172 C 
BRANCH  16  17
HETATM   17  C   UNL     1     -45.909 -51.585  14.136  1.00  0.00     0.001 C 
HETATM   18  C   UNL     1     -46.505 -51.631  12.731  1.00  0.00     0.011 C 
HETATM   19  C   UNL     1     -47.005 -51.377  15.182  1.00  0.00     0.011 C 
ENDBRANCH  16  17
ENDBRANCH  15  16
ENDBRANCH  13  15
ENDBRANCH  10  13
ENDBRANCH   8   9
ENDBRANCH   1   8
BRANCH   7  20
HETATM   20  N   UNL     1     -40.453 -48.146  11.551  1.00  0.00    -0.363 N 
HETATM   21  C   UNL     1     -40.097 -46.724  11.465  1.00  0.00     0.150 C 
HETATM   22  C   UNL     1     -41.355 -45.926  11.879  1.00  0.00     0.187 C 
HETATM   23  O   UNL     1     -42.512 -46.265  11.084  1.00  0.00    -0.388 OA
HETATM   24  C   UNL     1     -42.772 -47.683  11.122  1.00  0.00     0.187 C 
HETATM   25  C   UNL     1     -41.547 -48.469  10.626  1.00  0.00     0.150 C 
ENDBRANCH   7  20
TORSDOF 7
ENDMDL
MODEL 5
REMARK VINA RESULT:      -5.4      2.324      5.705
REMARK  7 active torsions:
REMARK  status: ('A' for Active; 'I' for Inactive)
REMARK    1  A    between atoms: C_2  and  C_4 
REMARK    2  A    between atoms: C_4  and  O_5 
REMARK    3  A    between atoms: O_5  and  C_6 
REMARK    4  A    between atoms: C_6  and  C_8 
REMARK       I    between atoms: C_8  and  N_10 
REMARK    5  A    between atoms: N_10  and  C_11 
REMARK    6  A    between atoms: C_11  and  C_12 
REMARK    7  A    between atoms: C_18  and  N_19 
ROOT
HETATM    1  C   UNL     1     -44.409 -51.361  14.420  1.00  0.00     0.004 A 
HETATM    2  C   UNL     1     -45.733 -51.117  14.822  1.00  0.00     0.014 A 
HETATM    3  C   UNL     1     -46.706 -52.083  14.638  1.00  0.00     0.018 A 
HETATM    4  C   UNL     1     -46.325 -53.266  14.040  1.00  0.00     0.089 A 
HETATM    5  N   UNL     1     -45.066 -53.529  13.616  1.00  0.00    -0.352 N 
ATOM      6  HN  UNL     1     -44.840 -54.424  13.184  1.00  0.00     0.166 HD
HETATM    7  C   UNL     1     -44.114 -52.580  13.775  1.00  0.00     0.111 A 
ENDROOT
BRANCH   1   8
HETATM    8  C   UNL     1     -43.340 -50.328  14.676  1.00  0.00     0.165 C 
BRANCH   8   9
HETATM    9  N   UNL     1     -43.253 -49.305  13.670  1.00  0.00    -0.355 N 
HETATM   10  C   UNL     1     -42.070 -48.699  13.319  1.00  0.00     0.246 C 
HETATM   11  O   UNL     1     -40.977 -49.019  13.777  1.00  0.00    -0.271 OA
HETATM   12  H   UNL     1     -44.102 -48.928  13.252  1.00  0.00     0.162 HD
BRANCH  10  13
HETATM   13  C   UNL     1     -42.247 -47.581  12.281  1.00  0.00     0.209 C 
HETATM   14  C   UNL     1     -42.891 -46.382  12.963  1.00  0.00     0.049 C 
BRANCH  13  15
HETATM   15  O   UNL     1     -43.053 -48.060  11.191  1.00  0.00    -0.377 OA
BRANCH  15  16
HETATM   16  C   UNL     1     -42.554 -47.680   9.913  1.00  0.00     0.172 C 
BRANCH  16  17
HETATM   17  C   UNL     1     -43.728 -47.428   8.960  1.00  0.00     0.001 C 
HETATM   18  C   UNL     1     -44.042 -45.935   8.915  1.00  0.00     0.011 C 
HETATM   19  C   UNL     1     -43.443 -47.963   7.555  1.00  0.00     0.011 C 
ENDBRANCH  16  17
ENDBRANCH  15  16
ENDBRANCH  13  15
ENDBRANCH  10  13
ENDBRANCH   8   9
ENDBRANCH   1   8
BRANCH   7  20
HETATM   20  N   UNL     1     -42.822 -52.884  13.393  1.00  0.00    -0.363 N 
HETATM   21  C   UNL     1     -42.231 -54.169  13.788  1.00  0.00     0.150 C 
HETATM   22  C   UNL     1     -40.709 -53.937  13.919  1.00  0.00     0.187 C 
HETATM   23  O   UNL     1     -40.126 -53.397  12.713  1.00  0.00    -0.388 OA
HETATM   24  C   UNL     1     -40.794 -52.185  12.309  1.00  0.00     0.187 C 
HETATM   25  C   UNL     1     -42.295 -52.442  12.096  1.00  0.00     0.150 C 
ENDBRANCH   7  20
TORSDOF 7
ENDMDL
MODEL 6
REMARK VINA RESULT:      -5.2      2.240      6.314
REMARK  7 active torsions:
REMARK  status: ('A' for Active; 'I' for Inactive)
REMARK    1  A    between atoms: C_2  and  C_4 
REMARK    2  A    between atoms: C_4  and  O_5 
REMARK    3  A    between atoms: O_5  and  C_6 
REMARK    4  A    between atoms: C_6  and  C_8 
REMARK       I    between atoms: C_8  and  N_10 
REMARK    5  A    between atoms: N_10  and  C_11 
REMARK    6  A    between atoms: C_11  and  C_12 
REMARK    7  A    between atoms: C_18  and  N_19 
ROOT
HETATM    1  C   UNL     1     -41.513 -53.139  13.385  1.00  0.00     0.004 A 
HETATM    2  C   UNL     1     -40.108 -53.158  13.335  1.00  0.00     0.014 A 
HETATM    3  C   UNL     1     -39.387 -53.807  14.321  1.00  0.00     0.018 A 
HETATM    4  C   UNL     1     -40.096 -54.408  15.341  1.00  0.00     0.089 A 
HETATM    5  N   UNL     1     -41.446 -54.389  15.437  1.00  0.00    -0.352 N 
ATOM      6  HN  UNL     1     -41.918 -54.854  16.211  1.00  0.00     0.166 HD
HETATM    7  C   UNL     1     -42.157 -53.739  14.486  1.00  0.00     0.111 A 
ENDROOT
BRANCH   1   8
HETATM    8  C   UNL     1     -42.297 -52.481  12.277  1.00  0.00     0.165 C 
BRANCH   8   9
HETATM    9  N   UNL     1     -41.848 -51.159  11.938  1.00  0.00    -0.355 N 
HETATM   10  C   UNL     1     -42.371 -50.021  12.503  1.00  0.00     0.246 C 
HETATM   11  O   UNL     1     -43.218 -50.028  13.393  1.00  0.00    -0.271 OA
HETATM   12  H   UNL     1     -41.179 -51.027  11.180  1.00  0.00     0.162 HD
BRANCH  10  13
HETATM   13  C   UNL     1     -41.785 -48.728  11.918  1.00  0.00     0.209 C 
HETATM   14  C   UNL     1     -42.820 -48.099  10.995  1.00  0.00     0.049 C 
BRANCH  13  15
HETATM   15  O   UNL     1     -40.568 -49.028  11.215  1.00  0.00    -0.377 OA
BRANCH  15  16
HETATM   16  C   UNL     1     -39.401 -48.556  11.882  1.00  0.00     0.172 C 
BRANCH  16  17
HETATM   17  C   UNL     1     -38.515 -49.747  12.265  1.00  0.00     0.001 C 
HETATM   18  C   UNL     1     -37.410 -49.920  11.225  1.00  0.00     0.011 C 
HETATM   19  C   UNL     1     -37.919 -49.583  13.664  1.00  0.00     0.011 C 
ENDBRANCH  16  17
ENDBRANCH  15  16
ENDBRANCH  13  15
ENDBRANCH  10  13
ENDBRANCH   8   9
ENDBRANCH   1   8
BRANCH   7  20
HETATM   20  N   UNL     1     -43.536 -53.779  14.564  1.00  0.00    -0.363 N 
HETATM   21  C   UNL     1     -44.224 -55.076  14.592  1.00  0.00     0.150 C 
HETATM   22  C   UNL     1     -45.608 -54.859  13.936  1.00  0.00     0.187 C 
HETATM   23  O   UNL     1     -46.364 -53.807  14.575  1.00  0.00    -0.388 OA
HETATM   24  C   UNL     1     -45.616 -52.575  14.608  1.00  0.00     0.187 C 
HETATM   25  C   UNL     1     -44.277 -52.775  15.338  1.00  0.00     0.150 C 
ENDBRANCH   7  20
TORSDOF 7
ENDMDL
MODEL 7
REMARK VINA RESULT:      -5.1      2.064      4.424
REMARK  7 active torsions:
REMARK  status: ('A' for Active; 'I' for Inactive)
REMARK    1  A    between atoms: C_2  and  C_4 
REMARK    2  A    between atoms: C_4  and  O_5 
REMARK    3  A    between atoms: O_5  and  C_6 
REMARK    4  A    between atoms: C_6  and  C_8 
REMARK       I    between atoms: C_8  and  N_10 
REMARK    5  A    between atoms: N_10  and  C_11 
REMARK    6  A    between atoms: C_11  and  C_12 
REMARK    7  A    between atoms: C_18  and  N_19 
ROOT
HETATM    1  C   UNL     1     -41.614 -53.053  13.422  1.00  0.00     0.004 A 
HETATM    2  C   UNL     1     -41.630 -54.298  14.074  1.00  0.00     0.014 A 
HETATM    3  C   UNL     1     -40.726 -54.565  15.086  1.00  0.00     0.018 A 
HETATM    4  C   UNL     1     -39.818 -53.578  15.408  1.00  0.00     0.089 A 
HETATM    5  N   UNL     1     -39.753 -52.377  14.786  1.00  0.00    -0.352 N 
ATOM      6  HN  UNL     1     -39.062 -51.682  15.068  1.00  0.00     0.166 HD
HETATM    7  C   UNL     1     -40.622 -52.117  13.781  1.00  0.00     0.111 A 
ENDROOT
BRANCH   1   8
HETATM    8  C   UNL     1     -42.638 -52.744  12.359  1.00  0.00     0.165 C 
BRANCH   8   9
HETATM    9  N   UNL     1     -43.953 -52.462  12.867  1.00  0.00    -0.355 N 
HETATM   10  C   UNL     1     -44.972 -53.384  12.862  1.00  0.00     0.246 C 
HETATM   11  O   UNL     1     -44.840 -54.546  12.488  1.00  0.00    -0.271 OA
HETATM   12  H   UNL     1     -44.192 -51.517  13.164  1.00  0.00     0.162 HD
BRANCH  10  13
HETATM   13  C   UNL     1     -46.302 -52.819  13.382  1.00  0.00     0.209 C 
HETATM   14  C   UNL     1     -46.481 -51.410  12.832  1.00  0.00     0.049 C 
BRANCH  13  15
HETATM   15  O   UNL     1     -46.297 -52.825  14.819  1.00  0.00    -0.377 OA
BRANCH  15  16
HETATM   16  C   UNL     1     -47.249 -51.931  15.389  1.00  0.00     0.172 C 
BRANCH  16  17
HETATM   17  C   UNL     1     -46.749 -51.458  16.759  1.00  0.00     0.001 C 
HETATM   18  C   UNL     1     -45.525 -50.563  16.578  1.00  0.00     0.011 C 
HETATM   19  C   UNL     1     -47.842 -50.726  17.539  1.00  0.00     0.011 C 
ENDBRANCH  16  17
ENDBRANCH  15  16
ENDBRANCH  13  15
ENDBRANCH  10  13
ENDBRANCH   8   9
ENDBRANCH   1   8
BRANCH   7  20
HETATM   20  N   UNL     1     -40.585 -50.866  13.196  1.00  0.00    -0.363 N 
HETATM   21  C   UNL     1     -41.097 -49.704  13.934  1.00  0.00     0.150 C 
HETATM   22  C   UNL     1     -41.624 -48.705  12.879  1.00  0.00     0.187 C 
HETATM   23  O   UNL     1     -40.621 -48.353  11.901  1.00  0.00    -0.388 OA
HETATM   24  C   UNL     1     -40.078 -49.527  11.265  1.00  0.00     0.187 C 
HETATM   25  C   UNL     1     -39.477 -50.479  12.313  1.00  0.00     0.150 C 
ENDBRANCH   7  20
TORSDOF 7
ENDMDL
MODEL 8
REMARK VINA RESULT:      -5.1      2.530      4.601
REMARK  7 active torsions:
REMARK  status: ('A' for Active; 'I' for Inactive)
REMARK    1  A    between atoms: C_2  and  C_4 
REMARK    2  A    between atoms: C_4  and  O_5 
REMARK    3  A    between atoms: O_5  and  C_6 
REMARK    4  A    between atoms: C_6  and  C_8 
REMARK       I    between atoms: C_8  and  N_10 
REMARK    5  A    between atoms: N_10  and  C_11 
REMARK    6  A    between atoms: C_11  and  C_12 
REMARK    7  A    between atoms: C_18  and  N_19 
ROOT
HETATM    1  C   UNL     1     -39.028 -49.313  13.245  1.00  0.00     0.004 A 
HETATM    2  C   UNL     1     -37.850 -49.358  14.011  1.00  0.00     0.014 A 
HETATM    3  C   UNL     1     -37.353 -48.206  14.593  1.00  0.00     0.018 A 
HETATM    4  C   UNL     1     -38.047 -47.033  14.378  1.00  0.00     0.089 A 
HETATM    5  N   UNL     1     -39.169 -46.944  13.627  1.00  0.00    -0.352 N 
ATOM      6  HN  UNL     1     -39.644 -46.049  13.506  1.00  0.00     0.166 HD
HETATM    7  C   UNL     1     -39.649 -48.064  13.037  1.00  0.00     0.111 A 
ENDROOT
BRANCH   1   8
HETATM    8  C   UNL     1     -39.597 -50.581  12.660  1.00  0.00     0.165 C 
BRANCH   8   9
HETATM    9  N   UNL     1     -40.713 -51.120  13.387  1.00  0.00    -0.355 N 
HETATM   10  C   UNL     1     -41.667 -51.922  12.809  1.00  0.00     0.246 C 
HETATM   11  O   UNL     1     -41.622 -52.306  11.643  1.00  0.00    -0.271 OA
HETATM   12  H   UNL     1     -40.878 -50.835  14.351  1.00  0.00     0.162 HD
BRANCH  10  13
HETATM   13  C   UNL     1     -42.802 -52.304  13.770  1.00  0.00     0.209 C 
HETATM   14  C   UNL     1     -42.942 -53.821  13.778  1.00  0.00     0.049 C 
BRANCH  13  15
HETATM   15  O   UNL     1     -44.020 -51.667  13.352  1.00  0.00    -0.377 OA
BRANCH  15  16
HETATM   16  C   UNL     1     -44.800 -51.176  14.438  1.00  0.00     0.172 C 
BRANCH  16  17
HETATM   17  C   UNL     1     -46.289 -51.376  14.130  1.00  0.00     0.001 C 
HETATM   18  C   UNL     1     -46.466 -51.713  12.651  1.00  0.00     0.011 C 
HETATM   19  C   UNL     1     -46.908 -52.464  15.009  1.00  0.00     0.011 C 
ENDBRANCH  16  17
ENDBRANCH  15  16
ENDBRANCH  13  15
ENDBRANCH  10  13
ENDBRANCH   8   9
ENDBRANCH   1   8
BRANCH   7  20
HETATM   20  N   UNL     1     -40.827 -47.970  12.324  1.00  0.00    -0.363 N 
HETATM   21  C   UNL     1     -42.102 -47.834  13.041  1.00  0.00     0.150 C 
HETATM   22  C   UNL     1     -43.184 -48.490  12.153  1.00  0.00     0.187 C 
HETATM   23  O   UNL     1     -43.224 -47.928  10.823  1.00  0.00    -0.388 OA
HETATM   24  C   UNL     1     -41.931 -47.999  10.189  1.00  0.00     0.187 C 
HETATM   25  C   UNL     1     -40.875 -47.269  11.034  1.00  0.00     0.150 C 
ENDBRANCH   7  20
TORSDOF 7
ENDMDL
MODEL 9
REMARK VINA RESULT:      -5.1      1.731      2.771
REMARK  7 active torsions:
REMARK  status: ('A' for Active; 'I' for Inactive)
REMARK    1  A    between atoms: C_2  and  C_4 
REMARK    2  A    between atoms: C_4  and  O_5 
REMARK    3  A    between atoms: O_5  and  C_6 
REMARK    4  A    between atoms: C_6  and  C_8 
REMARK       I    between atoms: C_8  and  N_10 
REMARK    5  A    between atoms: N_10  and  C_11 
REMARK    6  A    between atoms: C_11  and  C_12 
REMARK    7  A    between atoms: C_18  and  N_19 
ROOT
HETATM    1  C   UNL     1     -41.947 -49.082  12.778  1.00  0.00     0.004 A 
HETATM    2  C   UNL     1     -43.100 -48.600  12.135  1.00  0.00     0.014 A 
HETATM    3  C   UNL     1     -42.991 -47.883  10.957  1.00  0.00     0.018 A 
HETATM    4  C   UNL     1     -41.724 -47.658  10.462  1.00  0.00     0.089 A 
HETATM    5  N   UNL     1     -40.589 -48.083  11.065  1.00  0.00    -0.352 N 
ATOM      6  HN  UNL     1     -39.677 -47.891  10.651  1.00  0.00     0.166 HD
HETATM    7  C   UNL     1     -40.687 -48.767  12.229  1.00  0.00     0.111 A 
ENDROOT
BRANCH   1   8
HETATM    8  C   UNL     1     -42.073 -49.912  14.031  1.00  0.00     0.165 C 
BRANCH   8   9
HETATM    9  N   UNL     1     -42.541 -51.253  13.809  1.00  0.00    -0.355 N 
HETATM   10  C   UNL     1     -43.087 -52.029  14.803  1.00  0.00     0.246 C 
HETATM   11  O   UNL     1     -43.288 -51.633  15.947  1.00  0.00    -0.271 OA
HETATM   12  H   UNL     1     -42.387 -51.704  12.909  1.00  0.00     0.162 HD
BRANCH  10  13
HETATM   13  C   UNL     1     -43.435 -53.452  14.338  1.00  0.00     0.209 C 
HETATM   14  C   UNL     1     -42.244 -54.020  13.579  1.00  0.00     0.049 C 
BRANCH  13  15
HETATM   15  O   UNL     1     -44.612 -53.413  13.515  1.00  0.00    -0.377 OA
BRANCH  15  16
HETATM   16  C   UNL     1     -45.823 -53.509  14.258  1.00  0.00     0.172 C 
BRANCH  16  17
HETATM   17  C   UNL     1     -46.707 -52.294  13.956  1.00  0.00     0.001 C 
HETATM   18  C   UNL     1     -46.803 -51.407  15.196  1.00  0.00     0.011 C 
HETATM   19  C   UNL     1     -46.185 -51.496  12.761  1.00  0.00     0.011 C 
ENDBRANCH  16  17
ENDBRANCH  15  16
ENDBRANCH  13  15
ENDBRANCH  10  13
ENDBRANCH   8   9
ENDBRANCH   1   8
BRANCH   7  20
HETATM   20  N   UNL     1     -39.525 -49.247  12.801  1.00  0.00    -0.363 N 
HETATM   21  C   UNL     1     -38.700 -50.215  12.067  1.00  0.00     0.150 C 
HETATM   22  C   UNL     1     -37.995 -51.092  13.127  1.00  0.00     0.187 C 
HETATM   23  O   UNL     1     -37.235 -50.311  14.075  1.00  0.00    -0.388 OA
HETATM   24  C   UNL     1     -38.061 -49.312  14.707  1.00  0.00     0.187 C 
HETATM   25  C   UNL     1     -38.692 -48.388  13.652  1.00  0.00     0.150 C 
ENDBRANCH   7  20
TORSDOF 7
ENDMDL
