MODEL 1
REMARK VINA RESULT:      -6.1      0.000      0.000
REMARK  9 active torsions:
REMARK  status: ('A' for Active; 'I' for Inactive)
REMARK    1  A    between atoms: N_1  and  C_4 
REMARK    2  A    between atoms: C_6  and  N_11 
REMARK    3  A    between atoms: C_9  and  O_18 
REMARK       I    between atoms: N_11  and  C_14 
REMARK    4  A    between atoms: C_12  and  O_19 
REMARK    5  A    between atoms: C_14  and  O_20 
REMARK    6  A    between atoms: O_20  and  C_22 
REMARK    7  A    between atoms: C_22  and  C_23 
REMARK    8  A    between atoms: C_23  and  C_25 
REMARK    9  A    between atoms: C_24  and  C_25 
ROOT
HETATM    1  N   UNL     1     -41.232 -51.995  13.109  1.00  0.00    -0.277 N 
HETATM    2  N   UNL     1     -42.188 -53.825  14.294  1.00  0.00    -0.292 N 
ATOM      3  HN  UNL     1     -42.262 -54.825  14.484  1.00  0.00     0.172 HD
HETATM    4  C   UNL     1     -41.330 -53.377  13.332  1.00  0.00     0.330 A 
HETATM    5  C   UNL     1     -42.903 -52.994  14.961  1.00  0.00     0.154 A 
HETATM    6  C   UNL     1     -42.039 -51.103  13.819  1.00  0.00     0.144 A 
HETATM    7  C   UNL     1     -42.870 -51.539  14.760  1.00  0.00     0.176 A 
HETATM    8  O   UNL     1     -40.682 -54.184  12.681  1.00  0.00    -0.246 OA
HETATM    9  F   UNL     1     -43.683 -50.749  15.481  1.00  0.00    -0.201 F 
ENDROOT
BRANCH   1  10
HETATM   10  C   UNL     1     -40.361 -51.469  12.048  1.00  0.00     0.263 C 
HETATM   11  C   UNL     1     -40.594 -50.048  11.491  1.00  0.00     0.198 C 
HETATM   12  C   UNL     1     -39.575 -49.181  12.239  1.00  0.00     0.179 C 
HETATM   13  C   UNL     1     -38.581 -50.177  12.849  1.00  0.00     0.151 C 
HETATM   14  O   UNL     1     -38.992 -51.512  12.492  1.00  0.00    -0.356 OA
HETATM   15  C   UNL     1     -38.490 -50.095  14.371  1.00  0.00     0.042 C 
BRANCH  11  16
HETATM   16  O   UNL     1     -40.323 -50.001  10.076  1.00  0.00    -0.388 OA
HETATM   17  H   UNL     1     -40.367 -49.075   9.786  1.00  0.00     0.210 HD
ENDBRANCH  11  16
BRANCH  12  18
HETATM   18  O   UNL     1     -38.885 -48.257  11.386  1.00  0.00    -0.390 OA
HETATM   19  H   UNL     1     -39.550 -47.667  10.991  1.00  0.00     0.210 HD
ENDBRANCH  12  18
ENDBRANCH   1  10
BRANCH   5  20
HETATM   20  N   UNL     1     -43.790 -53.436  15.915  1.00  0.00    -0.286 N 
HETATM   21  C   UNL     1     -44.681 -54.471  15.712  1.00  0.00     0.366 C 
HETATM   22  O   UNL     1     -44.683 -55.307  14.823  1.00  0.00    -0.238 OA
HETATM   23  H   UNL     1     -44.014 -52.844  16.696  1.00  0.00     0.172 HD
BRANCH  21  24
HETATM   24  O   UNL     1     -45.662 -54.383  16.649  1.00  0.00    -0.304 OA
BRANCH  24  25
HETATM   25  C   UNL     1     -46.366 -53.138  16.589  1.00  0.00     0.180 C 
BRANCH  25  26
HETATM   26  C   UNL     1     -47.087 -52.882  15.267  1.00  0.00     0.027 C 
BRANCH  26  27
HETATM   27  C   UNL     1     -46.800 -51.439  14.833  1.00  0.00     0.002 C 
BRANCH  27  28
HETATM   28  C   UNL     1     -46.381 -51.316  13.373  1.00  0.00    -0.004 C 
HETATM   29  C   UNL     1     -45.968 -52.672  12.813  1.00  0.00     0.005 C 
ENDBRANCH  27  28
ENDBRANCH  26  27
ENDBRANCH  25  26
ENDBRANCH  24  25
ENDBRANCH  21  24
ENDBRANCH   5  20
TORSDOF 9
ENDMDL
MODEL 2
REMARK VINA RESULT:      -5.8      3.246      4.830
REMARK  9 active torsions:
REMARK  status: ('A' for Active; 'I' for Inactive)
REMARK    1  A    between atoms: N_1  and  C_4 
REMARK    2  A    between atoms: C_6  and  N_11 
REMARK    3  A    between atoms: C_9  and  O_18 
REMARK       I    between atoms: N_11  and  C_14 
REMARK    4  A    between atoms: C_12  and  O_19 
REMARK    5  A    between atoms: C_14  and  O_20 
REMARK    6  A    between atoms: O_20  and  C_22 
REMARK    7  A    between atoms: C_22  and  C_23 
REMARK    8  A    between atoms: C_23  and  C_25 
REMARK    9  A    between atoms: C_24  and  C_25 
ROOT
HETATM    1  N   UNL     1     -40.597 -47.448  11.492  1.00  0.00    -0.277 N 
HETATM    2  N   UNL     1     -40.682 -49.726  12.182  1.00  0.00    -0.292 N 
ATOM      3  HN  UNL     1     -40.223 -50.583  12.490  1.00  0.00     0.172 HD
HETATM    4  C   UNL     1     -39.936 -48.621  11.890  1.00  0.00     0.330 A 
HETATM    5  C   UNL     1     -41.960 -49.690  12.072  1.00  0.00     0.154 A 
HETATM    6  C   UNL     1     -41.985 -47.433  11.343  1.00  0.00     0.144 A 
HETATM    7  C   UNL     1     -42.713 -48.507  11.633  1.00  0.00     0.176 A 
HETATM    8  O   UNL     1     -38.717 -48.681  11.967  1.00  0.00    -0.246 OA
HETATM    9  F   UNL     1     -44.049 -48.576  11.511  1.00  0.00    -0.201 F 
ENDROOT
BRANCH   1  10
HETATM   10  C   UNL     1     -39.832 -46.250  11.115  1.00  0.00     0.263 C 
HETATM   11  C   UNL     1     -40.452 -45.206  10.163  1.00  0.00     0.198 C 
HETATM   12  C   UNL     1     -40.983 -44.115  11.099  1.00  0.00     0.179 C 
HETATM   13  C   UNL     1     -40.301 -44.383  12.446  1.00  0.00     0.151 C 
HETATM   14  O   UNL     1     -39.449 -45.538  12.307  1.00  0.00    -0.356 OA
HETATM   15  C   UNL     1     -41.281 -44.645  13.586  1.00  0.00     0.042 C 
BRANCH  11  16
HETATM   16  O   UNL     1     -39.450 -44.649   9.290  1.00  0.00    -0.388 OA
HETATM   17  H   UNL     1     -38.936 -45.380   8.906  1.00  0.00     0.210 HD
ENDBRANCH  11  16
BRANCH  12  18
HETATM   18  O   UNL     1     -40.680 -42.787  10.648  1.00  0.00    -0.390 OA
HETATM   19  H   UNL     1     -40.514 -42.831   9.691  1.00  0.00     0.210 HD
ENDBRANCH  12  18
ENDBRANCH   1  10
BRANCH   5  20
HETATM   20  N   UNL     1     -42.720 -50.805  12.339  1.00  0.00    -0.286 N 
HETATM   21  C   UNL     1     -42.241 -52.097  12.255  1.00  0.00     0.366 C 
HETATM   22  O   UNL     1     -41.082 -52.475  12.196  1.00  0.00    -0.238 OA
HETATM   23  H   UNL     1     -43.723 -50.735  12.333  1.00  0.00     0.172 HD
BRANCH  21  24
HETATM   24  O   UNL     1     -43.302 -52.944  12.164  1.00  0.00    -0.304 OA
BRANCH  24  25
HETATM   25  C   UNL     1     -44.175 -52.849  13.294  1.00  0.00     0.180 C 
BRANCH  25  26
HETATM   26  C   UNL     1     -45.656 -53.024  12.964  1.00  0.00     0.027 C 
BRANCH  26  27
HETATM   27  C   UNL     1     -46.380 -51.712  13.292  1.00  0.00     0.002 C 
BRANCH  27  28
HETATM   28  C   UNL     1     -46.091 -51.193  14.696  1.00  0.00    -0.004 C 
HETATM   29  C   UNL     1     -47.199 -51.596  15.660  1.00  0.00     0.005 C 
ENDBRANCH  27  28
ENDBRANCH  26  27
ENDBRANCH  25  26
ENDBRANCH  24  25
ENDBRANCH  21  24
ENDBRANCH   5  20
TORSDOF 9
ENDMDL
MODEL 3
REMARK VINA RESULT:      -5.8      2.899      6.591
REMARK  9 active torsions:
REMARK  status: ('A' for Active; 'I' for Inactive)
REMARK    1  A    between atoms: N_1  and  C_4 
REMARK    2  A    between atoms: C_6  and  N_11 
REMARK    3  A    between atoms: C_9  and  O_18 
REMARK       I    between atoms: N_11  and  C_14 
REMARK    4  A    between atoms: C_12  and  O_19 
REMARK    5  A    between atoms: C_14  and  O_20 
REMARK    6  A    between atoms: O_20  and  C_22 
REMARK    7  A    between atoms: C_22  and  C_23 
REMARK    8  A    between atoms: C_23  and  C_25 
REMARK    9  A    between atoms: C_24  and  C_25 
ROOT
HETATM    1  N   UNL     1     -41.840 -52.125  13.478  1.00  0.00    -0.277 N 
HETATM    2  N   UNL     1     -40.835 -51.047  11.607  1.00  0.00    -0.292 N 
ATOM      3  HN  UNL     1     -40.151 -51.026  10.852  1.00  0.00     0.172 HD
HETATM    4  C   UNL     1     -40.872 -52.111  12.462  1.00  0.00     0.330 A 
HETATM    5  C   UNL     1     -41.660 -50.074  11.751  1.00  0.00     0.154 A 
HETATM    6  C   UNL     1     -42.709 -51.045  13.643  1.00  0.00     0.144 A 
HETATM    7  C   UNL     1     -42.678 -50.012  12.808  1.00  0.00     0.176 A 
HETATM    8  O   UNL     1     -40.057 -53.013  12.334  1.00  0.00    -0.246 OA
HETATM    9  F   UNL     1     -43.474 -48.933  12.901  1.00  0.00    -0.201 F 
ENDROOT
BRANCH   1  10
HETATM   10  C   UNL     1     -41.883 -53.223  14.455  1.00  0.00     0.263 C 
HETATM   11  C   UNL     1     -42.674 -53.056  15.770  1.00  0.00     0.198 C 
HETATM   12  C   UNL     1     -44.012 -53.751  15.492  1.00  0.00     0.179 C 
HETATM   13  C   UNL     1     -43.766 -54.597  14.238  1.00  0.00     0.151 C 
HETATM   14  O   UNL     1     -42.400 -54.406  13.816  1.00  0.00    -0.356 OA
HETATM   15  C   UNL     1     -44.682 -54.240  13.070  1.00  0.00     0.042 C 
BRANCH  11  16
HETATM   16  O   UNL     1     -42.002 -53.719  16.859  1.00  0.00    -0.388 OA
HETATM   17  H   UNL     1     -41.540 -53.047  17.389  1.00  0.00     0.210 HD
ENDBRANCH  11  16
BRANCH  12  18
HETATM   18  O   UNL     1     -44.449 -54.586  16.573  1.00  0.00    -0.390 OA
HETATM   19  H   UNL     1     -44.763 -55.424  16.191  1.00  0.00     0.210 HD
ENDBRANCH  12  18
ENDBRANCH   1  10
BRANCH   5  20
HETATM   20  N   UNL     1     -41.615 -48.986  10.911  1.00  0.00    -0.286 N 
HETATM   21  C   UNL     1     -40.773 -47.908  11.097  1.00  0.00     0.366 C 
HETATM   22  O   UNL     1     -39.794 -47.826  11.822  1.00  0.00    -0.238 OA
HETATM   23  H   UNL     1     -42.386 -48.806  10.291  1.00  0.00     0.172 HD
BRANCH  21  24
HETATM   24  O   UNL     1     -41.252 -46.859  10.377  1.00  0.00    -0.304 OA
BRANCH  24  25
HETATM   25  C   UNL     1     -42.679 -46.762  10.435  1.00  0.00     0.180 C 
BRANCH  25  26
HETATM   26  C   UNL     1     -43.339 -46.344   9.123  1.00  0.00     0.027 C 
BRANCH  26  27
HETATM   27  C   UNL     1     -44.279 -47.471   8.677  1.00  0.00     0.002 C 
BRANCH  27  28
HETATM   28  C   UNL     1     -45.558 -47.557   9.503  1.00  0.00    -0.004 C 
HETATM   29  C   UNL     1     -46.623 -48.361   8.767  1.00  0.00     0.005 C 
ENDBRANCH  27  28
ENDBRANCH  26  27
ENDBRANCH  25  26
ENDBRANCH  24  25
ENDBRANCH  21  24
ENDBRANCH   5  20
TORSDOF 9
ENDMDL
MODEL 4
REMARK VINA RESULT:      -5.8      4.038      5.375
REMARK  9 active torsions:
REMARK  status: ('A' for Active; 'I' for Inactive)
REMARK    1  A    between atoms: N_1  and  C_4 
REMARK    2  A    between atoms: C_6  and  N_11 
REMARK    3  A    between atoms: C_9  and  O_18 
REMARK       I    between atoms: N_11  and  C_14 
REMARK    4  A    between atoms: C_12  and  O_19 
REMARK    5  A    between atoms: C_14  and  O_20 
REMARK    6  A    between atoms: O_20  and  C_22 
REMARK    7  A    between atoms: C_22  and  C_23 
REMARK    8  A    between atoms: C_23  and  C_25 
REMARK    9  A    between atoms: C_24  and  C_25 
ROOT
HETATM    1  N   UNL     1     -42.573 -46.569  11.164  1.00  0.00    -0.277 N 
HETATM    2  N   UNL     1     -42.916 -48.926  11.213  1.00  0.00    -0.292 N 
ATOM      3  HN  UNL     1     -43.004 -49.824  10.739  1.00  0.00     0.172 HD
HETATM    4  C   UNL     1     -42.714 -47.789  10.484  1.00  0.00     0.330 A 
HETATM    5  C   UNL     1     -42.994 -48.867  12.493  1.00  0.00     0.154 A 
HETATM    6  C   UNL     1     -42.694 -46.515  12.554  1.00  0.00     0.144 A 
HETATM    7  C   UNL     1     -42.884 -47.622  13.265  1.00  0.00     0.176 A 
HETATM    8  O   UNL     1     -42.676 -47.856   9.264  1.00  0.00    -0.246 OA
HETATM    9  F   UNL     1     -43.017 -47.654  14.601  1.00  0.00    -0.201 F 
ENDROOT
BRANCH   1  10
HETATM   10  C   UNL     1     -42.408 -45.313  10.419  1.00  0.00     0.263 C 
HETATM   11  C   UNL     1     -42.709 -43.963  11.105  1.00  0.00     0.198 C 
HETATM   12  C   UNL     1     -41.332 -43.449  11.540  1.00  0.00     0.179 C 
HETATM   13  C   UNL     1     -40.327 -44.294  10.749  1.00  0.00     0.151 C 
HETATM   14  O   UNL     1     -41.057 -45.227   9.927  1.00  0.00    -0.356 OA
HETATM   15  C   UNL     1     -39.365 -45.084  11.632  1.00  0.00     0.042 C 
BRANCH  11  16
HETATM   16  O   UNL     1     -43.300 -43.036  10.173  1.00  0.00    -0.388 OA
HETATM   17  H   UNL     1     -42.599 -42.454   9.832  1.00  0.00     0.210 HD
ENDBRANCH  11  16
BRANCH  12  18
HETATM   18  O   UNL     1     -41.135 -42.056  11.259  1.00  0.00    -0.390 OA
HETATM   19  H   UNL     1     -41.106 -41.584  12.109  1.00  0.00     0.210 HD
ENDBRANCH  12  18
ENDBRANCH   1  10
BRANCH   5  20
HETATM   20  N   UNL     1     -43.223 -50.002  13.235  1.00  0.00    -0.286 N 
HETATM   21  C   UNL     1     -42.626 -51.220  12.978  1.00  0.00     0.366 C 
HETATM   22  O   UNL     1     -41.658 -51.457  12.273  1.00  0.00    -0.238 OA
HETATM   23  H   UNL     1     -44.041 -50.057  13.817  1.00  0.00     0.172 HD
BRANCH  21  24
HETATM   24  O   UNL     1     -43.353 -52.193  13.590  1.00  0.00    -0.304 OA
BRANCH  24  25
HETATM   25  C   UNL     1     -44.082 -52.999  12.660  1.00  0.00     0.180 C 
BRANCH  25  26
HETATM   26  C   UNL     1     -45.488 -53.380  13.120  1.00  0.00     0.027 C 
BRANCH  26  27
HETATM   27  C   UNL     1     -46.422 -52.195  12.847  1.00  0.00     0.002 C 
BRANCH  27  28
HETATM   28  C   UNL     1     -46.680 -51.330  14.076  1.00  0.00    -0.004 C 
HETATM   29  C   UNL     1     -46.991 -52.197  15.291  1.00  0.00     0.005 C 
ENDBRANCH  27  28
ENDBRANCH  26  27
ENDBRANCH  25  26
ENDBRANCH  24  25
ENDBRANCH  21  24
ENDBRANCH   5  20
TORSDOF 9
ENDMDL
MODEL 5
REMARK VINA RESULT:      -5.7      3.656      5.828
REMARK  9 active torsions:
REMARK  status: ('A' for Active; 'I' for Inactive)
REMARK    1  A    between atoms: N_1  and  C_4 
REMARK    2  A    between atoms: C_6  and  N_11 
REMARK    3  A    between atoms: C_9  and  O_18 
REMARK       I    between atoms: N_11  and  C_14 
REMARK    4  A    between atoms: C_12  and  O_19 
REMARK    5  A    between atoms: C_14  and  O_20 
REMARK    6  A    between atoms: O_20  and  C_22 
REMARK    7  A    between atoms: C_22  and  C_23 
REMARK    8  A    between atoms: C_23  and  C_25 
REMARK    9  A    between atoms: C_24  and  C_25 
ROOT
HETATM    1  N   UNL     1     -41.673 -47.124  11.502  1.00  0.00    -0.277 N 
HETATM    2  N   UNL     1     -41.544 -49.322  10.594  1.00  0.00    -0.292 N 
ATOM      3  HN  UNL     1     -41.781 -50.007   9.876  1.00  0.00     0.172 HD
HETATM    4  C   UNL     1     -42.036 -48.052  10.512  1.00  0.00     0.330 A 
HETATM    5  C   UNL     1     -40.783 -49.659  11.571  1.00  0.00     0.154 A 
HETATM    6  C   UNL     1     -40.872 -47.513  12.577  1.00  0.00     0.144 A 
HETATM    7  C   UNL     1     -40.387 -48.748  12.654  1.00  0.00     0.176 A 
HETATM    8  O   UNL     1     -42.787 -47.756   9.594  1.00  0.00    -0.246 OA
HETATM    9  F   UNL     1     -39.617 -49.202  13.657  1.00  0.00    -0.201 F 
ENDROOT
BRANCH   1  10
HETATM   10  C   UNL     1     -42.221 -45.760  11.484  1.00  0.00     0.263 C 
HETATM   11  C   UNL     1     -41.988 -44.819  12.685  1.00  0.00     0.198 C 
HETATM   12  C   UNL     1     -40.804 -43.947  12.252  1.00  0.00     0.179 C 
HETATM   13  C   UNL     1     -40.699 -44.148  10.736  1.00  0.00     0.151 C 
HETATM   14  O   UNL     1     -41.730 -45.067  10.322  1.00  0.00    -0.356 OA
HETATM   15  C   UNL     1     -39.352 -44.706  10.286  1.00  0.00     0.042 C 
BRANCH  11  16
HETATM   16  O   UNL     1     -43.143 -43.988  12.917  1.00  0.00    -0.388 OA
HETATM   17  H   UNL     1     -43.873 -44.554  13.219  1.00  0.00     0.210 HD
ENDBRANCH  11  16
BRANCH  12  18
HETATM   18  O   UNL     1     -40.988 -42.556  12.554  1.00  0.00    -0.390 OA
HETATM   19  H   UNL     1     -41.453 -42.497  13.406  1.00  0.00     0.210 HD
ENDBRANCH  12  18
ENDBRANCH   1  10
BRANCH   5  20
HETATM   20  N   UNL     1     -40.302 -50.943  11.677  1.00  0.00    -0.286 N 
HETATM   21  C   UNL     1     -41.085 -52.029  12.013  1.00  0.00     0.366 C 
HETATM   22  O   UNL     1     -42.303 -52.114  12.021  1.00  0.00    -0.238 OA
HETATM   23  H   UNL     1     -39.315 -51.095  11.788  1.00  0.00     0.172 HD
BRANCH  21  24
HETATM   24  O   UNL     1     -40.270 -53.033  12.435  1.00  0.00    -0.304 OA
BRANCH  24  25
HETATM   25  C   UNL     1     -40.999 -54.144  12.965  1.00  0.00     0.180 C 
BRANCH  25  26
HETATM   26  C   UNL     1     -40.992 -54.236  14.490  1.00  0.00     0.027 C 
BRANCH  26  27
HETATM   27  C   UNL     1     -42.310 -54.879  14.940  1.00  0.00     0.002 C 
BRANCH  27  28
HETATM   28  C   UNL     1     -43.533 -54.011  14.667  1.00  0.00    -0.004 C 
HETATM   29  C   UNL     1     -44.636 -54.826  14.003  1.00  0.00     0.005 C 
ENDBRANCH  27  28
ENDBRANCH  26  27
ENDBRANCH  25  26
ENDBRANCH  24  25
ENDBRANCH  21  24
ENDBRANCH   5  20
TORSDOF 9
ENDMDL
MODEL 6
REMARK VINA RESULT:      -5.5      3.320      4.937
REMARK  9 active torsions:
REMARK  status: ('A' for Active; 'I' for Inactive)
REMARK    1  A    between atoms: N_1  and  C_4 
REMARK    2  A    between atoms: C_6  and  N_11 
REMARK    3  A    between atoms: C_9  and  O_18 
REMARK       I    between atoms: N_11  and  C_14 
REMARK    4  A    between atoms: C_12  and  O_19 
REMARK    5  A    between atoms: C_14  and  O_20 
REMARK    6  A    between atoms: O_20  and  C_22 
REMARK    7  A    between atoms: C_22  and  C_23 
REMARK    8  A    between atoms: C_23  and  C_25 
REMARK    9  A    between atoms: C_24  and  C_25 
ROOT
HETATM    1  N   UNL     1     -41.501 -47.864  11.342  1.00  0.00    -0.277 N 
HETATM    2  N   UNL     1     -40.329 -49.444  12.685  1.00  0.00    -0.292 N 
ATOM      3  HN  UNL     1     -39.461 -49.833  13.051  1.00  0.00     0.172 HD
HETATM    4  C   UNL     1     -40.290 -48.395  11.811  1.00  0.00     0.330 A 
HETATM    5  C   UNL     1     -41.456 -49.941  13.047  1.00  0.00     0.154 A 
HETATM    6  C   UNL     1     -42.718 -48.436  11.718  1.00  0.00     0.144 A 
HETATM    7  C   UNL     1     -42.758 -49.453  12.573  1.00  0.00     0.176 A 
HETATM    8  O   UNL     1     -39.209 -47.955  11.449  1.00  0.00    -0.246 OA
HETATM    9  F   UNL     1     -43.884 -50.062  12.979  1.00  0.00    -0.201 F 
ENDROOT
BRANCH   1  10
HETATM   10  C   UNL     1     -41.507 -46.770  10.359  1.00  0.00     0.263 C 
HETATM   11  C   UNL     1     -42.817 -46.389   9.637  1.00  0.00     0.198 C 
HETATM   12  C   UNL     1     -43.341 -45.182  10.424  1.00  0.00     0.179 C 
HETATM   13  C   UNL     1     -42.146 -44.706  11.258  1.00  0.00     0.151 C 
HETATM   14  O   UNL     1     -41.023 -45.568  10.985  1.00  0.00    -0.356 OA
HETATM   15  C   UNL     1     -42.406 -44.721  12.762  1.00  0.00     0.042 C 
BRANCH  11  16
HETATM   16  O   UNL     1     -42.555 -46.001   8.274  1.00  0.00    -0.388 OA
HETATM   17  H   UNL     1     -42.567 -45.030   8.223  1.00  0.00     0.210 HD
ENDBRANCH  11  16
BRANCH  12  18
HETATM   18  O   UNL     1     -43.810 -44.120   9.582  1.00  0.00    -0.390 OA
HETATM   19  H   UNL     1     -43.345 -43.307   9.846  1.00  0.00     0.210 HD
ENDBRANCH  12  18
ENDBRANCH   1  10
BRANCH   5  20
HETATM   20  N   UNL     1     -41.506 -51.013  13.906  1.00  0.00    -0.286 N 
HETATM   21  C   UNL     1     -40.881 -52.219  13.665  1.00  0.00     0.366 C 
HETATM   22  O   UNL     1     -40.011 -52.473  12.846  1.00  0.00    -0.238 OA
HETATM   23  H   UNL     1     -42.227 -51.054  14.606  1.00  0.00     0.172 HD
BRANCH  21  24
HETATM   24  O   UNL     1     -41.451 -53.166  14.457  1.00  0.00    -0.304 OA
BRANCH  24  25
HETATM   25  C   UNL     1     -42.181 -54.141  13.705  1.00  0.00     0.180 C 
BRANCH  25  26
HETATM   26  C   UNL     1     -43.292 -54.840  14.486  1.00  0.00     0.027 C 
BRANCH  26  27
HETATM   27  C   UNL     1     -44.633 -54.501  13.825  1.00  0.00     0.002 C 
BRANCH  27  28
HETATM   28  C   UNL     1     -44.512 -53.490  12.690  1.00  0.00    -0.004 C 
HETATM   29  C   UNL     1     -45.802 -52.693  12.538  1.00  0.00     0.005 C 
ENDBRANCH  27  28
ENDBRANCH  26  27
ENDBRANCH  25  26
ENDBRANCH  24  25
ENDBRANCH  21  24
ENDBRANCH   5  20
TORSDOF 9
ENDMDL
MODEL 7
REMARK VINA RESULT:      -5.5      4.154      6.363
REMARK  9 active torsions:
REMARK  status: ('A' for Active; 'I' for Inactive)
REMARK    1  A    between atoms: N_1  and  C_4 
REMARK    2  A    between atoms: C_6  and  N_11 
REMARK    3  A    between atoms: C_9  and  O_18 
REMARK       I    between atoms: N_11  and  C_14 
REMARK    4  A    between atoms: C_12  and  O_19 
REMARK    5  A    between atoms: C_14  and  O_20 
REMARK    6  A    between atoms: O_20  and  C_22 
REMARK    7  A    between atoms: C_22  and  C_23 
REMARK    8  A    between atoms: C_23  and  C_25 
REMARK    9  A    between atoms: C_24  and  C_25 
ROOT
HETATM    1  N   UNL     1     -41.406 -46.947  11.622  1.00  0.00    -0.277 N 
HETATM    2  N   UNL     1     -42.070 -49.150  11.010  1.00  0.00    -0.292 N 
ATOM      3  HN  UNL     1     -42.761 -49.804  10.643  1.00  0.00     0.172 HD
HETATM    4  C   UNL     1     -42.385 -47.828  11.137  1.00  0.00     0.330 A 
HETATM    5  C   UNL     1     -40.907 -49.573  11.350  1.00  0.00     0.154 A 
HETATM    6  C   UNL     1     -40.156 -47.425  12.019  1.00  0.00     0.144 A 
HETATM    7  C   UNL     1     -39.847 -48.711  11.890  1.00  0.00     0.176 A 
HETATM    8  O   UNL     1     -43.508 -47.447  10.841  1.00  0.00    -0.246 OA
HETATM    9  F   UNL     1     -38.672 -49.251  12.255  1.00  0.00    -0.201 F 
ENDROOT
BRANCH   1  10
HETATM   10  C   UNL     1     -41.717 -45.524  11.825  1.00  0.00     0.263 C 
HETATM   11  C   UNL     1     -40.975 -44.720  12.915  1.00  0.00     0.198 C 
HETATM   12  C   UNL     1     -39.870 -43.984  12.149  1.00  0.00     0.179 C 
HETATM   13  C   UNL     1     -40.281 -44.077  10.675  1.00  0.00     0.151 C 
HETATM   14  O   UNL     1     -41.518 -44.813  10.589  1.00  0.00    -0.356 OA
HETATM   15  C   UNL     1     -39.247 -44.774   9.796  1.00  0.00     0.042 C 
BRANCH  11  16
HETATM   16  O   UNL     1     -41.856 -43.763  13.534  1.00  0.00    -0.388 OA
HETATM   17  H   UNL     1     -42.736 -44.167  13.622  1.00  0.00     0.210 HD
ENDBRANCH  11  16
BRANCH  12  18
HETATM   18  O   UNL     1     -39.735 -42.610  12.537  1.00  0.00    -0.390 OA
HETATM   19  H   UNL     1     -40.179 -42.066  11.863  1.00  0.00     0.210 HD
ENDBRANCH  12  18
ENDBRANCH   1  10
BRANCH   5  20
HETATM   20  N   UNL     1     -40.588 -50.907  11.250  1.00  0.00    -0.286 N 
HETATM   21  C   UNL     1     -41.278 -51.911  11.898  1.00  0.00     0.366 C 
HETATM   22  O   UNL     1     -42.377 -51.857  12.428  1.00  0.00    -0.238 OA
HETATM   23  H   UNL     1     -39.674 -51.175  10.928  1.00  0.00     0.172 HD
BRANCH  21  24
HETATM   24  O   UNL     1     -40.490 -53.019  11.938  1.00  0.00    -0.304 OA
BRANCH  24  25
HETATM   25  C   UNL     1     -40.884 -53.934  12.966  1.00  0.00     0.180 C 
BRANCH  25  26
HETATM   26  C   UNL     1     -39.777 -54.286  13.957  1.00  0.00     0.027 C 
BRANCH  26  27
HETATM   27  C   UNL     1     -40.087 -53.595  15.291  1.00  0.00     0.002 C 
BRANCH  27  28
HETATM   28  C   UNL     1     -38.985 -52.651  15.758  1.00  0.00    -0.004 C 
HETATM   29  C   UNL     1     -38.779 -51.523  14.753  1.00  0.00     0.005 C 
ENDBRANCH  27  28
ENDBRANCH  26  27
ENDBRANCH  25  26
ENDBRANCH  24  25
ENDBRANCH  21  24
ENDBRANCH   5  20
TORSDOF 9
ENDMDL
MODEL 8
REMARK VINA RESULT:      -5.4      3.787      6.186
REMARK  9 active torsions:
REMARK  status: ('A' for Active; 'I' for Inactive)
REMARK    1  A    between atoms: N_1  and  C_4 
REMARK    2  A    between atoms: C_6  and  N_11 
REMARK    3  A    between atoms: C_9  and  O_18 
REMARK       I    between atoms: N_11  and  C_14 
REMARK    4  A    between atoms: C_12  and  O_19 
REMARK    5  A    between atoms: C_14  and  O_20 
REMARK    6  A    between atoms: O_20  and  C_22 
REMARK    7  A    between atoms: C_22  and  C_23 
REMARK    8  A    between atoms: C_23  and  C_25 
REMARK    9  A    between atoms: C_24  and  C_25 
ROOT
HETATM    1  N   UNL     1     -40.853 -47.049  10.857  1.00  0.00    -0.277 N 
HETATM    2  N   UNL     1     -41.230 -49.387  10.612  1.00  0.00    -0.292 N 
ATOM      3  HN  UNL     1     -41.768 -50.170  10.243  1.00  0.00     0.172 HD
HETATM    4  C   UNL     1     -41.627 -48.107  10.356  1.00  0.00     0.330 A 
HETATM    5  C   UNL     1     -40.180 -49.609  11.317  1.00  0.00     0.154 A 
HETATM    6  C   UNL     1     -39.733 -47.304  11.650  1.00  0.00     0.144 A 
HETATM    7  C   UNL     1     -39.342 -48.551  11.895  1.00  0.00     0.176 A 
HETATM    8  O   UNL     1     -42.648 -47.912   9.713  1.00  0.00    -0.246 OA
HETATM    9  F   UNL     1     -38.282 -48.881  12.652  1.00  0.00    -0.201 F 
ENDROOT
BRANCH   1  10
HETATM   10  C   UNL     1     -41.271 -45.654  10.652  1.00  0.00     0.263 C 
HETATM   11  C   UNL     1     -42.689 -45.204  11.064  1.00  0.00     0.198 C 
HETATM   12  C   UNL     1     -42.490 -44.549  12.435  1.00  0.00     0.179 C 
HETATM   13  C   UNL     1     -40.981 -44.300  12.539  1.00  0.00     0.151 C 
HETATM   14  O   UNL     1     -40.353 -44.779  11.332  1.00  0.00    -0.356 OA
HETATM   15  C   UNL     1     -40.327 -44.999  13.727  1.00  0.00     0.042 C 
BRANCH  11  16
HETATM   16  O   UNL     1     -43.209 -44.233  10.134  1.00  0.00    -0.388 OA
HETATM   17  H   UNL     1     -42.801 -43.373  10.328  1.00  0.00     0.210 HD
ENDBRANCH  11  16
BRANCH  12  18
HETATM   18  O   UNL     1     -43.204 -43.313  12.579  1.00  0.00    -0.390 OA
HETATM   19  H   UNL     1     -44.026 -43.384  12.063  1.00  0.00     0.210 HD
ENDBRANCH  12  18
ENDBRANCH   1  10
BRANCH   5  20
HETATM   20  N   UNL     1     -39.785 -50.895  11.603  1.00  0.00    -0.286 N 
HETATM   21  C   UNL     1     -40.634 -51.866  12.096  1.00  0.00     0.366 C 
HETATM   22  O   UNL     1     -41.854 -51.865  12.123  1.00  0.00    -0.238 OA
HETATM   23  H   UNL     1     -38.809 -51.098  11.728  1.00  0.00     0.172 HD
BRANCH  21  24
HETATM   24  O   UNL     1     -39.881 -52.853  12.652  1.00  0.00    -0.304 OA
BRANCH  24  25
HETATM   25  C   UNL     1     -39.580 -52.601  14.029  1.00  0.00     0.180 C 
BRANCH  25  26
HETATM   26  C   UNL     1     -39.107 -53.827  14.807  1.00  0.00     0.027 C 
BRANCH  26  27
HETATM   27  C   UNL     1     -40.304 -54.764  15.005  1.00  0.00     0.002 C 
BRANCH  27  28
HETATM   28  C   UNL     1     -41.604 -54.031  15.321  1.00  0.00    -0.004 C 
HETATM   29  C   UNL     1     -42.751 -54.581  14.482  1.00  0.00     0.005 C 
ENDBRANCH  27  28
ENDBRANCH  26  27
ENDBRANCH  25  26
ENDBRANCH  24  25
ENDBRANCH  21  24
ENDBRANCH   5  20
TORSDOF 9
ENDMDL
MODEL 9
REMARK VINA RESULT:      -5.2      3.348      5.251
REMARK  9 active torsions:
REMARK  status: ('A' for Active; 'I' for Inactive)
REMARK    1  A    between atoms: N_1  and  C_4 
REMARK    2  A    between atoms: C_6  and  N_11 
REMARK    3  A    between atoms: C_9  and  O_18 
REMARK       I    between atoms: N_11  and  C_14 
REMARK    4  A    between atoms: C_12  and  O_19 
REMARK    5  A    between atoms: C_14  and  O_20 
REMARK    6  A    between atoms: O_20  and  C_22 
REMARK    7  A    between atoms: C_22  and  C_23 
REMARK    8  A    between atoms: C_23  and  C_25 
REMARK    9  A    between atoms: C_24  and  C_25 
ROOT
HETATM    1  N   UNL     1     -40.545 -47.494  11.525  1.00  0.00    -0.277 N 
HETATM    2  N   UNL     1     -40.629 -49.752  12.278  1.00  0.00    -0.292 N 
ATOM      3  HN  UNL     1     -40.168 -50.600  12.605  1.00  0.00     0.172 HD
HETATM    4  C   UNL     1     -39.883 -48.656  11.949  1.00  0.00     0.330 A 
HETATM    5  C   UNL     1     -41.908 -49.716  12.179  1.00  0.00     0.154 A 
HETATM    6  C   UNL     1     -41.935 -47.480  11.389  1.00  0.00     0.144 A 
HETATM    7  C   UNL     1     -42.662 -48.543  11.715  1.00  0.00     0.176 A 
HETATM    8  O   UNL     1     -38.664 -48.717  12.016  1.00  0.00    -0.246 OA
HETATM    9  F   UNL     1     -43.999 -48.613  11.608  1.00  0.00    -0.201 F 
ENDROOT
BRANCH   1  10
HETATM   10  C   UNL     1     -39.782 -46.308  11.109  1.00  0.00     0.263 C 
HETATM   11  C   UNL     1     -40.421 -45.272  10.160  1.00  0.00     0.198 C 
HETATM   12  C   UNL     1     -40.914 -44.163  11.096  1.00  0.00     0.179 C 
HETATM   13  C   UNL     1     -40.194 -44.418  12.426  1.00  0.00     0.151 C 
HETATM   14  O   UNL     1     -39.357 -45.583  12.278  1.00  0.00    -0.356 OA
HETATM   15  C   UNL     1     -41.142 -44.655  13.598  1.00  0.00     0.042 C 
BRANCH  11  16
HETATM   16  O   UNL     1     -39.440 -44.737   9.250  1.00  0.00    -0.388 OA
HETATM   17  H   UNL     1     -39.137 -43.880   9.595  1.00  0.00     0.210 HD
ENDBRANCH  11  16
BRANCH  12  18
HETATM   18  O   UNL     1     -40.613 -42.845  10.617  1.00  0.00    -0.390 OA
HETATM   19  H   UNL     1     -41.055 -42.208  11.205  1.00  0.00     0.210 HD
ENDBRANCH  12  18
ENDBRANCH   1  10
BRANCH   5  20
HETATM   20  N   UNL     1     -42.667 -50.822  12.483  1.00  0.00    -0.286 N 
HETATM   21  C   UNL     1     -42.254 -52.120  12.262  1.00  0.00     0.366 C 
HETATM   22  O   UNL     1     -41.129 -52.528  12.023  1.00  0.00    -0.238 OA
HETATM   23  H   UNL     1     -43.658 -50.720  12.619  1.00  0.00     0.172 HD
BRANCH  21  24
HETATM   24  O   UNL     1     -43.349 -52.926  12.269  1.00  0.00    -0.304 OA
BRANCH  24  25
HETATM   25  C   UNL     1     -43.146 -54.119  13.034  1.00  0.00     0.180 C 
BRANCH  25  26
HETATM   26  C   UNL     1     -43.650 -54.040  14.473  1.00  0.00     0.027 C 
BRANCH  26  27
HETATM   27  C   UNL     1     -42.789 -54.970  15.337  1.00  0.00     0.002 C 
BRANCH  27  28
HETATM   28  C   UNL     1     -41.310 -54.601  15.338  1.00  0.00    -0.004 C 
HETATM   29  C   UNL     1     -40.522 -55.535  16.249  1.00  0.00     0.005 C 
ENDBRANCH  27  28
ENDBRANCH  26  27
ENDBRANCH  25  26
ENDBRANCH  24  25
ENDBRANCH  21  24
ENDBRANCH   5  20
TORSDOF 9
ENDMDL
