MODEL 1
REMARK VINA RESULT:      -6.7      0.000      0.000
REMARK  8 active torsions:
REMARK  status: ('A' for Active; 'I' for Inactive)
REMARK    1  A    between atoms: N_2  and  C_13 
REMARK    2  A    between atoms: C_6  and  N_8 
REMARK    3  A    between atoms: C_13  and  C_15 
REMARK    4  A    between atoms: C_14  and  C_19 
REMARK       I    between atoms: C_14  and  N_24 
REMARK    5  A    between atoms: C_15  and  C_25 
REMARK    6  A    between atoms: C_15  and  C_26 
REMARK    7  A    between atoms: N_24  and  C_30 
REMARK    8  A    between atoms: C_26  and  O_28 
ROOT
HETATM    1  C   UNL     1     -41.784 -50.061  12.281  1.00  0.00     0.117 A 
HETATM    2  N   UNL     1     -42.333 -48.275  11.149  1.00  0.00    -0.327 N 
HETATM    3  C   UNL     1     -41.260 -49.060  11.481  1.00  0.00     0.140 A 
HETATM    4  N   UNL     1     -43.130 -49.839  12.512  1.00  0.00    -0.346 N 
ATOM      5  HN  UNL     1     -43.756 -50.385  13.105  1.00  0.00     0.167 HD
HETATM    6  C   UNL     1     -40.910 -51.110  12.651  1.00  0.00     0.114 A 
HETATM    7  C   UNL     1     -43.429 -48.773  11.802  1.00  0.00     0.185 A 
HETATM    8  N   UNL     1     -39.992 -48.929  11.060  1.00  0.00    -0.336 N 
ATOM      9  HN  UNL     1     -39.647 -48.160  10.484  1.00  0.00     0.168 HD
HETATM   10  N   UNL     1     -39.617 -51.025  12.231  1.00  0.00    -0.341 N 
ATOM     11  HN  UNL     1     -38.947 -51.757  12.463  1.00  0.00     0.167 HD
HETATM   12  C   UNL     1     -39.237 -49.954  11.502  1.00  0.00     0.183 A 
ENDROOT
BRANCH   6  13
HETATM   13  N   UNL     1     -41.353 -52.211  13.407  1.00  0.00    -0.267 NA
HETATM   14  C   UNL     1     -42.208 -51.849  14.536  1.00  0.00     0.098 C 
HETATM   15  C   UNL     1     -42.449 -53.101  15.383  1.00  0.00     0.029 C 
HETATM   16  C   UNL     1     -43.046 -54.245  14.547  1.00  0.00     0.080 C 
HETATM   17  C   UNL     1     -42.194 -54.495  13.293  1.00  0.00     0.029 C 
HETATM   18  C   UNL     1     -41.941 -53.208  12.505  1.00  0.00     0.098 C 
BRANCH  16  19
HETATM   19  C   UNL     1     -44.505 -53.990  14.172  1.00  0.00     0.221 C 
HETATM   20  O   UNL     1     -45.021 -54.427  13.150  1.00  0.00    -0.273 OA
HETATM   21  N   UNL     1     -45.214 -53.258  15.099  1.00  0.00    -0.361 N 
HETATM   22  H   UNL     1     -44.761 -52.935  15.944  1.00  0.00     0.162 HD
BRANCH  21  23
HETATM   23  C   UNL     1     -46.612 -52.938  14.893  1.00  0.00     0.118 C 
HETATM   24  C   UNL     1     -46.802 -51.484  14.500  1.00  0.00     0.026 C 
ENDBRANCH  21  23
ENDBRANCH  16  19
ENDBRANCH   6  13
BRANCH   2  25
HETATM   25  C   UNL     1     -42.363 -47.328  10.056  1.00  0.00     0.138 C 
BRANCH  25  26
HETATM   26  C   UNL     1     -42.904 -45.917  10.372  1.00  0.00     0.034 C 
BRANCH  26  27
HETATM   27  C   UNL     1     -41.807 -44.960  10.904  1.00  0.00     0.019 C 
HETATM   28  C   UNL     1     -40.396 -45.333  10.442  1.00  0.00     0.172 C 
HETATM   29  O   UNL     1     -39.703 -45.801  11.604  1.00  0.00    -0.391 OA
HETATM   30  C   UNL     1     -40.215 -45.049  12.705  1.00  0.00     0.168 C 
HETATM   31  C   UNL     1     -41.694 -44.903  12.426  1.00  0.00     0.033 C 
ENDBRANCH  26  27
BRANCH  26  32
HETATM   32  C   UNL     1     -43.625 -45.383   9.116  1.00  0.00     0.170 C 
BRANCH  32  33
HETATM   33  O   UNL     1     -44.230 -44.126   9.408  1.00  0.00    -0.400 OA
HETATM   34  H   UNL     1     -45.104 -44.292   9.801  1.00  0.00     0.209 HD
ENDBRANCH  32  33
ENDBRANCH  26  32
ENDBRANCH  25  26
ENDBRANCH   2  25
TORSDOF 8
ENDMDL
MODEL 2
REMARK VINA RESULT:      -6.6      1.758      2.047
REMARK  8 active torsions:
REMARK  status: ('A' for Active; 'I' for Inactive)
REMARK    1  A    between atoms: N_2  and  C_13 
REMARK    2  A    between atoms: C_6  and  N_8 
REMARK    3  A    between atoms: C_13  and  C_15 
REMARK    4  A    between atoms: C_14  and  C_19 
REMARK       I    between atoms: C_14  and  N_24 
REMARK    5  A    between atoms: C_15  and  C_25 
REMARK    6  A    between atoms: C_15  and  C_26 
REMARK    7  A    between atoms: N_24  and  C_30 
REMARK    8  A    between atoms: C_26  and  O_28 
ROOT
HETATM    1  C   UNL     1     -40.584 -50.201  12.293  1.00  0.00     0.117 A 
HETATM    2  N   UNL     1     -41.517 -48.459  11.361  1.00  0.00    -0.327 N 
HETATM    3  C   UNL     1     -40.299 -49.046  11.585  1.00  0.00     0.140 A 
HETATM    4  N   UNL     1     -41.936 -50.271  12.579  1.00  0.00    -0.346 N 
ATOM      5  HN  UNL     1     -42.417 -50.982  13.130  1.00  0.00     0.167 HD
HETATM    6  C   UNL     1     -39.508 -51.088  12.533  1.00  0.00     0.114 A 
HETATM    7  C   UNL     1     -42.466 -49.223  11.988  1.00  0.00     0.185 A 
HETATM    8  N   UNL     1     -39.100 -48.629  11.147  1.00  0.00    -0.336 N 
ATOM      9  HN  UNL     1     -38.936 -47.757  10.644  1.00  0.00     0.168 HD
HETATM   10  N   UNL     1     -38.276 -50.711  12.092  1.00  0.00    -0.341 N 
ATOM     11  HN  UNL     1     -37.467 -51.316  12.232  1.00  0.00     0.167 HD
HETATM   12  C   UNL     1     -38.143 -49.523  11.465  1.00  0.00     0.183 A 
ENDROOT
BRANCH   6  13
HETATM   13  N   UNL     1     -39.696 -52.321  13.185  1.00  0.00    -0.267 NA
HETATM   14  C   UNL     1     -39.825 -52.209  14.638  1.00  0.00     0.098 C 
HETATM   15  C   UNL     1     -39.819 -53.619  15.234  1.00  0.00     0.029 C 
HETATM   16  C   UNL     1     -40.919 -54.499  14.620  1.00  0.00     0.080 C 
HETATM   17  C   UNL     1     -40.835 -54.471  13.085  1.00  0.00     0.029 C 
HETATM   18  C   UNL     1     -40.797 -53.044  12.539  1.00  0.00     0.098 C 
BRANCH  16  19
HETATM   19  C   UNL     1     -42.315 -54.101  15.096  1.00  0.00     0.221 C 
HETATM   20  O   UNL     1     -42.511 -53.325  16.025  1.00  0.00    -0.273 OA
HETATM   21  N   UNL     1     -43.347 -54.656  14.371  1.00  0.00    -0.361 N 
HETATM   22  H   UNL     1     -43.146 -55.273  13.595  1.00  0.00     0.162 HD
BRANCH  21  23
HETATM   23  C   UNL     1     -44.730 -54.370  14.694  1.00  0.00     0.118 C 
HETATM   24  C   UNL     1     -45.683 -55.239  13.892  1.00  0.00     0.026 C 
ENDBRANCH  21  23
ENDBRANCH  16  19
ENDBRANCH   6  13
BRANCH   2  25
HETATM   25  C   UNL     1     -41.778 -47.439  10.370  1.00  0.00     0.138 C 
BRANCH  25  26
HETATM   26  C   UNL     1     -42.697 -46.274  10.796  1.00  0.00     0.034 C 
BRANCH  26  27
HETATM   27  C   UNL     1     -41.941 -45.171  11.582  1.00  0.00     0.019 C 
HETATM   28  C   UNL     1     -42.522 -43.770  11.377  1.00  0.00     0.172 C 
HETATM   29  O   UNL     1     -41.556 -43.042  10.613  1.00  0.00    -0.391 OA
HETATM   30  C   UNL     1     -40.276 -43.531  11.015  1.00  0.00     0.168 C 
HETATM   31  C   UNL     1     -40.469 -45.018  11.209  1.00  0.00     0.033 C 
ENDBRANCH  26  27
BRANCH  26  32
HETATM   32  C   UNL     1     -43.420 -45.744   9.540  1.00  0.00     0.170 C 
BRANCH  32  33
HETATM   33  O   UNL     1     -42.654 -46.052   8.379  1.00  0.00    -0.400 OA
HETATM   34  H   UNL     1     -43.083 -46.794   7.918  1.00  0.00     0.209 HD
ENDBRANCH  32  33
ENDBRANCH  26  32
ENDBRANCH  25  26
ENDBRANCH   2  25
TORSDOF 8
ENDMDL
MODEL 3
REMARK VINA RESULT:      -6.5      2.100      7.616
REMARK  8 active torsions:
REMARK  status: ('A' for Active; 'I' for Inactive)
REMARK    1  A    between atoms: N_2  and  C_13 
REMARK    2  A    between atoms: C_6  and  N_8 
REMARK    3  A    between atoms: C_13  and  C_15 
REMARK    4  A    between atoms: C_14  and  C_19 
REMARK       I    between atoms: C_14  and  N_24 
REMARK    5  A    between atoms: C_15  and  C_25 
REMARK    6  A    between atoms: C_15  and  C_26 
REMARK    7  A    between atoms: N_24  and  C_30 
REMARK    8  A    between atoms: C_26  and  O_28 
ROOT
HETATM    1  C   UNL     1     -41.434 -50.917  13.083  1.00  0.00     0.117 A 
HETATM    2  N   UNL     1     -41.859 -53.055  13.236  1.00  0.00    -0.327 N 
HETATM    3  C   UNL     1     -41.147 -52.047  13.831  1.00  0.00     0.140 A 
HETATM    4  N   UNL     1     -42.227 -51.246  11.998  1.00  0.00    -0.346 N 
ATOM      5  HN  UNL     1     -42.546 -50.626  11.254  1.00  0.00     0.167 HD
HETATM    6  C   UNL     1     -40.941 -49.684  13.570  1.00  0.00     0.114 A 
HETATM    7  C   UNL     1     -42.479 -52.529  12.133  1.00  0.00     0.185 A 
HETATM    8  N   UNL     1     -40.397 -52.125  14.942  1.00  0.00    -0.336 N 
ATOM      9  HN  UNL     1     -40.198 -52.987  15.450  1.00  0.00     0.168 HD
HETATM   10  N   UNL     1     -40.187 -49.715  14.705  1.00  0.00    -0.341 N 
ATOM     11  HN  UNL     1     -39.813 -48.854  15.103  1.00  0.00     0.167 HD
HETATM   12  C   UNL     1     -39.943 -50.905  15.293  1.00  0.00     0.183 A 
ENDROOT
BRANCH   6  13
HETATM   13  N   UNL     1     -41.227 -48.466  12.926  1.00  0.00    -0.267 NA
HETATM   14  C   UNL     1     -40.631 -48.345  11.596  1.00  0.00     0.098 C 
HETATM   15  C   UNL     1     -40.846 -46.914  11.097  1.00  0.00     0.029 C 
HETATM   16  C   UNL     1     -42.333 -46.528  11.104  1.00  0.00     0.080 C 
HETATM   17  C   UNL     1     -42.955 -46.808  12.482  1.00  0.00     0.029 C 
HETATM   18  C   UNL     1     -42.675 -48.234  12.958  1.00  0.00     0.098 C 
BRANCH  16  19
HETATM   19  C   UNL     1     -43.120 -47.230   9.999  1.00  0.00     0.221 C 
HETATM   20  O   UNL     1     -42.598 -47.954   9.159  1.00  0.00    -0.273 OA
HETATM   21  N   UNL     1     -44.481 -47.016  10.042  1.00  0.00    -0.361 N 
HETATM   22  H   UNL     1     -44.880 -46.433  10.765  1.00  0.00     0.162 HD
BRANCH  21  23
HETATM   23  C   UNL     1     -45.367 -47.619   9.066  1.00  0.00     0.118 C 
HETATM   24  C   UNL     1     -46.777 -47.068   9.175  1.00  0.00     0.026 C 
ENDBRANCH  21  23
ENDBRANCH  16  19
ENDBRANCH   6  13
BRANCH   2  25
HETATM   25  C   UNL     1     -42.171 -54.327  13.849  1.00  0.00     0.138 C 
BRANCH  25  26
HETATM   26  C   UNL     1     -42.931 -54.285  15.192  1.00  0.00     0.034 C 
BRANCH  26  27
HETATM   27  C   UNL     1     -44.470 -54.246  15.008  1.00  0.00     0.019 C 
HETATM   28  C   UNL     1     -44.959 -55.043  13.796  1.00  0.00     0.172 C 
HETATM   29  O   UNL     1     -45.426 -54.082  12.845  1.00  0.00    -0.391 OA
HETATM   30  C   UNL     1     -45.973 -53.001  13.601  1.00  0.00     0.168 C 
HETATM   31  C   UNL     1     -45.051 -52.850  14.791  1.00  0.00     0.033 C 
ENDBRANCH  26  27
BRANCH  26  32
HETATM   32  C   UNL     1     -42.448 -55.466  16.060  1.00  0.00     0.170 C 
BRANCH  32  33
HETATM   33  O   UNL     1     -41.027 -55.439  16.159  1.00  0.00    -0.400 OA
HETATM   34  H   UNL     1     -40.716 -56.343  16.338  1.00  0.00     0.209 HD
ENDBRANCH  32  33
ENDBRANCH  26  32
ENDBRANCH  25  26
ENDBRANCH   2  25
TORSDOF 8
ENDMDL
MODEL 4
REMARK VINA RESULT:      -6.5      2.189      7.635
REMARK  8 active torsions:
REMARK  status: ('A' for Active; 'I' for Inactive)
REMARK    1  A    between atoms: N_2  and  C_13 
REMARK    2  A    between atoms: C_6  and  N_8 
REMARK    3  A    between atoms: C_13  and  C_15 
REMARK    4  A    between atoms: C_14  and  C_19 
REMARK       I    between atoms: C_14  and  N_24 
REMARK    5  A    between atoms: C_15  and  C_25 
REMARK    6  A    between atoms: C_15  and  C_26 
REMARK    7  A    between atoms: N_24  and  C_30 
REMARK    8  A    between atoms: C_26  and  O_28 
ROOT
HETATM    1  C   UNL     1     -40.776 -50.247  12.258  1.00  0.00     0.117 A 
HETATM    2  N   UNL     1     -40.970 -52.417  12.414  1.00  0.00    -0.327 N 
HETATM    3  C   UNL     1     -40.056 -51.402  12.511  1.00  0.00     0.140 A 
HETATM    4  N   UNL     1     -42.081 -50.557  11.919  1.00  0.00    -0.346 N 
ATOM      5  HN  UNL     1     -42.818 -49.911  11.634  1.00  0.00     0.167 HD
HETATM    6  C   UNL     1     -40.101 -49.017  12.441  1.00  0.00     0.114 A 
HETATM    7  C   UNL     1     -42.167 -51.863  12.043  1.00  0.00     0.185 A 
HETATM    8  N   UNL     1     -38.761 -51.500  12.853  1.00  0.00    -0.336 N 
ATOM      9  HN  UNL     1     -38.267 -52.379  13.011  1.00  0.00     0.168 HD
HETATM   10  N   UNL     1     -38.789 -49.071  12.803  1.00  0.00    -0.341 N 
ATOM     11  HN  UNL     1     -38.257 -48.215  12.955  1.00  0.00     0.167 HD
HETATM   12  C   UNL     1     -38.204 -50.277  12.957  1.00  0.00     0.183 A 
ENDROOT
BRANCH   6  13
HETATM   13  N   UNL     1     -40.755 -47.782  12.275  1.00  0.00    -0.267 NA
HETATM   14  C   UNL     1     -40.353 -47.055  11.072  1.00  0.00     0.098 C 
HETATM   15  C   UNL     1     -40.977 -45.658  11.118  1.00  0.00     0.029 C 
HETATM   16  C   UNL     1     -42.505 -45.724  11.273  1.00  0.00     0.080 C 
HETATM   17  C   UNL     1     -42.886 -46.617  12.465  1.00  0.00     0.029 C 
HETATM   18  C   UNL     1     -42.203 -47.984  12.398  1.00  0.00     0.098 C 
BRANCH  16  19
HETATM   19  C   UNL     1     -43.198 -46.195   9.996  1.00  0.00     0.221 C 
HETATM   20  O   UNL     1     -42.780 -45.938   8.872  1.00  0.00    -0.273 OA
HETATM   21  N   UNL     1     -44.317 -46.972  10.205  1.00  0.00    -0.361 N 
HETATM   22  H   UNL     1     -44.617 -47.185  11.147  1.00  0.00     0.162 HD
BRANCH  21  23
HETATM   23  C   UNL     1     -45.081 -47.502   9.094  1.00  0.00     0.118 C 
HETATM   24  C   UNL     1     -46.526 -47.040   9.139  1.00  0.00     0.026 C 
ENDBRANCH  21  23
ENDBRANCH  16  19
ENDBRANCH   6  13
BRANCH   2  25
HETATM   25  C   UNL     1     -40.788 -53.753  12.938  1.00  0.00     0.138 C 
BRANCH  25  26
HETATM   26  C   UNL     1     -40.617 -53.883  14.467  1.00  0.00     0.034 C 
BRANCH  26  27
HETATM   27  C   UNL     1     -41.767 -54.682  15.132  1.00  0.00     0.019 C 
HETATM   28  C   UNL     1     -43.106 -54.544  14.404  1.00  0.00     0.172 C 
HETATM   29  O   UNL     1     -43.954 -53.775  15.263  1.00  0.00    -0.391 OA
HETATM   30  C   UNL     1     -43.588 -54.119  16.600  1.00  0.00     0.168 C 
HETATM   31  C   UNL     1     -42.083 -54.269  16.568  1.00  0.00     0.033 C 
ENDBRANCH  26  27
BRANCH  26  32
HETATM   32  C   UNL     1     -39.219 -54.473  14.749  1.00  0.00     0.170 C 
BRANCH  32  33
HETATM   33  O   UNL     1     -38.496 -54.599  13.528  1.00  0.00    -0.400 OA
HETATM   34  H   UNL     1     -38.860 -55.354  13.033  1.00  0.00     0.209 HD
ENDBRANCH  32  33
ENDBRANCH  26  32
ENDBRANCH  25  26
ENDBRANCH   2  25
TORSDOF 8
ENDMDL
MODEL 5
REMARK VINA RESULT:      -6.3      3.069      8.588
REMARK  8 active torsions:
REMARK  status: ('A' for Active; 'I' for Inactive)
REMARK    1  A    between atoms: N_2  and  C_13 
REMARK    2  A    between atoms: C_6  and  N_8 
REMARK    3  A    between atoms: C_13  and  C_15 
REMARK    4  A    between atoms: C_14  and  C_19 
REMARK       I    between atoms: C_14  and  N_24 
REMARK    5  A    between atoms: C_15  and  C_25 
REMARK    6  A    between atoms: C_15  and  C_26 
REMARK    7  A    between atoms: N_24  and  C_30 
REMARK    8  A    between atoms: C_26  and  O_28 
ROOT
HETATM    1  C   UNL     1     -41.289 -51.617  13.829  1.00  0.00     0.117 A 
HETATM    2  N   UNL     1     -40.456 -53.353  14.864  1.00  0.00    -0.327 N 
HETATM    3  C   UNL     1     -41.503 -52.964  14.070  1.00  0.00     0.140 A 
HETATM    4  N   UNL     1     -40.188 -51.170  14.539  1.00  0.00    -0.346 N 
ATOM      5  HN  UNL     1     -39.832 -50.216  14.592  1.00  0.00     0.167 HD
HETATM    6  C   UNL     1     -42.152 -50.986  12.903  1.00  0.00     0.114 A 
HETATM    7  C   UNL     1     -39.703 -52.240  15.130  1.00  0.00     0.185 A 
HETATM    8  N   UNL     1     -42.480 -53.739  13.572  1.00  0.00    -0.336 N 
ATOM      9  HN  UNL     1     -42.609 -54.726  13.794  1.00  0.00     0.168 HD
HETATM   10  N   UNL     1     -43.149 -51.741  12.362  1.00  0.00    -0.341 N 
ATOM     11  HN  UNL     1     -43.795 -51.337  11.683  1.00  0.00     0.167 HD
HETATM   12  C   UNL     1     -43.268 -53.031  12.739  1.00  0.00     0.183 A 
ENDROOT
BRANCH   6  13
HETATM   13  N   UNL     1     -41.984 -49.638  12.535  1.00  0.00    -0.267 NA
HETATM   14  C   UNL     1     -41.269 -49.453  11.273  1.00  0.00     0.098 C 
HETATM   15  C   UNL     1     -40.978 -47.960  11.096  1.00  0.00     0.029 C 
HETATM   16  C   UNL     1     -42.264 -47.121  11.163  1.00  0.00     0.080 C 
HETATM   17  C   UNL     1     -43.058 -47.454  12.436  1.00  0.00     0.029 C 
HETATM   18  C   UNL     1     -43.283 -48.958  12.594  1.00  0.00     0.098 C 
BRANCH  16  19
HETATM   19  C   UNL     1     -43.134 -47.290   9.918  1.00  0.00     0.221 C 
HETATM   20  O   UNL     1     -42.748 -47.858   8.902  1.00  0.00    -0.273 OA
HETATM   21  N   UNL     1     -44.411 -46.787  10.040  1.00  0.00    -0.361 N 
HETATM   22  H   UNL     1     -44.702 -46.348  10.903  1.00  0.00     0.162 HD
BRANCH  21  23
HETATM   23  C   UNL     1     -45.360 -46.877   8.949  1.00  0.00     0.118 C 
HETATM   24  C   UNL     1     -46.313 -48.044   9.132  1.00  0.00     0.026 C 
ENDBRANCH  21  23
ENDBRANCH  16  19
ENDBRANCH   6  13
BRANCH   2  25
HETATM   25  C   UNL     1     -40.042 -54.721  15.082  1.00  0.00     0.138 C 
BRANCH  25  26
HETATM   26  C   UNL     1     -39.779 -55.144  16.543  1.00  0.00     0.034 C 
BRANCH  26  27
HETATM   27  C   UNL     1     -40.768 -56.230  17.040  1.00  0.00     0.019 C 
HETATM   28  C   UNL     1     -42.141 -56.158  16.366  1.00  0.00     0.172 C 
HETATM   29  O   UNL     1     -43.060 -55.719  17.371  1.00  0.00    -0.391 OA
HETATM   30  C   UNL     1     -42.594 -56.265  18.606  1.00  0.00     0.168 C 
HETATM   31  C   UNL     1     -41.086 -56.169  18.532  1.00  0.00     0.033 C 
ENDBRANCH  26  27
BRANCH  26  32
HETATM   32  C   UNL     1     -38.299 -55.562  16.668  1.00  0.00     0.170 C 
BRANCH  32  33
HETATM   33  O   UNL     1     -37.812 -55.989  15.398  1.00  0.00    -0.400 OA
HETATM   34  H   UNL     1     -36.842 -56.037  15.443  1.00  0.00     0.209 HD
ENDBRANCH  32  33
ENDBRANCH  26  32
ENDBRANCH  25  26
ENDBRANCH   2  25
TORSDOF 8
ENDMDL
MODEL 6
REMARK VINA RESULT:      -6.2      2.236      8.310
REMARK  8 active torsions:
REMARK  status: ('A' for Active; 'I' for Inactive)
REMARK    1  A    between atoms: N_2  and  C_13 
REMARK    2  A    between atoms: C_6  and  N_8 
REMARK    3  A    between atoms: C_13  and  C_15 
REMARK    4  A    between atoms: C_14  and  C_19 
REMARK       I    between atoms: C_14  and  N_24 
REMARK    5  A    between atoms: C_15  and  C_25 
REMARK    6  A    between atoms: C_15  and  C_26 
REMARK    7  A    between atoms: N_24  and  C_30 
REMARK    8  A    between atoms: C_26  and  O_28 
ROOT
HETATM    1  C   UNL     1     -41.365 -50.970  12.366  1.00  0.00     0.117 A 
HETATM    2  N   UNL     1     -41.183 -53.083  12.893  1.00  0.00    -0.327 N 
HETATM    3  C   UNL     1     -40.459 -51.923  12.800  1.00  0.00     0.140 A 
HETATM    4  N   UNL     1     -42.592 -51.554  12.108  1.00  0.00    -0.346 N 
ATOM      5  HN  UNL     1     -43.426 -51.103  11.730  1.00  0.00     0.167 HD
HETATM    6  C   UNL     1     -40.914 -49.630  12.324  1.00  0.00     0.114 A 
HETATM    7  C   UNL     1     -42.453 -52.815  12.455  1.00  0.00     0.185 A 
HETATM    8  N   UNL     1     -39.171 -51.737  13.131  1.00  0.00    -0.336 N 
ATOM      9  HN  UNL     1     -38.535 -52.477  13.428  1.00  0.00     0.168 HD
HETATM   10  N   UNL     1     -39.617 -49.394  12.667  1.00  0.00    -0.341 N 
ATOM     11  HN  UNL     1     -39.243 -48.446  12.661  1.00  0.00     0.167 HD
HETATM   12  C   UNL     1     -38.835 -50.437  13.015  1.00  0.00     0.183 A 
ENDROOT
BRANCH   6  13
HETATM   13  N   UNL     1     -41.770 -48.573  11.962  1.00  0.00    -0.267 NA
HETATM   14  C   UNL     1     -41.716 -47.428  12.870  1.00  0.00     0.098 C 
HETATM   15  C   UNL     1     -42.827 -46.449  12.483  1.00  0.00     0.029 C 
HETATM   16  C   UNL     1     -42.721 -46.026  11.009  1.00  0.00     0.080 C 
HETATM   17  C   UNL     1     -42.635 -47.262  10.100  1.00  0.00     0.029 C 
HETATM   18  C   UNL     1     -41.543 -48.231  10.553  1.00  0.00     0.098 C 
BRANCH  16  19
HETATM   19  C   UNL     1     -41.547 -45.082  10.759  1.00  0.00     0.221 C 
HETATM   20  O   UNL     1     -40.767 -45.216   9.823  1.00  0.00    -0.273 OA
HETATM   21  N   UNL     1     -41.452 -44.036  11.651  1.00  0.00    -0.361 N 
HETATM   22  H   UNL     1     -42.130 -43.943  12.396  1.00  0.00     0.162 HD
BRANCH  21  23
HETATM   23  C   UNL     1     -40.397 -43.050  11.543  1.00  0.00     0.118 C 
HETATM   24  C   UNL     1     -40.663 -41.846  12.428  1.00  0.00     0.026 C 
ENDBRANCH  21  23
ENDBRANCH  16  19
ENDBRANCH   6  13
BRANCH   2  25
HETATM   25  C   UNL     1     -40.779 -54.257  13.635  1.00  0.00     0.138 C 
BRANCH  25  26
HETATM   26  C   UNL     1     -40.465 -54.060  15.134  1.00  0.00     0.034 C 
BRANCH  26  27
HETATM   27  C   UNL     1     -41.670 -54.405  16.048  1.00  0.00     0.019 C 
HETATM   28  C   UNL     1     -42.441 -55.648  15.598  1.00  0.00     0.172 C 
HETATM   29  O   UNL     1     -43.708 -55.185  15.122  1.00  0.00    -0.391 OA
HETATM   30  C   UNL     1     -44.045 -54.049  15.919  1.00  0.00     0.168 C 
HETATM   31  C   UNL     1     -42.739 -53.317  16.130  1.00  0.00     0.033 C 
ENDBRANCH  26  27
BRANCH  26  32
HETATM   32  C   UNL     1     -39.192 -54.864  15.471  1.00  0.00     0.170 C 
BRANCH  32  33
HETATM   33  O   UNL     1     -38.651 -55.428  14.280  1.00  0.00    -0.400 OA
HETATM   34  H   UNL     1     -39.389 -55.709  13.712  1.00  0.00     0.209 HD
ENDBRANCH  32  33
ENDBRANCH  26  32
ENDBRANCH  25  26
ENDBRANCH   2  25
TORSDOF 8
ENDMDL
MODEL 7
REMARK VINA RESULT:      -6.2      2.257      8.455
REMARK  8 active torsions:
REMARK  status: ('A' for Active; 'I' for Inactive)
REMARK    1  A    between atoms: N_2  and  C_13 
REMARK    2  A    between atoms: C_6  and  N_8 
REMARK    3  A    between atoms: C_13  and  C_15 
REMARK    4  A    between atoms: C_14  and  C_19 
REMARK       I    between atoms: C_14  and  N_24 
REMARK    5  A    between atoms: C_15  and  C_25 
REMARK    6  A    between atoms: C_15  and  C_26 
REMARK    7  A    between atoms: N_24  and  C_30 
REMARK    8  A    between atoms: C_26  and  O_28 
ROOT
HETATM    1  C   UNL     1     -40.457 -49.265  12.478  1.00  0.00     0.117 A 
HETATM    2  N   UNL     1     -40.337 -51.422  12.804  1.00  0.00    -0.327 N 
HETATM    3  C   UNL     1     -41.233 -50.393  12.681  1.00  0.00     0.140 A 
HETATM    4  N   UNL     1     -39.113 -49.581  12.571  1.00  0.00    -0.346 N 
ATOM      5  HN  UNL     1     -38.321 -48.941  12.516  1.00  0.00     0.167 HD
HETATM    6  C   UNL     1     -41.139 -48.065  12.168  1.00  0.00     0.114 A 
HETATM    7  C   UNL     1     -39.078 -50.884  12.745  1.00  0.00     0.185 A 
HETATM    8  N   UNL     1     -42.573 -50.476  12.681  1.00  0.00    -0.336 N 
ATOM      9  HN  UNL     1     -43.103 -51.330  12.855  1.00  0.00     0.168 HD
HETATM   10  N   UNL     1     -42.500 -48.107  12.142  1.00  0.00    -0.341 N 
ATOM     11  HN  UNL     1     -43.041 -47.272  11.917  1.00  0.00     0.167 HD
HETATM   12  C   UNL     1     -43.122 -49.272  12.419  1.00  0.00     0.183 A 
ENDROOT
BRANCH   6  13
HETATM   13  N   UNL     1     -40.447 -46.874  11.879  1.00  0.00    -0.267 NA
HETATM   14  C   UNL     1     -40.832 -46.258  10.610  1.00  0.00     0.098 C 
HETATM   15  C   UNL     1     -39.874 -45.099  10.323  1.00  0.00     0.029 C 
HETATM   16  C   UNL     1     -39.850 -44.084  11.477  1.00  0.00     0.080 C 
HETATM   17  C   UNL     1     -39.584 -44.796  12.813  1.00  0.00     0.029 C 
HETATM   18  C   UNL     1     -40.535 -45.974  13.034  1.00  0.00     0.098 C 
BRANCH  16  19
HETATM   19  C   UNL     1     -41.130 -43.254  11.547  1.00  0.00     0.221 C 
HETATM   20  O   UNL     1     -41.841 -43.034  10.573  1.00  0.00    -0.273 OA
HETATM   21  N   UNL     1     -41.448 -42.798  12.808  1.00  0.00    -0.361 N 
HETATM   22  H   UNL     1     -40.850 -43.020  13.593  1.00  0.00     0.162 HD
BRANCH  21  23
HETATM   23  C   UNL     1     -42.636 -42.002  13.041  1.00  0.00     0.118 C 
HETATM   24  C   UNL     1     -43.093 -42.089  14.486  1.00  0.00     0.026 C 
ENDBRANCH  21  23
ENDBRANCH  16  19
ENDBRANCH   6  13
BRANCH   2  25
HETATM   25  C   UNL     1     -40.658 -52.825  12.670  1.00  0.00     0.138 C 
BRANCH  25  26
HETATM   26  C   UNL     1     -40.969 -53.597  13.971  1.00  0.00     0.034 C 
BRANCH  26  27
HETATM   27  C   UNL     1     -42.333 -54.332  13.920  1.00  0.00     0.019 C 
HETATM   28  C   UNL     1     -43.287 -53.775  12.860  1.00  0.00     0.172 C 
HETATM   29  O   UNL     1     -44.345 -53.127  13.572  1.00  0.00    -0.391 OA
HETATM   30  C   UNL     1     -44.534 -53.874  14.775  1.00  0.00     0.168 C 
HETATM   31  C   UNL     1     -43.141 -54.268  15.214  1.00  0.00     0.033 C 
ENDBRANCH  26  27
BRANCH  26  32
HETATM   32  C   UNL     1     -39.780 -54.532  14.275  1.00  0.00     0.170 C 
BRANCH  32  33
HETATM   33  O   UNL     1     -38.796 -54.405  13.252  1.00  0.00    -0.400 OA
HETATM   34  H   UNL     1     -38.597 -55.293  12.908  1.00  0.00     0.209 HD
ENDBRANCH  32  33
ENDBRANCH  26  32
ENDBRANCH  25  26
ENDBRANCH   2  25
TORSDOF 8
ENDMDL
MODEL 8
REMARK VINA RESULT:      -6.2      2.315      3.316
REMARK  8 active torsions:
REMARK  status: ('A' for Active; 'I' for Inactive)
REMARK    1  A    between atoms: N_2  and  C_13 
REMARK    2  A    between atoms: C_6  and  N_8 
REMARK    3  A    between atoms: C_13  and  C_15 
REMARK    4  A    between atoms: C_14  and  C_19 
REMARK       I    between atoms: C_14  and  N_24 
REMARK    5  A    between atoms: C_15  and  C_25 
REMARK    6  A    between atoms: C_15  and  C_26 
REMARK    7  A    between atoms: N_24  and  C_30 
REMARK    8  A    between atoms: C_26  and  O_28 
ROOT
HETATM    1  C   UNL     1     -40.905 -47.301  11.919  1.00  0.00     0.117 A 
HETATM    2  N   UNL     1     -40.614 -45.170  11.531  1.00  0.00    -0.327 N 
HETATM    3  C   UNL     1     -41.200 -46.295  11.014  1.00  0.00     0.140 A 
HETATM    4  N   UNL     1     -40.076 -46.822  12.917  1.00  0.00    -0.346 N 
ATOM      5  HN  UNL     1     -39.659 -47.352  13.684  1.00  0.00     0.167 HD
HETATM    6  C   UNL     1     -41.520 -48.557  11.705  1.00  0.00     0.114 A 
HETATM    7  C   UNL     1     -39.940 -45.539  12.665  1.00  0.00     0.185 A 
HETATM    8  N   UNL     1     -41.960 -46.385   9.910  1.00  0.00    -0.336 N 
ATOM      9  HN  UNL     1     -42.134 -45.618   9.260  1.00  0.00     0.168 HD
HETATM   10  N   UNL     1     -42.312 -48.687  10.604  1.00  0.00    -0.341 N 
ATOM     11  HN  UNL     1     -42.785 -49.568  10.407  1.00  0.00     0.167 HD
HETATM   12  C   UNL     1     -42.460 -47.630   9.779  1.00  0.00     0.183 A 
ENDROOT
BRANCH   6  13
HETATM   13  N   UNL     1     -41.342 -49.629  12.598  1.00  0.00    -0.267 NA
HETATM   14  C   UNL     1     -42.275 -49.624  13.724  1.00  0.00     0.098 C 
HETATM   15  C   UNL     1     -41.847 -50.711  14.714  1.00  0.00     0.029 C 
HETATM   16  C   UNL     1     -41.759 -52.089  14.040  1.00  0.00     0.080 C 
HETATM   17  C   UNL     1     -40.885 -52.015  12.778  1.00  0.00     0.029 C 
HETATM   18  C   UNL     1     -41.322 -50.887  11.843  1.00  0.00     0.098 C 
BRANCH  16  19
HETATM   19  C   UNL     1     -43.136 -52.666  13.715  1.00  0.00     0.221 C 
HETATM   20  O   UNL     1     -43.334 -53.454  12.797  1.00  0.00    -0.273 OA
HETATM   21  N   UNL     1     -44.142 -52.259  14.565  1.00  0.00    -0.361 N 
HETATM   22  H   UNL     1     -43.936 -51.627  15.327  1.00  0.00     0.162 HD
BRANCH  21  23
HETATM   23  C   UNL     1     -45.503 -52.723  14.394  1.00  0.00     0.118 C 
HETATM   24  C   UNL     1     -46.441 -51.587  14.030  1.00  0.00     0.026 C 
ENDBRANCH  21  23
ENDBRANCH  16  19
ENDBRANCH   6  13
BRANCH   2  25
HETATM   25  C   UNL     1     -40.937 -43.814  11.148  1.00  0.00     0.138 C 
BRANCH  25  26
HETATM   26  C   UNL     1     -42.101 -43.135  11.901  1.00  0.00     0.034 C 
BRANCH  26  27
HETATM   27  C   UNL     1     -41.627 -41.981  12.821  1.00  0.00     0.019 C 
HETATM   28  C   UNL     1     -41.782 -40.595  12.190  1.00  0.00     0.172 C 
HETATM   29  O   UNL     1     -40.458 -40.122  11.927  1.00  0.00    -0.391 OA
HETATM   30  C   UNL     1     -39.631 -40.646  12.967  1.00  0.00     0.168 C 
HETATM   31  C   UNL     1     -40.153 -42.044  13.215  1.00  0.00     0.033 C 
ENDBRANCH  26  27
BRANCH  26  32
HETATM   32  C   UNL     1     -43.158 -42.698  10.865  1.00  0.00     0.170 C 
BRANCH  32  33
HETATM   33  O   UNL     1     -43.520 -43.809  10.050  1.00  0.00    -0.400 OA
HETATM   34  H   UNL     1     -43.611 -43.498   9.133  1.00  0.00     0.209 HD
ENDBRANCH  32  33
ENDBRANCH  26  32
ENDBRANCH  25  26
ENDBRANCH   2  25
TORSDOF 8
ENDMDL
MODEL 9
REMARK VINA RESULT:      -6.1      1.747      2.671
REMARK  8 active torsions:
REMARK  status: ('A' for Active; 'I' for Inactive)
REMARK    1  A    between atoms: N_2  and  C_13 
REMARK    2  A    between atoms: C_6  and  N_8 
REMARK    3  A    between atoms: C_13  and  C_15 
REMARK    4  A    between atoms: C_14  and  C_19 
REMARK       I    between atoms: C_14  and  N_24 
REMARK    5  A    between atoms: C_15  and  C_25 
REMARK    6  A    between atoms: C_15  and  C_26 
REMARK    7  A    between atoms: N_24  and  C_30 
REMARK    8  A    between atoms: C_26  and  O_28 
ROOT
HETATM    1  C   UNL     1     -40.196 -49.252  12.994  1.00  0.00     0.117 A 
HETATM    2  N   UNL     1     -39.354 -47.236  13.051  1.00  0.00    -0.327 N 
HETATM    3  C   UNL     1     -40.016 -48.112  12.230  1.00  0.00     0.140 A 
HETATM    4  N   UNL     1     -39.573 -49.113  14.222  1.00  0.00    -0.346 N 
ATOM      5  HN  UNL     1     -39.498 -49.812  14.961  1.00  0.00     0.167 HD
HETATM    6  C   UNL     1     -40.993 -50.279  12.436  1.00  0.00     0.114 A 
HETATM    7  C   UNL     1     -39.098 -47.887  14.229  1.00  0.00     0.185 A 
HETATM    8  N   UNL     1     -40.460 -47.883  10.984  1.00  0.00    -0.336 N 
ATOM      9  HN  UNL     1     -40.285 -47.030  10.452  1.00  0.00     0.168 HD
HETATM   10  N   UNL     1     -41.477 -50.081  11.178  1.00  0.00    -0.341 N 
ATOM     11  HN  UNL     1     -42.063 -50.786  10.731  1.00  0.00     0.167 HD
HETATM   12  C   UNL     1     -41.168 -48.938  10.532  1.00  0.00     0.183 A 
ENDROOT
BRANCH   6  13
HETATM   13  N   UNL     1     -41.295 -51.453  13.150  1.00  0.00    -0.267 NA
HETATM   14  C   UNL     1     -42.253 -51.255  14.237  1.00  0.00     0.098 C 
HETATM   15  C   UNL     1     -42.336 -52.549  15.052  1.00  0.00     0.029 C 
HETATM   16  C   UNL     1     -42.700 -53.753  14.168  1.00  0.00     0.080 C 
HETATM   17  C   UNL     1     -41.755 -53.837  12.958  1.00  0.00     0.029 C 
HETATM   18  C   UNL     1     -41.670 -52.509  12.204  1.00  0.00     0.098 C 
BRANCH  16  19
HETATM   19  C   UNL     1     -44.160 -53.723  13.719  1.00  0.00     0.221 C 
HETATM   20  O   UNL     1     -44.576 -54.344  12.747  1.00  0.00    -0.273 OA
HETATM   21  N   UNL     1     -44.989 -52.967  14.519  1.00  0.00    -0.361 N 
HETATM   22  H   UNL     1     -44.615 -52.488  15.327  1.00  0.00     0.162 HD
BRANCH  21  23
HETATM   23  C   UNL     1     -46.403 -52.844  14.229  1.00  0.00     0.118 C 
HETATM   24  C   UNL     1     -46.947 -51.494  14.661  1.00  0.00     0.026 C 
ENDBRANCH  21  23
ENDBRANCH  16  19
ENDBRANCH   6  13
BRANCH   2  25
HETATM   25  C   UNL     1     -39.260 -45.809  12.840  1.00  0.00     0.138 C 
BRANCH  25  26
HETATM   26  C   UNL     1     -40.546 -45.085  12.387  1.00  0.00     0.034 C 
BRANCH  26  27
HETATM   27  C   UNL     1     -41.127 -44.154  13.483  1.00  0.00     0.019 C 
HETATM   28  C   UNL     1     -42.634 -44.320  13.688  1.00  0.00     0.172 C 
HETATM   29  O   UNL     1     -43.242 -43.122  13.197  1.00  0.00    -0.391 OA
HETATM   30  C   UNL     1     -42.319 -42.065  13.467  1.00  0.00     0.168 C 
HETATM   31  C   UNL     1     -40.954 -42.662  13.208  1.00  0.00     0.033 C 
ENDBRANCH  26  27
BRANCH  26  32
HETATM   32  C   UNL     1     -40.250 -44.357  11.059  1.00  0.00     0.170 C 
BRANCH  32  33
HETATM   33  O   UNL     1     -40.695 -45.154   9.965  1.00  0.00    -0.400 OA
HETATM   34  H   UNL     1     -39.915 -45.449   9.464  1.00  0.00     0.209 HD
ENDBRANCH  32  33
ENDBRANCH  26  32
ENDBRANCH  25  26
ENDBRANCH   2  25
TORSDOF 8
ENDMDL
