MODEL 1
REMARK VINA RESULT:      -5.8      0.000      0.000
REMARK  4 active torsions:
REMARK  status: ('A' for Active; 'I' for Inactive)
REMARK    1  A    between atoms: O_2  and  C_3 
REMARK    2  A    between atoms: C_3  and  C_6 
REMARK       I    between atoms: C_6  and  N_8 
REMARK    3  A    between atoms: N_8  and  C_9 
REMARK    4  A    between atoms: C_13  and  N_14 
ROOT
HETATM    1  C   UNL     1     -41.240 -48.686  11.512  1.00  0.00     0.051 A 
HETATM    2  C   UNL     1     -41.210 -48.332  12.852  1.00  0.00     0.119 A 
HETATM    3  N   UNL     1     -40.157 -48.541  13.683  1.00  0.00    -0.350 N 
ATOM      4  HN  UNL     1     -40.220 -48.271  14.665  1.00  0.00     0.166 HD
HETATM    5  C   UNL     1     -39.025 -49.107  13.211  1.00  0.00     0.109 A 
HETATM    6  C   UNL     1     -38.953 -49.471  11.853  1.00  0.00    -0.016 A 
HETATM    7  C   UNL     1     -37.712 -49.986  11.177  1.00  0.00     0.052 C 
HETATM    8  C   UNL     1     -40.093 -49.294  11.024  1.00  0.00     0.041 A 
ENDROOT
BRANCH   1   9
HETATM    9  N   UNL     1     -42.328 -48.447  10.635  1.00  0.00    -0.323 N 
HETATM   10  C   UNL     1     -42.602 -47.232  10.024  1.00  0.00     0.256 C 
HETATM   11  O   UNL     1     -41.923 -46.212  10.155  1.00  0.00    -0.270 OA
HETATM   12  H   UNL     1     -42.872 -49.241  10.324  1.00  0.00     0.169 HD
BRANCH  10  13
HETATM   13  C   UNL     1     -43.865 -47.235   9.113  1.00  0.00     0.133 C 
HETATM   14  C   UNL     1     -43.522 -47.901   7.769  1.00  0.00     0.056 C 
HETATM   15  C   UNL     1     -44.258 -45.776   8.829  1.00  0.00     0.056 C 
BRANCH  13  16
HETATM   16  O   UNL     1     -45.014 -47.829   9.731  1.00  0.00    -0.376 OA
HETATM   17  C   UNL     1     -46.255 -47.580   9.082  1.00  0.00     0.203 C 
ENDBRANCH  13  16
ENDBRANCH  10  13
ENDBRANCH   1   9
BRANCH   5  18
HETATM   18  N   UNL     1     -37.979 -49.223  14.110  1.00  0.00    -0.367 N 
HETATM   19  C   UNL     1     -37.694 -50.451  14.844  1.00  0.00     0.124 C 
HETATM   20  C   UNL     1     -37.901 -50.269  16.347  1.00  0.00     0.020 C 
HETATM   21  C   UNL     1     -37.137 -49.063  16.879  1.00  0.00     0.003 C 
HETATM   22  C   UNL     1     -37.544 -47.811  16.111  1.00  0.00     0.020 C 
HETATM   23  C   UNL     1     -37.351 -47.992  14.606  1.00  0.00     0.124 C 
ENDBRANCH   5  18
TORSDOF 4
ENDMDL
MODEL 2
REMARK VINA RESULT:      -5.8      3.686      5.138
REMARK  4 active torsions:
REMARK  status: ('A' for Active; 'I' for Inactive)
REMARK    1  A    between atoms: O_2  and  C_3 
REMARK    2  A    between atoms: C_3  and  C_6 
REMARK       I    between atoms: C_6  and  N_8 
REMARK    3  A    between atoms: N_8  and  C_9 
REMARK    4  A    between atoms: C_13  and  N_14 
ROOT
HETATM    1  C   UNL     1     -40.457 -48.585  11.856  1.00  0.00     0.051 A 
HETATM    2  C   UNL     1     -40.396 -49.614  10.929  1.00  0.00     0.119 A 
HETATM    3  N   UNL     1     -40.785 -50.893  11.168  1.00  0.00    -0.350 N 
ATOM      4  HN  UNL     1     -40.688 -51.600  10.439  1.00  0.00     0.166 HD
HETATM    5  C   UNL     1     -41.300 -51.230  12.371  1.00  0.00     0.109 A 
HETATM    6  C   UNL     1     -41.429 -50.241  13.364  1.00  0.00    -0.016 A 
HETATM    7  C   UNL     1     -42.104 -50.455  14.691  1.00  0.00     0.052 C 
HETATM    8  C   UNL     1     -40.958 -48.927  13.104  1.00  0.00     0.041 A 
ENDROOT
BRANCH   1   9
HETATM    9  N   UNL     1     -40.075 -47.243  11.603  1.00  0.00    -0.323 N 
HETATM   10  C   UNL     1     -40.886 -46.286  11.011  1.00  0.00     0.256 C 
HETATM   11  O   UNL     1     -42.046 -46.479  10.645  1.00  0.00    -0.270 OA
HETATM   12  H   UNL     1     -39.202 -46.915  11.994  1.00  0.00     0.169 HD
BRANCH  10  13
HETATM   13  C   UNL     1     -40.219 -44.889  10.839  1.00  0.00     0.133 C 
HETATM   14  C   UNL     1     -39.187 -44.954   9.699  1.00  0.00     0.056 C 
HETATM   15  C   UNL     1     -39.467 -44.551  12.136  1.00  0.00     0.056 C 
BRANCH  13  16
HETATM   16  O   UNL     1     -41.161 -43.825  10.651  1.00  0.00    -0.376 OA
HETATM   17  C   UNL     1     -40.921 -42.653  11.421  1.00  0.00     0.203 C 
ENDBRANCH  13  16
ENDBRANCH  10  13
ENDBRANCH   1   9
BRANCH   5  18
HETATM   18  N   UNL     1     -41.731 -52.538  12.506  1.00  0.00    -0.367 N 
HETATM   19  C   UNL     1     -43.138 -52.921  12.455  1.00  0.00     0.124 C 
HETATM   20  C   UNL     1     -43.619 -53.476  13.795  1.00  0.00     0.020 C 
HETATM   21  C   UNL     1     -42.714 -54.590  14.303  1.00  0.00     0.003 C 
HETATM   22  C   UNL     1     -41.278 -54.089  14.398  1.00  0.00     0.020 C 
HETATM   23  C   UNL     1     -40.794 -53.522  13.064  1.00  0.00     0.124 C 
ENDBRANCH   5  18
TORSDOF 4
ENDMDL
MODEL 3
REMARK VINA RESULT:      -5.7      4.702      6.773
REMARK  4 active torsions:
REMARK  status: ('A' for Active; 'I' for Inactive)
REMARK    1  A    between atoms: O_2  and  C_3 
REMARK    2  A    between atoms: C_3  and  C_6 
REMARK       I    between atoms: C_6  and  N_8 
REMARK    3  A    between atoms: N_8  and  C_9 
REMARK    4  A    between atoms: C_13  and  N_14 
ROOT
HETATM    1  C   UNL     1     -42.821 -51.292  13.197  1.00  0.00     0.051 A 
HETATM    2  C   UNL     1     -41.947 -51.391  12.126  1.00  0.00     0.119 A 
HETATM    3  N   UNL     1     -41.457 -50.334  11.428  1.00  0.00    -0.350 N 
ATOM      4  HN  UNL     1     -40.834 -50.491  10.636  1.00  0.00     0.166 HD
HETATM    5  C   UNL     1     -41.795 -49.075  11.782  1.00  0.00     0.109 A 
HETATM    6  C   UNL     1     -42.654 -48.876  12.879  1.00  0.00    -0.016 A 
HETATM    7  C   UNL     1     -43.000 -47.530  13.453  1.00  0.00     0.052 C 
HETATM    8  C   UNL     1     -43.197 -50.004  13.551  1.00  0.00     0.041 A 
ENDROOT
BRANCH   1   9
HETATM    9  N   UNL     1     -43.316 -52.391  13.944  1.00  0.00    -0.323 N 
HETATM   10  C   UNL     1     -44.236 -53.318  13.475  1.00  0.00     0.256 C 
HETATM   11  O   UNL     1     -44.726 -53.310  12.345  1.00  0.00    -0.270 OA
HETATM   12  H   UNL     1     -42.878 -52.600  14.831  1.00  0.00     0.169 HD
BRANCH  10  13
HETATM   13  C   UNL     1     -44.620 -54.425  14.501  1.00  0.00     0.133 C 
HETATM   14  C   UNL     1     -43.356 -55.201  14.910  1.00  0.00     0.056 C 
HETATM   15  C   UNL     1     -45.575 -55.412  13.810  1.00  0.00     0.056 C 
BRANCH  13  16
HETATM   16  O   UNL     1     -45.337 -53.927  15.637  1.00  0.00    -0.376 OA
HETATM   17  C   UNL     1     -46.551 -53.246  15.345  1.00  0.00     0.203 C 
ENDBRANCH  13  16
ENDBRANCH  10  13
ENDBRANCH   1   9
BRANCH   5  18
HETATM   18  N   UNL     1     -41.199 -48.057  11.059  1.00  0.00    -0.367 N 
HETATM   19  C   UNL     1     -39.957 -47.411  11.470  1.00  0.00     0.124 C 
HETATM   20  C   UNL     1     -40.177 -45.939  11.820  1.00  0.00     0.020 C 
HETATM   21  C   UNL     1     -40.897 -45.195  10.703  1.00  0.00     0.003 C 
HETATM   22  C   UNL     1     -42.216 -45.889  10.383  1.00  0.00     0.020 C 
HETATM   23  C   UNL     1     -42.004 -47.364  10.044  1.00  0.00     0.124 C 
ENDBRANCH   5  18
TORSDOF 4
ENDMDL
MODEL 4
REMARK VINA RESULT:      -5.7      4.024      5.576
REMARK  4 active torsions:
REMARK  status: ('A' for Active; 'I' for Inactive)
REMARK    1  A    between atoms: O_2  and  C_3 
REMARK    2  A    between atoms: C_3  and  C_6 
REMARK       I    between atoms: C_6  and  N_8 
REMARK    3  A    between atoms: N_8  and  C_9 
REMARK    4  A    between atoms: C_13  and  N_14 
ROOT
HETATM    1  C   UNL     1     -41.803 -48.856  12.312  1.00  0.00     0.051 A 
HETATM    2  C   UNL     1     -41.313 -49.932  11.588  1.00  0.00     0.119 A 
HETATM    3  N   UNL     1     -41.682 -51.225  11.782  1.00  0.00    -0.350 N 
ATOM      4  HN  UNL     1     -41.259 -51.965  11.221  1.00  0.00     0.166 HD
HETATM    5  C   UNL     1     -42.608 -51.531  12.716  1.00  0.00     0.109 A 
HETATM    6  C   UNL     1     -43.183 -50.497  13.479  1.00  0.00    -0.016 A 
HETATM    7  C   UNL     1     -44.311 -50.690  14.454  1.00  0.00     0.052 C 
HETATM    8  C   UNL     1     -42.732 -49.163  13.294  1.00  0.00     0.041 A 
ENDROOT
BRANCH   1   9
HETATM    9  N   UNL     1     -41.439 -47.502  12.096  1.00  0.00    -0.323 N 
HETATM   10  C   UNL     1     -41.736 -46.774  10.953  1.00  0.00     0.256 C 
HETATM   11  O   UNL     1     -42.368 -47.209   9.989  1.00  0.00    -0.270 OA
HETATM   12  H   UNL     1     -41.051 -46.984  12.873  1.00  0.00     0.169 HD
BRANCH  10  13
HETATM   13  C   UNL     1     -41.213 -45.307  10.966  1.00  0.00     0.133 C 
HETATM   14  C   UNL     1     -39.827 -45.255  10.299  1.00  0.00     0.056 C 
HETATM   15  C   UNL     1     -41.048 -44.868  12.429  1.00  0.00     0.056 C 
BRANCH  13  16
HETATM   16  O   UNL     1     -42.126 -44.369  10.383  1.00  0.00    -0.376 OA
HETATM   17  C   UNL     1     -42.550 -43.315  11.239  1.00  0.00     0.203 C 
ENDBRANCH  13  16
ENDBRANCH  10  13
ENDBRANCH   1   9
BRANCH   5  18
HETATM   18  N   UNL     1     -42.971 -52.864  12.802  1.00  0.00    -0.367 N 
HETATM   19  C   UNL     1     -44.231 -53.380  12.277  1.00  0.00     0.124 C 
HETATM   20  C   UNL     1     -45.137 -53.897  13.394  1.00  0.00     0.020 C 
HETATM   21  C   UNL     1     -44.413 -54.889  14.294  1.00  0.00     0.003 C 
HETATM   22  C   UNL     1     -43.149 -54.252  14.860  1.00  0.00     0.020 C 
HETATM   23  C   UNL     1     -42.245 -53.721  13.748  1.00  0.00     0.124 C 
ENDBRANCH   5  18
TORSDOF 4
ENDMDL
MODEL 5
REMARK VINA RESULT:      -5.6      3.333      4.302
REMARK  4 active torsions:
REMARK  status: ('A' for Active; 'I' for Inactive)
REMARK    1  A    between atoms: O_2  and  C_3 
REMARK    2  A    between atoms: C_3  and  C_6 
REMARK       I    between atoms: C_6  and  N_8 
REMARK    3  A    between atoms: N_8  and  C_9 
REMARK    4  A    between atoms: C_13  and  N_14 
ROOT
HETATM    1  C   UNL     1     -40.219 -48.572  11.498  1.00  0.00     0.051 A 
HETATM    2  C   UNL     1     -41.337 -49.337  11.796  1.00  0.00     0.119 A 
HETATM    3  N   UNL     1     -41.300 -50.594  12.308  1.00  0.00    -0.350 N 
ATOM      4  HN  UNL     1     -42.168 -51.101  12.480  1.00  0.00     0.166 HD
HETATM    5  C   UNL     1     -40.112 -51.174  12.589  1.00  0.00     0.109 A 
HETATM    6  C   UNL     1     -38.924 -50.460  12.347  1.00  0.00    -0.016 A 
HETATM    7  C   UNL     1     -37.553 -50.939  12.736  1.00  0.00     0.052 C 
HETATM    8  C   UNL     1     -38.995 -49.170  11.755  1.00  0.00     0.041 A 
ENDROOT
BRANCH   1   9
HETATM    9  N   UNL     1     -40.255 -47.251  10.986  1.00  0.00    -0.323 N 
HETATM   10  C   UNL     1     -40.485 -46.112  11.746  1.00  0.00     0.256 C 
HETATM   11  O   UNL     1     -40.672 -46.108  12.963  1.00  0.00    -0.270 OA
HETATM   12  H   UNL     1     -39.965 -47.102  10.029  1.00  0.00     0.169 HD
BRANCH  10  13
HETATM   13  C   UNL     1     -40.481 -44.782  10.936  1.00  0.00     0.133 C 
HETATM   14  C   UNL     1     -39.385 -44.845   9.858  1.00  0.00     0.056 C 
HETATM   15  C   UNL     1     -40.131 -43.634  11.897  1.00  0.00     0.056 C 
BRANCH  13  16
HETATM   16  O   UNL     1     -41.760 -44.445  10.384  1.00  0.00    -0.376 OA
HETATM   17  C   UNL     1     -42.536 -43.530  11.149  1.00  0.00     0.203 C 
ENDBRANCH  13  16
ENDBRANCH  10  13
ENDBRANCH   1   9
BRANCH   5  18
HETATM   18  N   UNL     1     -40.168 -52.430  13.168  1.00  0.00    -0.367 N 
HETATM   19  C   UNL     1     -40.794 -53.577  12.520  1.00  0.00     0.124 C 
HETATM   20  C   UNL     1     -42.026 -54.055  13.289  1.00  0.00     0.020 C 
HETATM   21  C   UNL     1     -41.715 -54.295  14.760  1.00  0.00     0.003 C 
HETATM   22  C   UNL     1     -41.134 -53.030  15.381  1.00  0.00     0.020 C 
HETATM   23  C   UNL     1     -39.909 -52.540  14.610  1.00  0.00     0.124 C 
ENDBRANCH   5  18
TORSDOF 4
ENDMDL
MODEL 6
REMARK VINA RESULT:      -5.5      4.157      5.227
REMARK  4 active torsions:
REMARK  status: ('A' for Active; 'I' for Inactive)
REMARK    1  A    between atoms: O_2  and  C_3 
REMARK    2  A    between atoms: C_3  and  C_6 
REMARK       I    between atoms: C_6  and  N_8 
REMARK    3  A    between atoms: N_8  and  C_9 
REMARK    4  A    between atoms: C_13  and  N_14 
ROOT
HETATM    1  C   UNL     1     -43.091 -49.544  12.826  1.00  0.00     0.051 A 
HETATM    2  C   UNL     1     -43.079 -48.206  13.189  1.00  0.00     0.119 A 
HETATM    3  N   UNL     1     -41.997 -47.390  13.098  1.00  0.00    -0.350 N 
ATOM      4  HN  UNL     1     -42.062 -46.420  13.406  1.00  0.00     0.166 HD
HETATM    5  C   UNL     1     -40.833 -47.864  12.600  1.00  0.00     0.109 A 
HETATM    6  C   UNL     1     -40.761 -49.205  12.177  1.00  0.00    -0.016 A 
HETATM    7  C   UNL     1     -39.572 -49.814  11.488  1.00  0.00     0.052 C 
HETATM    8  C   UNL     1     -41.893 -50.048  12.341  1.00  0.00     0.041 A 
ENDROOT
BRANCH   1   9
HETATM    9  N   UNL     1     -44.225 -50.392  12.896  1.00  0.00    -0.323 N 
HETATM   10  C   UNL     1     -44.619 -51.097  14.025  1.00  0.00     0.256 C 
HETATM   11  O   UNL     1     -44.040 -51.063  15.111  1.00  0.00    -0.270 OA
HETATM   12  H   UNL     1     -44.872 -50.388  12.119  1.00  0.00     0.169 HD
BRANCH  10  13
HETATM   13  C   UNL     1     -45.898 -51.964  13.832  1.00  0.00     0.133 C 
HETATM   14  C   UNL     1     -46.512 -51.667  12.452  1.00  0.00     0.056 C 
HETATM   15  C   UNL     1     -46.924 -51.554  14.901  1.00  0.00     0.056 C 
BRANCH  13  16
HETATM   16  O   UNL     1     -45.675 -53.366  14.031  1.00  0.00    -0.376 OA
HETATM   17  C   UNL     1     -44.755 -53.973  13.132  1.00  0.00     0.203 C 
ENDBRANCH  13  16
ENDBRANCH  10  13
ENDBRANCH   1   9
BRANCH   5  18
HETATM   18  N   UNL     1     -39.802 -46.949  12.482  1.00  0.00    -0.367 N 
HETATM   19  C   UNL     1     -38.907 -46.613  13.585  1.00  0.00     0.124 C 
HETATM   20  C   UNL     1     -39.070 -45.157  14.018  1.00  0.00     0.020 C 
HETATM   21  C   UNL     1     -38.952 -44.200  12.839  1.00  0.00     0.003 C 
HETATM   22  C   UNL     1     -39.967 -44.572  11.765  1.00  0.00     0.020 C 
HETATM   23  C   UNL     1     -39.817 -46.031  11.336  1.00  0.00     0.124 C 
ENDBRANCH   5  18
TORSDOF 4
ENDMDL
MODEL 7
REMARK VINA RESULT:      -5.1      4.183      6.134
REMARK  4 active torsions:
REMARK  status: ('A' for Active; 'I' for Inactive)
REMARK    1  A    between atoms: O_2  and  C_3 
REMARK    2  A    between atoms: C_3  and  C_6 
REMARK       I    between atoms: C_6  and  N_8 
REMARK    3  A    between atoms: N_8  and  C_9 
REMARK    4  A    between atoms: C_13  and  N_14 
ROOT
HETATM    1  C   UNL     1     -42.377 -47.722  12.849  1.00  0.00     0.051 A 
HETATM    2  C   UNL     1     -42.760 -48.737  11.986  1.00  0.00     0.119 A 
HETATM    3  N   UNL     1     -43.311 -49.916  12.375  1.00  0.00    -0.350 N 
ATOM      4  HN  UNL     1     -43.547 -50.623  11.678  1.00  0.00     0.166 HD
HETATM    5  C   UNL     1     -43.548 -50.152  13.684  1.00  0.00     0.109 A 
HETATM    6  C   UNL     1     -43.219 -49.164  14.631  1.00  0.00    -0.016 A 
HETATM    7  C   UNL     1     -43.550 -49.250  16.095  1.00  0.00     0.052 C 
HETATM    8  C   UNL     1     -42.589 -47.967  14.198  1.00  0.00     0.041 A 
ENDROOT
BRANCH   1   9
HETATM    9  N   UNL     1     -41.824 -46.481  12.446  1.00  0.00    -0.323 N 
HETATM   10  C   UNL     1     -40.501 -46.286  12.074  1.00  0.00     0.256 C 
HETATM   11  O   UNL     1     -39.646 -47.171  12.035  1.00  0.00    -0.270 OA
HETATM   12  H   UNL     1     -42.455 -45.707  12.287  1.00  0.00     0.169 HD
BRANCH  10  13
HETATM   13  C   UNL     1     -40.149 -44.820  11.682  1.00  0.00     0.133 C 
HETATM   14  C   UNL     1     -39.562 -44.801  10.259  1.00  0.00     0.056 C 
HETATM   15  C   UNL     1     -39.064 -44.311  12.645  1.00  0.00     0.056 C 
BRANCH  13  16
HETATM   16  O   UNL     1     -41.247 -43.910  11.823  1.00  0.00    -0.376 OA
HETATM   17  C   UNL     1     -41.005 -42.584  11.369  1.00  0.00     0.203 C 
ENDBRANCH  13  16
ENDBRANCH  10  13
ENDBRANCH   1   9
BRANCH   5  18
HETATM   18  N   UNL     1     -44.172 -51.350  13.985  1.00  0.00    -0.367 N 
HETATM   19  C   UNL     1     -43.439 -52.586  14.237  1.00  0.00     0.124 C 
HETATM   20  C   UNL     1     -43.723 -53.638  13.165  1.00  0.00     0.020 C 
HETATM   21  C   UNL     1     -45.217 -53.857  12.971  1.00  0.00     0.003 C 
HETATM   22  C   UNL     1     -45.898 -52.535  12.639  1.00  0.00     0.020 C 
HETATM   23  C   UNL     1     -45.608 -51.475  13.702  1.00  0.00     0.124 C 
ENDBRANCH   5  18
TORSDOF 4
ENDMDL
MODEL 8
REMARK VINA RESULT:      -5.1      3.764      5.320
REMARK  4 active torsions:
REMARK  status: ('A' for Active; 'I' for Inactive)
REMARK    1  A    between atoms: O_2  and  C_3 
REMARK    2  A    between atoms: C_3  and  C_6 
REMARK       I    between atoms: C_6  and  N_8 
REMARK    3  A    between atoms: N_8  and  C_9 
REMARK    4  A    between atoms: C_13  and  N_14 
ROOT
HETATM    1  C   UNL     1     -41.692 -48.095  11.617  1.00  0.00     0.051 A 
HETATM    2  C   UNL     1     -42.981 -48.444  11.991  1.00  0.00     0.119 A 
HETATM    3  N   UNL     1     -43.344 -49.663  12.467  1.00  0.00    -0.350 N 
ATOM      4  HN  UNL     1     -44.319 -49.850  12.701  1.00  0.00     0.166 HD
HETATM    5  C   UNL     1     -42.413 -50.629  12.632  1.00  0.00     0.109 A 
HETATM    6  C   UNL     1     -41.072 -50.354  12.307  1.00  0.00    -0.016 A 
HETATM    7  C   UNL     1     -39.927 -51.294  12.565  1.00  0.00     0.052 C 
HETATM    8  C   UNL     1     -40.735 -49.090  11.754  1.00  0.00     0.041 A 
ENDROOT
BRANCH   1   9
HETATM    9  N   UNL     1     -41.305 -46.817  11.142  1.00  0.00    -0.323 N 
HETATM   10  C   UNL     1     -40.976 -45.738  11.949  1.00  0.00     0.256 C 
HETATM   11  O   UNL     1     -40.964 -45.761  13.180  1.00  0.00    -0.270 OA
HETATM   12  H   UNL     1     -41.126 -46.710  10.152  1.00  0.00     0.169 HD
BRANCH  10  13
HETATM   13  C   UNL     1     -40.593 -44.442  11.174  1.00  0.00     0.133 C 
HETATM   14  C   UNL     1     -39.557 -44.784  10.089  1.00  0.00     0.056 C 
HETATM   15  C   UNL     1     -39.934 -43.466  12.162  1.00  0.00     0.056 C 
BRANCH  13  16
HETATM   16  O   UNL     1     -41.723 -43.742  10.638  1.00  0.00    -0.376 OA
HETATM   17  C   UNL     1     -41.895 -42.409  11.104  1.00  0.00     0.203 C 
ENDBRANCH  13  16
ENDBRANCH  10  13
ENDBRANCH   1   9
BRANCH   5  18
HETATM   18  N   UNL     1     -42.859 -51.818  13.184  1.00  0.00    -0.367 N 
HETATM   19  C   UNL     1     -43.273 -52.962  12.379  1.00  0.00     0.124 C 
HETATM   20  C   UNL     1     -44.762 -53.262  12.552  1.00  0.00     0.020 C 
HETATM   21  C   UNL     1     -45.144 -53.393  14.020  1.00  0.00     0.003 C 
HETATM   22  C   UNL     1     -44.745 -52.131  14.775  1.00  0.00     0.020 C 
HETATM   23  C   UNL     1     -43.260 -51.819  14.597  1.00  0.00     0.124 C 
ENDBRANCH   5  18
TORSDOF 4
ENDMDL
MODEL 9
REMARK VINA RESULT:      -5.0      6.550     10.164
REMARK  4 active torsions:
REMARK  status: ('A' for Active; 'I' for Inactive)
REMARK    1  A    between atoms: O_2  and  C_3 
REMARK    2  A    between atoms: C_3  and  C_6 
REMARK       I    between atoms: C_6  and  N_8 
REMARK    3  A    between atoms: N_8  and  C_9 
REMARK    4  A    between atoms: C_13  and  N_14 
ROOT
HETATM    1  C   UNL     1     -40.613 -53.938  16.122  1.00  0.00     0.051 A 
HETATM    2  C   UNL     1     -40.436 -52.848  15.284  1.00  0.00     0.119 A 
HETATM    3  N   UNL     1     -41.429 -52.243  14.582  1.00  0.00    -0.350 N 
ATOM      4  HN  UNL     1     -41.213 -51.458  13.968  1.00  0.00     0.166 HD
HETATM    5  C   UNL     1     -42.701 -52.682  14.696  1.00  0.00     0.109 A 
HETATM    6  C   UNL     1     -42.981 -53.766  15.550  1.00  0.00    -0.016 A 
HETATM    7  C   UNL     1     -44.365 -54.262  15.864  1.00  0.00     0.052 C 
HETATM    8  C   UNL     1     -41.912 -54.415  16.224  1.00  0.00     0.041 A 
ENDROOT
BRANCH   1   9
HETATM    9  N   UNL     1     -39.584 -54.557  16.876  1.00  0.00    -0.323 N 
HETATM   10  C   UNL     1     -38.650 -55.445  16.362  1.00  0.00     0.256 C 
HETATM   11  O   UNL     1     -38.589 -55.794  15.183  1.00  0.00    -0.270 OA
HETATM   12  H   UNL     1     -39.429 -54.237  17.823  1.00  0.00     0.169 HD
BRANCH  10  13
HETATM   13  C   UNL     1     -37.630 -55.988  17.406  1.00  0.00     0.133 C 
HETATM   14  C   UNL     1     -38.212 -57.243  18.081  1.00  0.00     0.056 C 
HETATM   15  C   UNL     1     -37.436 -54.917  18.492  1.00  0.00     0.056 C 
BRANCH  13  16
HETATM   16  O   UNL     1     -36.326 -56.225  16.863  1.00  0.00    -0.376 OA
HETATM   17  C   UNL     1     -35.237 -55.876  17.709  1.00  0.00     0.203 C 
ENDBRANCH  13  16
ENDBRANCH  10  13
ENDBRANCH   1   9
BRANCH   5  18
HETATM   18  N   UNL     1     -43.658 -51.967  13.997  1.00  0.00    -0.367 N 
HETATM   19  C   UNL     1     -44.444 -50.894  14.596  1.00  0.00     0.124 C 
HETATM   20  C   UNL     1     -45.928 -51.254  14.665  1.00  0.00     0.020 C 
HETATM   21  C   UNL     1     -46.463 -51.704  13.312  1.00  0.00     0.003 C 
HETATM   22  C   UNL     1     -45.637 -52.873  12.790  1.00  0.00     0.020 C 
HETATM   23  C   UNL     1     -44.150 -52.524  12.730  1.00  0.00     0.124 C 
ENDBRANCH   5  18
TORSDOF 4
ENDMDL
