MODEL 1
REMARK VINA RESULT:      -7.1      0.000      0.000
REMARK  3 active torsions:
REMARK  status: ('A' for Active; 'I' for Inactive)
REMARK       I    between atoms: C_2  and  N_3 
REMARK       I    between atoms: C_2  and  N_13 
REMARK    1  A    between atoms: N_3  and  C_4 
REMARK    2  A    between atoms: C_4  and  C_5 
REMARK    3  A    between atoms: C_5  and  C_6 
ROOT
HETATM    1  O   UNL     1     -40.395 -50.065  11.019  1.00  0.00    -0.247 OA
HETATM    2  C   UNL     1     -41.341 -49.835  11.762  1.00  0.00     0.318 C 
HETATM    3  N   UNL     1     -42.128 -48.718  11.637  1.00  0.00    -0.343 N 
HETATM    4  N   UNL     1     -41.755 -50.681  12.781  1.00  0.00    -0.332 N 
HETATM    5  C   UNL     1     -41.138 -52.004  12.894  1.00  0.00     0.137 C 
HETATM    6  C   UNL     1     -42.160 -53.121  13.118  1.00  0.00     0.095 C 
HETATM    7  S   UNL     1     -43.213 -52.839  14.579  1.00  0.00    -0.156 SA
HETATM    8  C   UNL     1     -43.793 -51.116  14.200  1.00  0.00     0.024 C 
HETATM    9  C   UNL     1     -44.572 -50.576  15.423  1.00  0.00     0.022 C 
HETATM   10  C   UNL     1     -45.903 -51.295  15.668  1.00  0.00     0.002 C 
HETATM   11  C   UNL     1     -46.785 -51.323  14.423  1.00  0.00     0.000 C 
HETATM   12  C   UNL     1     -46.046 -51.835  13.191  1.00  0.00     0.002 C 
HETATM   13  C   UNL     1     -44.735 -51.083  12.972  1.00  0.00     0.022 C 
HETATM   14  C   UNL     1     -42.543 -50.240  13.948  1.00  0.00     0.148 C 
HETATM   15  H   UNL     1     -43.101 -48.925  11.791  1.00  0.00     0.164 HD
ENDROOT
BRANCH   3  16
HETATM   16  C   UNL     1     -41.862 -47.714  10.623  1.00  0.00     0.129 C 
BRANCH  16  17
HETATM   17  C   UNL     1     -43.103 -46.845  10.421  1.00  0.00     0.060 C 
BRANCH  17  18
HETATM   18  C   UNL     1     -44.084 -47.435   9.454  1.00  0.00    -0.041 A 
HETATM   19  C   UNL     1     -45.419 -47.644   9.808  1.00  0.00     0.010 A 
HETATM   20  C   UNL     1     -46.298 -48.190   8.879  1.00  0.00     0.018 A 
HETATM   21  C   UNL     1     -45.809 -48.514   7.625  1.00  0.00     0.087 A 
HETATM   22  N   UNL     1     -44.526 -48.331   7.247  1.00  0.00    -0.375 N 
HETATM   23  C   UNL     1     -43.694 -47.799   8.169  1.00  0.00     0.094 A 
ATOM     24  HN  UNL     1     -44.200 -48.582   6.313  1.00  0.00     0.164 HD
ENDBRANCH  17  18
ENDBRANCH  16  17
ENDBRANCH   3  16
TORSDOF 3
ENDMDL
MODEL 2
REMARK VINA RESULT:      -6.5      2.125      2.862
REMARK  3 active torsions:
REMARK  status: ('A' for Active; 'I' for Inactive)
REMARK       I    between atoms: C_2  and  N_3 
REMARK       I    between atoms: C_2  and  N_13 
REMARK    1  A    between atoms: N_3  and  C_4 
REMARK    2  A    between atoms: C_4  and  C_5 
REMARK    3  A    between atoms: C_5  and  C_6 
ROOT
HETATM    1  O   UNL     1     -39.556 -52.574  12.892  1.00  0.00    -0.247 OA
HETATM    2  C   UNL     1     -40.598 -51.973  13.124  1.00  0.00     0.318 C 
HETATM    3  N   UNL     1     -40.926 -50.792  12.507  1.00  0.00    -0.343 N 
HETATM    4  N   UNL     1     -41.580 -52.424  13.995  1.00  0.00    -0.332 N 
HETATM    5  C   UNL     1     -41.457 -53.769  14.561  1.00  0.00     0.137 C 
HETATM    6  C   UNL     1     -42.766 -54.560  14.508  1.00  0.00     0.095 C 
HETATM    7  S   UNL     1     -44.149 -53.702  15.330  1.00  0.00    -0.156 SA
HETATM    8  C   UNL     1     -44.027 -52.057  14.478  1.00  0.00     0.024 C 
HETATM    9  C   UNL     1     -45.007 -51.073  15.161  1.00  0.00     0.022 C 
HETATM   10  C   UNL     1     -46.482 -51.420  14.935  1.00  0.00     0.002 C 
HETATM   11  C   UNL     1     -46.817 -51.592  13.455  1.00  0.00     0.000 C 
HETATM   12  C   UNL     1     -45.862 -52.544  12.744  1.00  0.00     0.002 C 
HETATM   13  C   UNL     1     -44.403 -52.155  12.980  1.00  0.00     0.022 C 
HETATM   14  C   UNL     1     -42.575 -51.546  14.639  1.00  0.00     0.148 C 
HETATM   15  H   UNL     1     -41.904 -50.752  12.270  1.00  0.00     0.164 HD
ENDROOT
BRANCH   3  16
HETATM   16  C   UNL     1     -40.032 -50.161  11.555  1.00  0.00     0.129 C 
BRANCH  16  17
HETATM   17  C   UNL     1     -39.890 -48.676  11.888  1.00  0.00     0.060 C 
BRANCH  17  18
HETATM   18  C   UNL     1     -40.826 -47.805  11.108  1.00  0.00    -0.041 A 
HETATM   19  C   UNL     1     -42.032 -48.299  10.605  1.00  0.00     0.010 A 
HETATM   20  C   UNL     1     -42.875 -47.454   9.889  1.00  0.00     0.018 A 
HETATM   21  C   UNL     1     -42.478 -46.142   9.697  1.00  0.00     0.087 A 
HETATM   22  N   UNL     1     -41.319 -45.629  10.163  1.00  0.00    -0.375 N 
HETATM   23  C   UNL     1     -40.521 -46.471  10.855  1.00  0.00     0.094 A 
ATOM     24  HN  UNL     1     -41.060 -44.655  10.001  1.00  0.00     0.164 HD
ENDBRANCH  17  18
ENDBRANCH  16  17
ENDBRANCH   3  16
TORSDOF 3
ENDMDL
MODEL 3
REMARK VINA RESULT:      -6.1      3.309      6.168
REMARK  3 active torsions:
REMARK  status: ('A' for Active; 'I' for Inactive)
REMARK       I    between atoms: C_2  and  N_3 
REMARK       I    between atoms: C_2  and  N_13 
REMARK    1  A    between atoms: N_3  and  C_4 
REMARK    2  A    between atoms: C_4  and  C_5 
REMARK    3  A    between atoms: C_5  and  C_6 
ROOT
HETATM    1  O   UNL     1     -42.045 -53.696  13.734  1.00  0.00    -0.247 OA
HETATM    2  C   UNL     1     -42.215 -52.700  13.042  1.00  0.00     0.318 C 
HETATM    3  N   UNL     1     -43.373 -52.471  12.343  1.00  0.00    -0.343 N 
HETATM    4  N   UNL     1     -41.288 -51.675  12.912  1.00  0.00    -0.332 N 
HETATM    5  C   UNL     1     -40.097 -51.688  13.764  1.00  0.00     0.137 C 
HETATM    6  C   UNL     1     -39.796 -50.323  14.388  1.00  0.00     0.095 C 
HETATM    7  S   UNL     1     -39.616 -48.998  13.148  1.00  0.00    -0.156 SA
HETATM    8  C   UNL     1     -41.194 -49.257  12.204  1.00  0.00     0.024 C 
HETATM    9  C   UNL     1     -41.177 -48.346  10.953  1.00  0.00     0.022 C 
HETATM   10  C   UNL     1     -41.263 -46.851  11.282  1.00  0.00     0.002 C 
HETATM   11  C   UNL     1     -42.450 -46.524  12.184  1.00  0.00     0.000 C 
HETATM   12  C   UNL     1     -42.510 -47.413  13.421  1.00  0.00     0.002 C 
HETATM   13  C   UNL     1     -42.438 -48.894  13.051  1.00  0.00     0.022 C 
HETATM   14  C   UNL     1     -41.249 -50.741  11.770  1.00  0.00     0.148 C 
HETATM   15  H   UNL     1     -43.646 -51.502  12.377  1.00  0.00     0.164 HD
ENDROOT
BRANCH   3  16
HETATM   16  C   UNL     1     -44.467 -53.423  12.358  1.00  0.00     0.129 C 
BRANCH  16  17
HETATM   17  C   UNL     1     -45.784 -52.691  12.617  1.00  0.00     0.060 C 
BRANCH  17  18
HETATM   18  C   UNL     1     -46.104 -52.551  14.073  1.00  0.00    -0.041 A 
HETATM   19  C   UNL     1     -46.808 -51.447  14.562  1.00  0.00     0.010 A 
HETATM   20  C   UNL     1     -47.088 -51.359  15.922  1.00  0.00     0.018 A 
HETATM   21  C   UNL     1     -46.649 -52.379  16.749  1.00  0.00     0.087 A 
HETATM   22  N   UNL     1     -45.963 -53.458  16.316  1.00  0.00    -0.375 N 
HETATM   23  C   UNL     1     -45.705 -53.518  14.991  1.00  0.00     0.094 A 
ATOM     24  HN  UNL     1     -45.655 -54.190  16.956  1.00  0.00     0.164 HD
ENDBRANCH  17  18
ENDBRANCH  16  17
ENDBRANCH   3  16
TORSDOF 3
ENDMDL
MODEL 4
REMARK VINA RESULT:      -6.1      3.232      5.780
REMARK  3 active torsions:
REMARK  status: ('A' for Active; 'I' for Inactive)
REMARK       I    between atoms: C_2  and  N_3 
REMARK       I    between atoms: C_2  and  N_13 
REMARK    1  A    between atoms: N_3  and  C_4 
REMARK    2  A    between atoms: C_4  and  C_5 
REMARK    3  A    between atoms: C_5  and  C_6 
ROOT
HETATM    1  O   UNL     1     -39.367 -53.260  13.631  1.00  0.00    -0.247 OA
HETATM    2  C   UNL     1     -40.143 -52.505  13.058  1.00  0.00     0.318 C 
HETATM    3  N   UNL     1     -41.452 -52.832  12.812  1.00  0.00    -0.343 N 
HETATM    4  N   UNL     1     -39.812 -51.226  12.628  1.00  0.00    -0.332 N 
HETATM    5  C   UNL     1     -38.512 -50.669  13.010  1.00  0.00     0.137 C 
HETATM    6  C   UNL     1     -38.608 -49.226  13.511  1.00  0.00     0.095 C 
HETATM    7  S   UNL     1     -39.397 -48.106  12.308  1.00  0.00    -0.156 SA
HETATM    8  C   UNL     1     -40.946 -49.073  11.973  1.00  0.00     0.024 C 
HETATM    9  C   UNL     1     -41.709 -48.395  10.810  1.00  0.00     0.022 C 
HETATM   10  C   UNL     1     -42.284 -47.021  11.172  1.00  0.00     0.002 C 
HETATM   11  C   UNL     1     -43.136 -47.065  12.438  1.00  0.00     0.000 C 
HETATM   12  C   UNL     1     -42.422 -47.741  13.603  1.00  0.00     0.002 C 
HETATM   13  C   UNL     1     -41.879 -49.113  13.207  1.00  0.00     0.022 C 
HETATM   14  C   UNL     1     -40.531 -50.505  11.561  1.00  0.00     0.148 C 
HETATM   15  H   UNL     1     -42.069 -52.048  12.956  1.00  0.00     0.164 HD
ENDROOT
BRANCH   3  16
HETATM   16  C   UNL     1     -41.994 -54.123  13.194  1.00  0.00     0.129 C 
BRANCH  16  17
HETATM   17  C   UNL     1     -42.921 -53.957  14.398  1.00  0.00     0.060 C 
BRANCH  17  18
HETATM   18  C   UNL     1     -44.155 -53.167  14.087  1.00  0.00    -0.041 A 
HETATM   19  C   UNL     1     -44.376 -51.908  14.650  1.00  0.00     0.010 A 
HETATM   20  C   UNL     1     -45.534 -51.206  14.331  1.00  0.00     0.018 A 
HETATM   21  C   UNL     1     -46.437 -51.792  13.460  1.00  0.00     0.087 A 
HETATM   22  N   UNL     1     -46.262 -53.008  12.899  1.00  0.00    -0.375 N 
HETATM   23  C   UNL     1     -45.129 -53.667  13.226  1.00  0.00     0.094 A 
ATOM     24  HN  UNL     1     -46.950 -53.409  12.261  1.00  0.00     0.164 HD
ENDBRANCH  17  18
ENDBRANCH  16  17
ENDBRANCH   3  16
TORSDOF 3
ENDMDL
MODEL 5
REMARK VINA RESULT:      -6.0      3.555      5.167
REMARK  3 active torsions:
REMARK  status: ('A' for Active; 'I' for Inactive)
REMARK       I    between atoms: C_2  and  N_3 
REMARK       I    between atoms: C_2  and  N_13 
REMARK    1  A    between atoms: N_3  and  C_4 
REMARK    2  A    between atoms: C_4  and  C_5 
REMARK    3  A    between atoms: C_5  and  C_6 
ROOT
HETATM    1  O   UNL     1     -39.409 -52.865  13.261  1.00  0.00    -0.247 OA
HETATM    2  C   UNL     1     -40.447 -52.225  13.377  1.00  0.00     0.318 C 
HETATM    3  N   UNL     1     -40.679 -51.059  12.692  1.00  0.00    -0.343 N 
HETATM    4  N   UNL     1     -41.517 -52.612  14.171  1.00  0.00    -0.332 N 
HETATM    5  C   UNL     1     -41.490 -53.938  14.794  1.00  0.00     0.137 C 
HETATM    6  C   UNL     1     -42.815 -54.690  14.651  1.00  0.00     0.095 C 
HETATM    7  S   UNL     1     -44.236 -53.760  15.314  1.00  0.00    -0.156 SA
HETATM    8  C   UNL     1     -43.983 -52.153  14.419  1.00  0.00     0.024 C 
HETATM    9  C   UNL     1     -44.986 -51.114  14.976  1.00  0.00     0.022 C 
HETATM   10  C   UNL     1     -46.447 -51.425  14.631  1.00  0.00     0.002 C 
HETATM   11  C   UNL     1     -46.654 -51.643  13.134  1.00  0.00     0.000 C 
HETATM   12  C   UNL     1     -45.672 -52.650  12.545  1.00  0.00     0.002 C 
HETATM   13  C   UNL     1     -44.229 -52.296  12.897  1.00  0.00     0.022 C 
HETATM   14  C   UNL     1     -42.535 -51.681  14.692  1.00  0.00     0.148 C 
HETATM   15  H   UNL     1     -41.630 -50.998  12.367  1.00  0.00     0.164 HD
ENDROOT
BRANCH   3  16
HETATM   16  C   UNL     1     -39.683 -50.492  11.803  1.00  0.00     0.129 C 
BRANCH  16  17
HETATM   17  C   UNL     1     -39.717 -48.967  11.897  1.00  0.00     0.060 C 
BRANCH  17  18
HETATM   18  C   UNL     1     -39.090 -48.440  13.152  1.00  0.00    -0.041 A 
HETATM   19  C   UNL     1     -37.806 -48.827  13.544  1.00  0.00     0.010 A 
HETATM   20  C   UNL     1     -37.261 -48.310  14.714  1.00  0.00     0.018 A 
HETATM   21  C   UNL     1     -38.022 -47.424  15.457  1.00  0.00     0.087 A 
HETATM   22  N   UNL     1     -39.267 -47.030  15.115  1.00  0.00    -0.375 N 
HETATM   23  C   UNL     1     -39.772 -47.547  13.973  1.00  0.00     0.094 A 
ATOM     24  HN  UNL     1     -39.800 -46.375  15.688  1.00  0.00     0.164 HD
ENDBRANCH  17  18
ENDBRANCH  16  17
ENDBRANCH   3  16
TORSDOF 3
ENDMDL
MODEL 6
REMARK VINA RESULT:      -5.5      2.719      4.772
REMARK  3 active torsions:
REMARK  status: ('A' for Active; 'I' for Inactive)
REMARK       I    between atoms: C_2  and  N_3 
REMARK       I    between atoms: C_2  and  N_13 
REMARK    1  A    between atoms: N_3  and  C_4 
REMARK    2  A    between atoms: C_4  and  C_5 
REMARK    3  A    between atoms: C_5  and  C_6 
ROOT
HETATM    1  O   UNL     1     -43.611 -48.318  12.439  1.00  0.00    -0.247 OA
HETATM    2  C   UNL     1     -42.887 -49.289  12.255  1.00  0.00     0.318 C 
HETATM    3  N   UNL     1     -41.892 -49.304  11.311  1.00  0.00    -0.343 N 
HETATM    4  N   UNL     1     -42.953 -50.462  12.995  1.00  0.00    -0.332 N 
HETATM    5  C   UNL     1     -43.826 -50.506  14.170  1.00  0.00     0.137 C 
HETATM    6  C   UNL     1     -43.150 -51.135  15.391  1.00  0.00     0.095 C 
HETATM    7  S   UNL     1     -42.518 -52.814  15.066  1.00  0.00    -0.156 SA
HETATM    8  C   UNL     1     -41.525 -52.468  13.536  1.00  0.00     0.024 C 
HETATM    9  C   UNL     1     -41.032 -53.814  12.952  1.00  0.00     0.022 C 
HETATM   10  C   UNL     1     -39.994 -54.519  13.831  1.00  0.00     0.002 C 
HETATM   11  C   UNL     1     -38.820 -53.610  14.185  1.00  0.00     0.000 C 
HETATM   12  C   UNL     1     -39.268 -52.266  14.750  1.00  0.00     0.002 C 
HETATM   13  C   UNL     1     -40.289 -51.587  13.838  1.00  0.00     0.022 C 
HETATM   14  C   UNL     1     -42.455 -51.765  12.517  1.00  0.00     0.148 C 
HETATM   15  H   UNL     1     -41.062 -49.766  11.647  1.00  0.00     0.164 HD
ENDROOT
BRANCH   3  16
HETATM   16  C   UNL     1     -41.657 -48.167  10.440  1.00  0.00     0.129 C 
BRANCH  16  17
HETATM   17  C   UNL     1     -40.587 -47.263  11.051  1.00  0.00     0.060 C 
BRANCH  17  18
HETATM   18  C   UNL     1     -40.997 -45.824  11.114  1.00  0.00    -0.041 A 
HETATM   19  C   UNL     1     -40.050 -44.798  11.170  1.00  0.00     0.010 A 
HETATM   20  C   UNL     1     -40.474 -43.474  11.224  1.00  0.00     0.018 A 
HETATM   21  C   UNL     1     -41.835 -43.222  11.223  1.00  0.00     0.087 A 
HETATM   22  N   UNL     1     -42.780 -44.185  11.175  1.00  0.00    -0.375 N 
HETATM   23  C   UNL     1     -42.340 -45.461  11.123  1.00  0.00     0.094 A 
ATOM     24  HN  UNL     1     -43.776 -43.960  11.177  1.00  0.00     0.164 HD
ENDBRANCH  17  18
ENDBRANCH  16  17
ENDBRANCH   3  16
TORSDOF 3
ENDMDL
MODEL 7
REMARK VINA RESULT:      -5.4      2.783      3.482
REMARK  3 active torsions:
REMARK  status: ('A' for Active; 'I' for Inactive)
REMARK       I    between atoms: C_2  and  N_3 
REMARK       I    between atoms: C_2  and  N_13 
REMARK    1  A    between atoms: N_3  and  C_4 
REMARK    2  A    between atoms: C_4  and  C_5 
REMARK    3  A    between atoms: C_5  and  C_6 
ROOT
HETATM    1  O   UNL     1     -39.024 -50.766  12.044  1.00  0.00    -0.247 OA
HETATM    2  C   UNL     1     -40.176 -50.836  12.458  1.00  0.00     0.318 C 
HETATM    3  N   UNL     1     -41.181 -50.025  11.995  1.00  0.00    -0.343 N 
HETATM    4  N   UNL     1     -40.610 -51.758  13.400  1.00  0.00    -0.332 N 
HETATM    5  C   UNL     1     -39.693 -52.819  13.824  1.00  0.00     0.137 C 
HETATM    6  C   UNL     1     -40.356 -54.198  13.864  1.00  0.00     0.095 C 
HETATM    7  S   UNL     1     -41.838 -54.244  14.925  1.00  0.00    -0.156 SA
HETATM    8  C   UNL     1     -42.758 -52.796  14.216  1.00  0.00     0.024 C 
HETATM    9  C   UNL     1     -43.995 -52.515  15.102  1.00  0.00     0.022 C 
HETATM   10  C   UNL     1     -45.062 -53.613  15.031  1.00  0.00     0.002 C 
HETATM   11  C   UNL     1     -45.473 -53.930  13.596  1.00  0.00     0.000 C 
HETATM   12  C   UNL     1     -44.278 -54.198  12.688  1.00  0.00     0.002 C 
HETATM   13  C   UNL     1     -43.246 -53.074  12.774  1.00  0.00     0.022 C 
HETATM   14  C   UNL     1     -41.809 -51.574  14.240  1.00  0.00     0.148 C 
HETATM   15  H   UNL     1     -42.048 -50.526  11.887  1.00  0.00     0.164 HD
ENDROOT
BRANCH   3  16
HETATM   16  C   UNL     1     -40.929 -49.001  11.000  1.00  0.00     0.129 C 
BRANCH  16  17
HETATM   17  C   UNL     1     -42.052 -47.964  11.032  1.00  0.00     0.060 C 
BRANCH  17  18
HETATM   18  C   UNL     1     -41.550 -46.552  11.042  1.00  0.00    -0.041 A 
HETATM   19  C   UNL     1     -42.418 -45.472  11.219  1.00  0.00     0.010 A 
HETATM   20  C   UNL     1     -41.909 -44.177  11.226  1.00  0.00     0.018 A 
HETATM   21  C   UNL     1     -40.546 -44.007  11.052  1.00  0.00     0.087 A 
HETATM   22  N   UNL     1     -39.677 -45.024  10.873  1.00  0.00    -0.375 N 
HETATM   23  C   UNL     1     -40.198 -46.271  10.871  1.00  0.00     0.094 A 
ATOM     24  HN  UNL     1     -38.678 -44.860  10.747  1.00  0.00     0.164 HD
ENDBRANCH  17  18
ENDBRANCH  16  17
ENDBRANCH   3  16
TORSDOF 3
ENDMDL
MODEL 8
REMARK VINA RESULT:      -5.4      4.449      6.301
REMARK  3 active torsions:
REMARK  status: ('A' for Active; 'I' for Inactive)
REMARK       I    between atoms: C_2  and  N_3 
REMARK       I    between atoms: C_2  and  N_13 
REMARK    1  A    between atoms: N_3  and  C_4 
REMARK    2  A    between atoms: C_4  and  C_5 
REMARK    3  A    between atoms: C_5  and  C_6 
ROOT
HETATM    1  O   UNL     1     -41.553 -54.313  18.433  1.00  0.00    -0.247 OA
HETATM    2  C   UNL     1     -41.937 -53.669  17.465  1.00  0.00     0.318 C 
HETATM    3  N   UNL     1     -41.123 -53.369  16.402  1.00  0.00    -0.343 N 
HETATM    4  N   UNL     1     -43.236 -53.204  17.304  1.00  0.00    -0.332 N 
HETATM    5  C   UNL     1     -44.260 -53.629  18.261  1.00  0.00     0.137 C 
HETATM    6  C   UNL     1     -45.562 -54.064  17.584  1.00  0.00     0.095 C 
HETATM    7  S   UNL     1     -46.267 -52.775  16.503  1.00  0.00    -0.156 SA
HETATM    8  C   UNL     1     -44.769 -52.400  15.472  1.00  0.00     0.024 C 
HETATM    9  C   UNL     1     -45.076 -51.171  14.583  1.00  0.00     0.022 C 
HETATM   10  C   UNL     1     -46.126 -51.444  13.501  1.00  0.00     0.002 C 
HETATM   11  C   UNL     1     -45.779 -52.664  12.652  1.00  0.00     0.000 C 
HETATM   12  C   UNL     1     -45.454 -53.893  13.495  1.00  0.00     0.002 C 
HETATM   13  C   UNL     1     -44.393 -53.584  14.549  1.00  0.00     0.022 C 
HETATM   14  C   UNL     1     -43.602 -52.071  16.434  1.00  0.00     0.148 C 
HETATM   15  H   UNL     1     -41.609 -53.447  15.523  1.00  0.00     0.164 HD
ENDROOT
BRANCH   3  16
HETATM   16  C   UNL     1     -39.731 -53.776  16.377  1.00  0.00     0.129 C 
BRANCH  16  17
HETATM   17  C   UNL     1     -39.377 -54.317  14.992  1.00  0.00     0.060 C 
BRANCH  17  18
HETATM   18  C   UNL     1     -40.010 -53.542  13.877  1.00  0.00    -0.041 A 
HETATM   19  C   UNL     1     -39.658 -52.215  13.620  1.00  0.00     0.010 A 
HETATM   20  C   UNL     1     -40.268 -51.533  12.572  1.00  0.00     0.018 A 
HETATM   21  C   UNL     1     -41.215 -52.203  11.817  1.00  0.00     0.087 A 
HETATM   22  N   UNL     1     -41.586 -53.482  12.037  1.00  0.00    -0.375 N 
HETATM   23  C   UNL     1     -40.978 -54.120  13.061  1.00  0.00     0.094 A 
ATOM     24  HN  UNL     1     -42.290 -53.944  11.460  1.00  0.00     0.164 HD
ENDBRANCH  17  18
ENDBRANCH  16  17
ENDBRANCH   3  16
TORSDOF 3
ENDMDL
MODEL 9
REMARK VINA RESULT:      -5.3      2.490      3.549
REMARK  3 active torsions:
REMARK  status: ('A' for Active; 'I' for Inactive)
REMARK       I    between atoms: C_2  and  N_3 
REMARK       I    between atoms: C_2  and  N_13 
REMARK    1  A    between atoms: N_3  and  C_4 
REMARK    2  A    between atoms: C_4  and  C_5 
REMARK    3  A    between atoms: C_5  and  C_6 
ROOT
HETATM    1  O   UNL     1     -40.122 -49.735  11.872  1.00  0.00    -0.247 OA
HETATM    2  C   UNL     1     -41.144 -49.582  12.530  1.00  0.00     0.318 C 
HETATM    3  N   UNL     1     -41.928 -48.460  12.433  1.00  0.00    -0.343 N 
HETATM    4  N   UNL     1     -41.653 -50.527  13.411  1.00  0.00    -0.332 N 
HETATM    5  C   UNL     1     -41.033 -51.854  13.456  1.00  0.00     0.137 C 
HETATM    6  C   UNL     1     -42.060 -52.990  13.459  1.00  0.00     0.095 C 
HETATM    7  S   UNL     1     -43.264 -52.856  14.822  1.00  0.00    -0.156 SA
HETATM    8  C   UNL     1     -43.823 -51.106  14.555  1.00  0.00     0.024 C 
HETATM    9  C   UNL     1     -44.733 -50.693  15.737  1.00  0.00     0.022 C 
HETATM   10  C   UNL     1     -46.073 -51.435  15.767  1.00  0.00     0.002 C 
HETATM   11  C   UNL     1     -46.819 -51.340  14.439  1.00  0.00     0.000 C 
HETATM   12  C   UNL     1     -45.948 -51.725  13.247  1.00  0.00     0.002 C 
HETATM   13  C   UNL     1     -44.630 -50.952  13.244  1.00  0.00     0.022 C 
HETATM   14  C   UNL     1     -42.564 -50.206  14.525  1.00  0.00     0.148 C 
HETATM   15  H   UNL     1     -42.909 -48.684  12.462  1.00  0.00     0.164 HD
ENDROOT
BRANCH   3  16
HETATM   16  C   UNL     1     -41.570 -47.360  11.558  1.00  0.00     0.129 C 
BRANCH  16  17
HETATM   17  C   UNL     1     -42.603 -46.241  11.687  1.00  0.00     0.060 C 
BRANCH  17  18
HETATM   18  C   UNL     1     -41.992 -44.873  11.700  1.00  0.00    -0.041 A 
HETATM   19  C   UNL     1     -42.485 -43.862  12.528  1.00  0.00     0.010 A 
HETATM   20  C   UNL     1     -41.886 -42.607  12.511  1.00  0.00     0.018 A 
HETATM   21  C   UNL     1     -40.813 -42.405  11.660  1.00  0.00     0.087 A 
HETATM   22  N   UNL     1     -40.311 -43.354  10.842  1.00  0.00    -0.375 N 
HETATM   23  C   UNL     1     -40.912 -44.563  10.879  1.00  0.00     0.094 A 
ATOM     24  HN  UNL     1     -39.518 -43.168  10.227  1.00  0.00     0.164 HD
ENDBRANCH  17  18
ENDBRANCH  16  17
ENDBRANCH   3  16
TORSDOF 3
ENDMDL
