MODEL 1
REMARK VINA RESULT:      -6.7      0.000      0.000
REMARK  4 active torsions:
REMARK  status: ('A' for Active; 'I' for Inactive)
REMARK    1  A    between atoms: C_2  and  C_4 
REMARK    2  A    between atoms: C_4  and  N_5 
REMARK    3  A    between atoms: C_8  and  N_11 
REMARK       I    between atoms: N_11  and  C_12 
REMARK       I    between atoms: C_12  and  N_14 
REMARK    4  A    between atoms: N_14  and  C_15 
ROOT
HETATM    1  N   UNL     1     -41.907 -49.877  11.518  1.00  0.00    -0.338 N 
HETATM    2  C   UNL     1     -42.547 -48.660  11.396  1.00  0.00     0.321 C 
HETATM    3  O   UNL     1     -43.021 -48.060  12.353  1.00  0.00    -0.247 OA
HETATM    4  N   UNL     1     -42.646 -48.256  10.083  1.00  0.00    -0.305 N 
HETATM    5  H   UNL     1     -41.147 -50.032  10.869  1.00  0.00     0.164 HD
HETATM    6  H   UNL     1     -42.831 -49.004   9.429  1.00  0.00     0.171 HD
ENDROOT
BRANCH   1   7
HETATM    7  C   UNL     1     -41.819 -50.496  12.842  1.00  0.00     0.089 C 
HETATM    8  C   UNL     1     -40.626 -51.455  12.967  1.00  0.00     0.055 C 
HETATM    9  C   UNL     1     -40.947 -52.901  12.586  1.00  0.00     0.275 C 
HETATM   10  N   UNL     1     -42.186 -53.431  13.168  1.00  0.00     0.092 N 
HETATM   11  C   UNL     1     -43.314 -52.565  12.812  1.00  0.00     0.275 C 
HETATM   12  C   UNL     1     -43.152 -51.116  13.262  1.00  0.00     0.055 C 
BRANCH  10  13
HETATM   13  C   UNL     1     -42.108 -53.686  14.616  1.00  0.00     0.305 C 
BRANCH  13  14
HETATM   14  C   UNL     1     -42.844 -54.932  15.071  1.00  0.00    -0.065 C 
HETATM   15  C   UNL     1     -44.211 -55.170  14.490  1.00  0.00     0.044 C 
HETATM   16  C   UNL     1     -42.342 -55.760  16.005  1.00  0.00     0.015 C 
ENDBRANCH  13  14
ENDBRANCH  10  13
ENDBRANCH   1   7
BRANCH   4  17
HETATM   17  C   UNL     1     -43.183 -47.008   9.777  1.00  0.00     0.092 A 
HETATM   18  C   UNL     1     -44.454 -46.654   9.246  1.00  0.00     0.058 A 
HETATM   19  C   UNL     1     -45.622 -47.513   8.939  1.00  0.00     0.072 C 
HETATM   20  N   UNL     1     -44.558 -45.328   9.087  1.00  0.00    -0.263 N 
HETATM   21  O   UNL     1     -43.362 -44.798   9.530  1.00  0.00    -0.240 OA
ATOM     22  HN  UNL     1     -45.357 -44.815   8.716  1.00  0.00     0.194 HD
HETATM   23  C   UNL     1     -42.550 -45.797   9.965  1.00  0.00     0.101 A 
HETATM   24  C   UNL     1     -41.219 -45.389  10.445  1.00  0.00     0.081 C 
ENDBRANCH   4  17
TORSDOF 4
ENDMDL
MODEL 2
REMARK VINA RESULT:      -6.5      2.776      7.830
REMARK  4 active torsions:
REMARK  status: ('A' for Active; 'I' for Inactive)
REMARK    1  A    between atoms: C_2  and  C_4 
REMARK    2  A    between atoms: C_4  and  N_5 
REMARK    3  A    between atoms: C_8  and  N_11 
REMARK       I    between atoms: N_11  and  C_12 
REMARK       I    between atoms: C_12  and  N_14 
REMARK    4  A    between atoms: N_14  and  C_15 
ROOT
HETATM    1  N   UNL     1     -42.435 -50.052  12.236  1.00  0.00    -0.338 N 
HETATM    2  C   UNL     1     -43.374 -50.759  12.960  1.00  0.00     0.321 C 
HETATM    3  O   UNL     1     -43.974 -50.281  13.916  1.00  0.00    -0.247 OA
HETATM    4  N   UNL     1     -43.493 -52.060  12.525  1.00  0.00    -0.305 N 
HETATM    5  H   UNL     1     -42.391 -50.275  11.252  1.00  0.00     0.164 HD
HETATM    6  H   UNL     1     -42.619 -52.490  12.255  1.00  0.00     0.171 HD
ENDROOT
BRANCH   1   7
HETATM    7  C   UNL     1     -42.114 -48.684  12.648  1.00  0.00     0.089 C 
HETATM    8  C   UNL     1     -42.663 -47.631  11.673  1.00  0.00     0.055 C 
HETATM    9  C   UNL     1     -41.693 -47.257  10.550  1.00  0.00     0.275 C 
HETATM   10  N   UNL     1     -40.319 -46.986  10.988  1.00  0.00     0.092 N 
HETATM   11  C   UNL     1     -39.796 -48.140  11.728  1.00  0.00     0.275 C 
HETATM   12  C   UNL     1     -40.624 -48.522  12.950  1.00  0.00     0.055 C 
BRANCH  10  13
HETATM   13  C   UNL     1     -40.162 -45.725  11.731  1.00  0.00     0.305 C 
BRANCH  13  14
HETATM   14  C   UNL     1     -39.896 -44.515  10.856  1.00  0.00    -0.065 C 
HETATM   15  C   UNL     1     -40.508 -43.210  11.287  1.00  0.00     0.044 C 
HETATM   16  C   UNL     1     -39.207 -44.601   9.703  1.00  0.00     0.015 C 
ENDBRANCH  13  14
ENDBRANCH  10  13
ENDBRANCH   1   7
BRANCH   4  17
HETATM   17  C   UNL     1     -44.458 -52.896  13.080  1.00  0.00     0.092 A 
HETATM   18  C   UNL     1     -45.875 -52.869  12.974  1.00  0.00     0.058 A 
HETATM   19  C   UNL     1     -46.746 -51.983  12.164  1.00  0.00     0.072 C 
HETATM   20  N   UNL     1     -46.432 -53.856  13.687  1.00  0.00    -0.263 N 
HETATM   21  O   UNL     1     -45.383 -54.552  14.254  1.00  0.00    -0.240 OA
ATOM     22  HN  UNL     1     -47.427 -54.054  13.790  1.00  0.00     0.194 HD
HETATM   23  C   UNL     1     -44.203 -53.996  13.872  1.00  0.00     0.101 A 
HETATM   24  C   UNL     1     -42.985 -54.615  14.423  1.00  0.00     0.081 C 
ENDBRANCH   4  17
TORSDOF 4
ENDMDL
MODEL 3
REMARK VINA RESULT:      -6.2      1.818      2.594
REMARK  4 active torsions:
REMARK  status: ('A' for Active; 'I' for Inactive)
REMARK    1  A    between atoms: C_2  and  C_4 
REMARK    2  A    between atoms: C_4  and  N_5 
REMARK    3  A    between atoms: C_8  and  N_11 
REMARK       I    between atoms: N_11  and  C_12 
REMARK       I    between atoms: C_12  and  N_14 
REMARK    4  A    between atoms: N_14  and  C_15 
ROOT
HETATM    1  N   UNL     1     -41.987 -50.445  11.853  1.00  0.00    -0.338 N 
HETATM    2  C   UNL     1     -41.817 -49.140  11.433  1.00  0.00     0.321 C 
HETATM    3  O   UNL     1     -40.718 -48.603  11.364  1.00  0.00    -0.247 OA
HETATM    4  N   UNL     1     -43.018 -48.516  11.180  1.00  0.00    -0.305 N 
HETATM    5  H   UNL     1     -42.749 -50.944  11.414  1.00  0.00     0.164 HD
HETATM    6  H   UNL     1     -43.757 -48.758  11.826  1.00  0.00     0.171 HD
ENDROOT
BRANCH   1   7
HETATM    7  C   UNL     1     -40.810 -51.210  12.267  1.00  0.00     0.089 C 
HETATM    8  C   UNL     1     -40.934 -52.706  11.942  1.00  0.00     0.055 C 
HETATM    9  C   UNL     1     -41.561 -53.537  13.063  1.00  0.00     0.275 C 
HETATM   10  N   UNL     1     -41.019 -53.274  14.401  1.00  0.00     0.092 N 
HETATM   11  C   UNL     1     -41.142 -51.847  14.717  1.00  0.00     0.275 C 
HETATM   12  C   UNL     1     -40.439 -50.928  13.723  1.00  0.00     0.055 C 
BRANCH  10  13
HETATM   13  C   UNL     1     -39.651 -53.778  14.605  1.00  0.00     0.305 C 
BRANCH  13  14
HETATM   14  C   UNL     1     -39.550 -54.923  15.595  1.00  0.00    -0.065 C 
HETATM   15  C   UNL     1     -40.807 -55.314  16.322  1.00  0.00     0.044 C 
HETATM   16  C   UNL     1     -38.381 -55.527  15.876  1.00  0.00     0.015 C 
ENDBRANCH  13  14
ENDBRANCH  10  13
ENDBRANCH   1   7
BRANCH   4  17
HETATM   17  C   UNL     1     -43.036 -47.224  10.661  1.00  0.00     0.092 A 
HETATM   18  C   UNL     1     -42.821 -45.970  11.296  1.00  0.00     0.058 A 
HETATM   19  C   UNL     1     -42.429 -45.674  12.695  1.00  0.00     0.072 C 
HETATM   20  N   UNL     1     -42.948 -44.960  10.425  1.00  0.00    -0.263 N 
HETATM   21  O   UNL     1     -43.229 -45.544   9.206  1.00  0.00    -0.240 OA
ATOM     22  HN  UNL     1     -42.855 -43.964  10.622  1.00  0.00     0.194 HD
HETATM   23  C   UNL     1     -43.256 -46.896   9.340  1.00  0.00     0.101 A 
HETATM   24  C   UNL     1     -43.574 -47.663   8.123  1.00  0.00     0.081 C 
ENDBRANCH   4  17
TORSDOF 4
ENDMDL
MODEL 4
REMARK VINA RESULT:      -6.1      2.609      8.217
REMARK  4 active torsions:
REMARK  status: ('A' for Active; 'I' for Inactive)
REMARK    1  A    between atoms: C_2  and  C_4 
REMARK    2  A    between atoms: C_4  and  N_5 
REMARK    3  A    between atoms: C_8  and  N_11 
REMARK       I    between atoms: N_11  and  C_12 
REMARK       I    between atoms: C_12  and  N_14 
REMARK    4  A    between atoms: N_14  and  C_15 
ROOT
HETATM    1  N   UNL     1     -42.633 -50.424  12.088  1.00  0.00    -0.338 N 
HETATM    2  C   UNL     1     -42.825 -51.317  13.123  1.00  0.00     0.321 C 
HETATM    3  O   UNL     1     -42.992 -50.962  14.284  1.00  0.00    -0.247 OA
HETATM    4  N   UNL     1     -42.733 -52.625  12.703  1.00  0.00    -0.305 N 
HETATM    5  H   UNL     1     -43.011 -50.709  11.196  1.00  0.00     0.164 HD
HETATM    6  H   UNL     1     -42.020 -52.789  12.006  1.00  0.00     0.171 HD
ENDROOT
BRANCH   1   7
HETATM    7  C   UNL     1     -42.592 -48.992  12.393  1.00  0.00     0.089 C 
HETATM    8  C   UNL     1     -43.298 -48.142  11.327  1.00  0.00     0.055 C 
HETATM    9  C   UNL     1     -42.380 -47.675  10.195  1.00  0.00     0.275 C 
HETATM   10  N   UNL     1     -41.098 -47.112  10.635  1.00  0.00     0.092 N 
HETATM   11  C   UNL     1     -40.390 -48.084  11.475  1.00  0.00     0.275 C 
HETATM   12  C   UNL     1     -41.171 -48.525  12.708  1.00  0.00     0.055 C 
BRANCH  10  13
HETATM   13  C   UNL     1     -41.209 -45.792  11.275  1.00  0.00     0.305 C 
BRANCH  13  14
HETATM   14  C   UNL     1     -39.947 -44.953  11.198  1.00  0.00    -0.065 C 
HETATM   15  C   UNL     1     -39.326 -44.773   9.840  1.00  0.00     0.044 C 
HETATM   16  C   UNL     1     -39.355 -44.446  12.295  1.00  0.00     0.015 C 
ENDBRANCH  13  14
ENDBRANCH  10  13
ENDBRANCH   1   7
BRANCH   4  17
HETATM   17  C   UNL     1     -42.989 -53.664  13.595  1.00  0.00     0.092 A 
HETATM   18  C   UNL     1     -42.104 -54.415  14.416  1.00  0.00     0.058 A 
HETATM   19  C   UNL     1     -40.645 -54.257  14.626  1.00  0.00     0.072 C 
HETATM   20  N   UNL     1     -42.768 -55.343  15.118  1.00  0.00    -0.263 N 
HETATM   21  O   UNL     1     -44.098 -55.195  14.779  1.00  0.00    -0.240 OA
ATOM     22  HN  UNL     1     -42.373 -56.019  15.771  1.00  0.00     0.194 HD
HETATM   23  C   UNL     1     -44.235 -54.176  13.889  1.00  0.00     0.101 A 
HETATM   24  C   UNL     1     -45.601 -53.913  13.408  1.00  0.00     0.081 C 
ENDBRANCH   4  17
TORSDOF 4
ENDMDL
MODEL 5
REMARK VINA RESULT:      -6.1      1.425      2.497
REMARK  4 active torsions:
REMARK  status: ('A' for Active; 'I' for Inactive)
REMARK    1  A    between atoms: C_2  and  C_4 
REMARK    2  A    between atoms: C_4  and  N_5 
REMARK    3  A    between atoms: C_8  and  N_11 
REMARK       I    between atoms: N_11  and  C_12 
REMARK       I    between atoms: C_12  and  N_14 
REMARK    4  A    between atoms: N_14  and  C_15 
ROOT
HETATM    1  N   UNL     1     -42.543 -50.781  12.208  1.00  0.00    -0.338 N 
HETATM    2  C   UNL     1     -42.591 -49.418  11.991  1.00  0.00     0.321 C 
HETATM    3  O   UNL     1     -43.090 -48.635  12.791  1.00  0.00    -0.247 OA
HETATM    4  N   UNL     1     -42.084 -49.071  10.758  1.00  0.00    -0.305 N 
HETATM    5  H   UNL     1     -41.732 -51.250  11.831  1.00  0.00     0.164 HD
HETATM    6  H   UNL     1     -42.312 -49.720  10.017  1.00  0.00     0.171 HD
ENDROOT
BRANCH   1   7
HETATM    7  C   UNL     1     -43.145 -51.320  13.430  1.00  0.00     0.089 C 
HETATM    8  C   UNL     1     -42.094 -51.796  14.443  1.00  0.00     0.055 C 
HETATM    9  C   UNL     1     -41.698 -53.265  14.286  1.00  0.00     0.275 C 
HETATM   10  N   UNL     1     -42.824 -54.194  14.133  1.00  0.00     0.092 N 
HETATM   11  C   UNL     1     -43.657 -53.783  12.998  1.00  0.00     0.275 C 
HETATM   12  C   UNL     1     -44.213 -52.367  13.115  1.00  0.00     0.055 C 
BRANCH  10  13
HETATM   13  C   UNL     1     -43.608 -54.395  15.362  1.00  0.00     0.305 C 
BRANCH  13  14
HETATM   14  C   UNL     1     -42.791 -54.846  16.557  1.00  0.00    -0.065 C 
HETATM   15  C   UNL     1     -42.123 -56.191  16.462  1.00  0.00     0.044 C 
HETATM   16  C   UNL     1     -42.715 -54.122  17.689  1.00  0.00     0.015 C 
ENDBRANCH  13  14
ENDBRANCH  10  13
ENDBRANCH   1   7
BRANCH   4  17
HETATM   17  C   UNL     1     -41.970 -47.729  10.404  1.00  0.00     0.092 A 
HETATM   18  C   UNL     1     -40.984 -46.764  10.748  1.00  0.00     0.058 A 
HETATM   19  C   UNL     1     -39.731 -46.927  11.524  1.00  0.00     0.072 C 
HETATM   20  N   UNL     1     -41.264 -45.573  10.203  1.00  0.00    -0.263 N 
HETATM   21  O   UNL     1     -42.427 -45.751   9.481  1.00  0.00    -0.240 OA
ATOM     22  HN  UNL     1     -40.728 -44.712  10.300  1.00  0.00     0.194 HD
HETATM   23  C   UNL     1     -42.836 -47.043   9.579  1.00  0.00     0.101 A 
HETATM   24  C   UNL     1     -44.087 -47.384   8.880  1.00  0.00     0.081 C 
ENDBRANCH   4  17
TORSDOF 4
ENDMDL
MODEL 6
REMARK VINA RESULT:      -5.5      6.346      8.801
REMARK  4 active torsions:
REMARK  status: ('A' for Active; 'I' for Inactive)
REMARK    1  A    between atoms: C_2  and  C_4 
REMARK    2  A    between atoms: C_4  and  N_5 
REMARK    3  A    between atoms: C_8  and  N_11 
REMARK       I    between atoms: N_11  and  C_12 
REMARK       I    between atoms: C_12  and  N_14 
REMARK    4  A    between atoms: N_14  and  C_15 
ROOT
HETATM    1  N   UNL     1     -38.095 -50.022  15.659  1.00  0.00    -0.338 N 
HETATM    2  C   UNL     1     -38.417 -50.626  14.459  1.00  0.00     0.321 C 
HETATM    3  O   UNL     1     -37.649 -50.656  13.505  1.00  0.00    -0.247 OA
HETATM    4  N   UNL     1     -39.705 -51.113  14.452  1.00  0.00    -0.305 N 
HETATM    5  H   UNL     1     -38.490 -50.459  16.481  1.00  0.00     0.164 HD
HETATM    6  H   UNL     1     -40.375 -50.525  14.929  1.00  0.00     0.171 HD
ENDROOT
BRANCH   1   7
HETATM    7  C   UNL     1     -36.797 -49.359  15.787  1.00  0.00     0.089 C 
HETATM    8  C   UNL     1     -35.964 -49.912  16.953  1.00  0.00     0.055 C 
HETATM    9  C   UNL     1     -36.189 -49.183  18.279  1.00  0.00     0.275 C 
HETATM   10  N   UNL     1     -36.166 -47.718  18.189  1.00  0.00     0.092 N 
HETATM   11  C   UNL     1     -37.153 -47.264  17.203  1.00  0.00     0.275 C 
HETATM   12  C   UNL     1     -36.943 -47.837  15.805  1.00  0.00     0.055 C 
BRANCH  10  13
HETATM   13  C   UNL     1     -34.829 -47.152  17.947  1.00  0.00     0.305 C 
BRANCH  13  14
HETATM   14  C   UNL     1     -34.298 -46.298  19.082  1.00  0.00    -0.065 C 
HETATM   15  C   UNL     1     -35.049 -45.032  19.395  1.00  0.00     0.044 C 
HETATM   16  C   UNL     1     -33.167 -46.605  19.743  1.00  0.00     0.015 C 
ENDBRANCH  13  14
ENDBRANCH  10  13
ENDBRANCH   1   7
BRANCH   4  17
HETATM   17  C   UNL     1     -40.171 -51.834  13.355  1.00  0.00     0.092 A 
HETATM   18  C   UNL     1     -40.749 -51.388  12.135  1.00  0.00     0.058 A 
HETATM   19  C   UNL     1     -40.949 -50.008  11.632  1.00  0.00     0.072 C 
HETATM   20  N   UNL     1     -41.077 -52.423  11.350  1.00  0.00    -0.263 N 
HETATM   21  O   UNL     1     -40.701 -53.557  12.042  1.00  0.00    -0.240 OA
ATOM     22  HN  UNL     1     -41.515 -52.382  10.430  1.00  0.00     0.194 HD
HETATM   23  C   UNL     1     -40.137 -53.206  13.228  1.00  0.00     0.101 A 
HETATM   24  C   UNL     1     -39.708 -54.316  14.096  1.00  0.00     0.081 C 
ENDBRANCH   4  17
TORSDOF 4
ENDMDL
MODEL 7
REMARK VINA RESULT:      -5.4     13.404     15.224
REMARK  4 active torsions:
REMARK  status: ('A' for Active; 'I' for Inactive)
REMARK    1  A    between atoms: C_2  and  C_4 
REMARK    2  A    between atoms: C_4  and  N_5 
REMARK    3  A    between atoms: C_8  and  N_11 
REMARK       I    between atoms: N_11  and  C_12 
REMARK       I    between atoms: C_12  and  N_14 
REMARK    4  A    between atoms: N_14  and  C_15 
ROOT
HETATM    1  N   UNL     1     -49.963 -50.791  -0.938  1.00  0.00    -0.338 N 
HETATM    2  C   UNL     1     -50.353 -50.057   0.164  1.00  0.00     0.321 C 
HETATM    3  O   UNL     1     -50.281 -50.488   1.309  1.00  0.00    -0.247 OA
HETATM    4  N   UNL     1     -50.887 -48.837  -0.187  1.00  0.00    -0.305 N 
HETATM    5  H   UNL     1     -49.571 -50.253  -1.698  1.00  0.00     0.164 HD
HETATM    6  H   UNL     1     -51.458 -48.857  -1.021  1.00  0.00     0.171 HD
ENDROOT
BRANCH   1   7
HETATM    7  C   UNL     1     -49.476 -52.157  -0.737  1.00  0.00     0.089 C 
HETATM    8  C   UNL     1     -48.265 -52.486  -1.622  1.00  0.00     0.055 C 
HETATM    9  C   UNL     1     -48.632 -53.082  -2.983  1.00  0.00     0.275 C 
HETATM   10  N   UNL     1     -49.630 -54.157  -2.935  1.00  0.00     0.092 N 
HETATM   11  C   UNL     1     -50.843 -53.682  -2.262  1.00  0.00     0.275 C 
HETATM   12  C   UNL     1     -50.608 -53.179  -0.841  1.00  0.00     0.055 C 
BRANCH  10  13
HETATM   13  C   UNL     1     -49.128 -55.418  -2.364  1.00  0.00     0.305 C 
BRANCH  13  14
HETATM   14  C   UNL     1     -49.392 -56.640  -3.223  1.00  0.00    -0.065 C 
HETATM   15  C   UNL     1     -50.824 -56.928  -3.583  1.00  0.00     0.044 C 
HETATM   16  C   UNL     1     -48.410 -57.481  -3.595  1.00  0.00     0.015 C 
ENDBRANCH  13  14
ENDBRANCH  10  13
ENDBRANCH   1   7
BRANCH   4  17
HETATM   17  C   UNL     1     -51.251 -47.925   0.801  1.00  0.00     0.092 A 
HETATM   18  C   UNL     1     -52.535 -47.545   1.279  1.00  0.00     0.058 A 
HETATM   19  C   UNL     1     -53.873 -48.074   0.920  1.00  0.00     0.072 C 
HETATM   20  N   UNL     1     -52.437 -46.612   2.236  1.00  0.00    -0.263 N 
HETATM   21  O   UNL     1     -51.086 -46.386   2.407  1.00  0.00    -0.240 OA
ATOM     22  HN  UNL     1     -53.203 -46.163   2.736  1.00  0.00     0.194 HD
HETATM   23  C   UNL     1     -50.376 -47.187   1.570  1.00  0.00     0.101 A 
HETATM   24  C   UNL     1     -48.911 -47.040   1.616  1.00  0.00     0.081 C 
ENDBRANCH   4  17
TORSDOF 4
ENDMDL
MODEL 8
REMARK VINA RESULT:      -5.3      4.632      7.305
REMARK  4 active torsions:
REMARK  status: ('A' for Active; 'I' for Inactive)
REMARK    1  A    between atoms: C_2  and  C_4 
REMARK    2  A    between atoms: C_4  and  N_5 
REMARK    3  A    between atoms: C_8  and  N_11 
REMARK       I    between atoms: N_11  and  C_12 
REMARK       I    between atoms: C_12  and  N_14 
REMARK    4  A    between atoms: N_14  and  C_15 
ROOT
HETATM    1  N   UNL     1     -39.683 -54.300  15.810  1.00  0.00    -0.338 N 
HETATM    2  C   UNL     1     -39.558 -53.756  14.547  1.00  0.00     0.321 C 
HETATM    3  O   UNL     1     -39.081 -54.373  13.602  1.00  0.00    -0.247 OA
HETATM    4  N   UNL     1     -39.961 -52.439  14.507  1.00  0.00    -0.305 N 
HETATM    5  H   UNL     1     -40.487 -53.988  16.336  1.00  0.00     0.164 HD
HETATM    6  H   UNL     1     -39.713 -51.903  15.326  1.00  0.00     0.171 HD
ENDROOT
BRANCH   1   7
HETATM    7  C   UNL     1     -39.193 -55.660  16.041  1.00  0.00     0.089 C 
HETATM    8  C   UNL     1     -40.195 -56.522  16.823  1.00  0.00     0.055 C 
HETATM    9  C   UNL     1     -40.014 -56.465  18.341  1.00  0.00     0.275 C 
HETATM   10  N   UNL     1     -38.629 -56.616  18.802  1.00  0.00     0.092 N 
HETATM   11  C   UNL     1     -37.778 -55.605  18.165  1.00  0.00     0.275 C 
HETATM   12  C   UNL     1     -37.787 -55.657  16.641  1.00  0.00     0.055 C 
BRANCH  10  13
HETATM   13  C   UNL     1     -38.091 -57.978  18.652  1.00  0.00     0.305 C 
BRANCH  13  14
HETATM   14  C   UNL     1     -36.932 -58.296  19.577  1.00  0.00    -0.065 C 
HETATM   15  C   UNL     1     -35.718 -58.934  18.960  1.00  0.00     0.044 C 
HETATM   16  C   UNL     1     -36.998 -58.092  20.906  1.00  0.00     0.015 C 
ENDBRANCH  13  14
ENDBRANCH  10  13
ENDBRANCH   1   7
BRANCH   4  17
HETATM   17  C   UNL     1     -39.990 -51.756  13.294  1.00  0.00     0.092 A 
HETATM   18  C   UNL     1     -40.978 -51.728  12.272  1.00  0.00     0.058 A 
HETATM   19  C   UNL     1     -42.319 -52.358  12.236  1.00  0.00     0.072 C 
HETATM   20  N   UNL     1     -40.597 -50.946  11.253  1.00  0.00    -0.263 N 
HETATM   21  O   UNL     1     -39.362 -50.439  11.606  1.00  0.00    -0.240 OA
ATOM     22  HN  UNL     1     -41.113 -50.762  10.394  1.00  0.00     0.194 HD
HETATM   23  C   UNL     1     -39.009 -50.901  12.835  1.00  0.00     0.101 A 
HETATM   24  C   UNL     1     -37.695 -50.468  13.339  1.00  0.00     0.081 C 
ENDBRANCH   4  17
TORSDOF 4
ENDMDL
MODEL 9
REMARK VINA RESULT:      -5.2     15.225     18.050
REMARK  4 active torsions:
REMARK  status: ('A' for Active; 'I' for Inactive)
REMARK    1  A    between atoms: C_2  and  C_4 
REMARK    2  A    between atoms: C_4  and  N_5 
REMARK    3  A    between atoms: C_8  and  N_11 
REMARK       I    between atoms: N_11  and  C_12 
REMARK       I    between atoms: C_12  and  N_14 
REMARK    4  A    between atoms: N_14  and  C_15 
ROOT
HETATM    1  N   UNL     1     -49.498 -54.094  -3.088  1.00  0.00    -0.338 N 
HETATM    2  C   UNL     1     -49.230 -55.422  -3.357  1.00  0.00     0.321 C 
HETATM    3  O   UNL     1     -49.056 -56.256  -2.476  1.00  0.00    -0.247 OA
HETATM    4  N   UNL     1     -49.113 -55.664  -4.707  1.00  0.00    -0.305 N 
HETATM    5  H   UNL     1     -50.106 -53.634  -3.751  1.00  0.00     0.164 HD
HETATM    6  H   UNL     1     -48.650 -54.930  -5.224  1.00  0.00     0.171 HD
ENDROOT
BRANCH   1   7
HETATM    7  C   UNL     1     -49.544 -53.655  -1.692  1.00  0.00     0.089 C 
HETATM    8  C   UNL     1     -50.970 -53.338  -1.219  1.00  0.00     0.055 C 
HETATM    9  C   UNL     1     -51.388 -51.882  -1.433  1.00  0.00     0.275 C 
HETATM   10  N   UNL     1     -50.397 -50.888  -1.004  1.00  0.00     0.092 N 
HETATM   11  C   UNL     1     -49.118 -51.137  -1.676  1.00  0.00     0.275 C 
HETATM   12  C   UNL     1     -48.545 -52.529  -1.425  1.00  0.00     0.055 C 
BRANCH  10  13
HETATM   13  C   UNL     1     -50.252 -50.775   0.456  1.00  0.00     0.305 C 
BRANCH  13  14
HETATM   14  C   UNL     1     -50.345 -49.357   0.985  1.00  0.00    -0.065 C 
HETATM   15  C   UNL     1     -51.663 -48.650   0.821  1.00  0.00     0.044 C 
HETATM   16  C   UNL     1     -49.287 -48.718   1.515  1.00  0.00     0.015 C 
ENDBRANCH  13  14
ENDBRANCH  10  13
ENDBRANCH   1   7
BRANCH   4  17
HETATM   17  C   UNL     1     -48.933 -56.966  -5.169  1.00  0.00     0.092 A 
HETATM   18  C   UNL     1     -49.876 -58.005  -5.394  1.00  0.00     0.058 A 
HETATM   19  C   UNL     1     -51.354 -57.981  -5.283  1.00  0.00     0.072 C 
HETATM   20  N   UNL     1     -49.272 -59.119  -5.830  1.00  0.00    -0.263 N 
HETATM   21  O   UNL     1     -47.928 -58.814  -5.911  1.00  0.00    -0.240 OA
ATOM     22  HN  UNL     1     -49.714 -60.009  -6.056  1.00  0.00     0.194 HD
HETATM   23  C   UNL     1     -47.727 -57.521  -5.542  1.00  0.00     0.101 A 
HETATM   24  C   UNL     1     -46.330 -57.054  -5.550  1.00  0.00     0.081 C 
ENDBRANCH   4  17
TORSDOF 4
ENDMDL
