MODEL 1
REMARK VINA RESULT:      -6.2      0.000      0.000
REMARK  3 active torsions:
REMARK  status: ('A' for Active; 'I' for Inactive)
REMARK    1  A    between atoms: C_7  and  N_8 
REMARK       I    between atoms: N_8  and  C_9 
REMARK       I    between atoms: C_9  and  N_11 
REMARK    2  A    between atoms: N_11  and  C_12 
REMARK    3  A    between atoms: C_15  and  O_16 
ROOT
HETATM    1  N   UNL     1     -41.366 -48.828  10.412  1.00  0.00    -0.307 N 
HETATM    2  C   UNL     1     -41.486 -49.670  11.498  1.00  0.00     0.321 C 
HETATM    3  O   UNL     1     -42.286 -49.552  12.417  1.00  0.00    -0.247 OA
HETATM    4  N   UNL     1     -40.594 -50.720  11.448  1.00  0.00    -0.338 N 
HETATM    5  H   UNL     1     -40.805 -49.156   9.638  1.00  0.00     0.170 HD
HETATM    6  H   UNL     1     -39.722 -50.547  10.967  1.00  0.00     0.164 HD
ENDROOT
BRANCH   1   7
HETATM    7  C   UNL     1     -42.132 -47.652  10.177  1.00  0.00     0.061 A 
HETATM    8  C   UNL     1     -43.225 -47.646   9.309  1.00  0.00     0.048 A 
HETATM    9  C   UNL     1     -43.918 -46.468   9.100  1.00  0.00     0.090 A 
HETATM   10  N   UNL     1     -43.606 -45.304   9.698  1.00  0.00    -0.368 N 
HETATM   11  C   UNL     1     -42.551 -45.302  10.554  1.00  0.00     0.029 A 
ATOM     12  HN  UNL     1     -44.140 -44.455   9.514  1.00  0.00     0.165 HD
HETATM   13  C   UNL     1     -42.247 -43.968  11.170  1.00  0.00     0.070 C 
HETATM   14  C   UNL     1     -41.798 -46.453  10.829  1.00  0.00     0.083 A 
HETATM   15 CL   UNL     1     -40.473 -46.408  11.945  1.00  0.00    -0.080 Cl
ENDBRANCH   1   7
BRANCH   4  16
HETATM   16  C   UNL     1     -40.561 -51.671  12.557  1.00  0.00     0.086 C 
HETATM   17  C   UNL     1     -40.937 -53.080  12.089  1.00  0.00     0.028 C 
HETATM   18  C   UNL     1     -40.855 -54.084  13.239  1.00  0.00     0.034 C 
HETATM   19  C   UNL     1     -39.478 -54.064  13.897  1.00  0.00     0.118 C 
HETATM   20  C   UNL     1     -39.110 -52.662  14.380  1.00  0.00     0.034 C 
HETATM   21  C   UNL     1     -39.190 -51.645  13.247  1.00  0.00     0.028 C 
BRANCH  19  22
HETATM   22  O   UNL     1     -39.455 -54.971  14.992  1.00  0.00    -0.396 OA
HETATM   23  H   UNL     1     -39.331 -54.461  15.810  1.00  0.00     0.210 HD
ENDBRANCH  19  22
ENDBRANCH   4  16
TORSDOF 3
ENDMDL
MODEL 2
REMARK VINA RESULT:      -6.1      3.241      7.537
REMARK  3 active torsions:
REMARK  status: ('A' for Active; 'I' for Inactive)
REMARK    1  A    between atoms: C_7  and  N_8 
REMARK       I    between atoms: N_8  and  C_9 
REMARK       I    between atoms: C_9  and  N_11 
REMARK    2  A    between atoms: N_11  and  C_12 
REMARK    3  A    between atoms: C_15  and  O_16 
ROOT
HETATM    1  N   UNL     1     -42.307 -51.962  12.019  1.00  0.00    -0.307 N 
HETATM    2  C   UNL     1     -42.365 -50.604  12.249  1.00  0.00     0.321 C 
HETATM    3  O   UNL     1     -43.001 -50.049  13.136  1.00  0.00    -0.247 OA
HETATM    4  N   UNL     1     -41.590 -49.888  11.362  1.00  0.00    -0.338 N 
HETATM    5  H   UNL     1     -41.591 -52.289  11.385  1.00  0.00     0.170 HD
HETATM    6  H   UNL     1     -41.463 -50.296  10.446  1.00  0.00     0.164 HD
ENDROOT
BRANCH   1   7
HETATM    7  C   UNL     1     -43.001 -52.966  12.752  1.00  0.00     0.061 A 
HETATM    8  C   UNL     1     -44.319 -53.316  12.456  1.00  0.00     0.048 A 
HETATM    9  C   UNL     1     -44.951 -54.283  13.216  1.00  0.00     0.090 A 
HETATM   10  N   UNL     1     -44.362 -54.927  14.240  1.00  0.00    -0.368 N 
HETATM   11  C   UNL     1     -43.075 -54.603  14.528  1.00  0.00     0.029 A 
ATOM     12  HN  UNL     1     -44.864 -55.632  14.779  1.00  0.00     0.165 HD
HETATM   13  C   UNL     1     -42.488 -55.345  15.693  1.00  0.00     0.070 C 
HETATM   14  C   UNL     1     -42.357 -53.640  13.804  1.00  0.00     0.083 A 
HETATM   15 CL   UNL     1     -40.709 -53.274  14.194  1.00  0.00    -0.080 Cl
ENDBRANCH   1   7
BRANCH   4  16
HETATM   16  C   UNL     1     -41.589 -48.430  11.442  1.00  0.00     0.086 C 
HETATM   17  C   UNL     1     -40.162 -47.881  11.541  1.00  0.00     0.028 C 
HETATM   18  C   UNL     1     -40.158 -46.354  11.577  1.00  0.00     0.034 C 
HETATM   19  C   UNL     1     -40.899 -45.768  10.377  1.00  0.00     0.118 C 
HETATM   20  C   UNL     1     -42.328 -46.300  10.289  1.00  0.00     0.034 C 
HETATM   21  C   UNL     1     -42.352 -47.824  10.256  1.00  0.00     0.028 C 
BRANCH  19  22
HETATM   22  O   UNL     1     -40.919 -44.349  10.471  1.00  0.00    -0.396 OA
HETATM   23  H   UNL     1     -40.114 -44.003  10.050  1.00  0.00     0.210 HD
ENDBRANCH  19  22
ENDBRANCH   4  16
TORSDOF 3
ENDMDL
MODEL 3
REMARK VINA RESULT:      -6.0      3.327      7.704
REMARK  3 active torsions:
REMARK  status: ('A' for Active; 'I' for Inactive)
REMARK    1  A    between atoms: C_7  and  N_8 
REMARK       I    between atoms: N_8  and  C_9 
REMARK       I    between atoms: C_9  and  N_11 
REMARK    2  A    between atoms: N_11  and  C_12 
REMARK    3  A    between atoms: C_15  and  O_16 
ROOT
HETATM    1  N   UNL     1     -42.353 -51.908  12.071  1.00  0.00    -0.307 N 
HETATM    2  C   UNL     1     -42.258 -50.568  12.380  1.00  0.00     0.321 C 
HETATM    3  O   UNL     1     -42.419 -50.071  13.487  1.00  0.00    -0.247 OA
HETATM    4  N   UNL     1     -41.931 -49.799  11.284  1.00  0.00    -0.338 N 
HETATM    5  H   UNL     1     -42.002 -52.196  11.167  1.00  0.00     0.170 HD
HETATM    6  H   UNL     1     -42.235 -50.145  10.385  1.00  0.00     0.164 HD
ENDROOT
BRANCH   1   7
HETATM    7  C   UNL     1     -42.685 -52.955  12.976  1.00  0.00     0.061 A 
HETATM    8  C   UNL     1     -41.721 -53.576  13.770  1.00  0.00     0.048 A 
HETATM    9  C   UNL     1     -42.097 -54.604  14.615  1.00  0.00     0.090 A 
HETATM   10  N   UNL     1     -43.361 -55.048  14.729  1.00  0.00    -0.368 N 
HETATM   11  C   UNL     1     -44.310 -54.442  13.971  1.00  0.00     0.029 A 
ATOM     12  HN  UNL     1     -43.597 -55.812  15.363  1.00  0.00     0.165 HD
HETATM   13  C   UNL     1     -45.694 -55.001  14.134  1.00  0.00     0.070 C 
HETATM   14  C   UNL     1     -44.017 -53.388  13.093  1.00  0.00     0.083 A 
HETATM   15 CL   UNL     1     -45.265 -52.630  12.159  1.00  0.00    -0.080 Cl
ENDBRANCH   1   7
BRANCH   4  16
HETATM   16  C   UNL     1     -41.845 -48.349  11.440  1.00  0.00     0.086 C 
HETATM   17  C   UNL     1     -40.390 -47.871  11.394  1.00  0.00     0.028 C 
HETATM   18  C   UNL     1     -40.304 -46.350  11.508  1.00  0.00     0.034 C 
HETATM   19  C   UNL     1     -41.151 -45.663  10.438  1.00  0.00     0.118 C 
HETATM   20  C   UNL     1     -42.606 -46.125  10.496  1.00  0.00     0.034 C 
HETATM   21  C   UNL     1     -42.712 -47.642  10.388  1.00  0.00     0.028 C 
BRANCH  19  22
HETATM   22  O   UNL     1     -41.087 -44.253  10.607  1.00  0.00    -0.396 OA
HETATM   23  H   UNL     1     -41.390 -43.832   9.785  1.00  0.00     0.210 HD
ENDBRANCH  19  22
ENDBRANCH   4  16
TORSDOF 3
ENDMDL
MODEL 4
REMARK VINA RESULT:      -5.8      3.468      4.293
REMARK  3 active torsions:
REMARK  status: ('A' for Active; 'I' for Inactive)
REMARK    1  A    between atoms: C_7  and  N_8 
REMARK       I    between atoms: N_8  and  C_9 
REMARK       I    between atoms: C_9  and  N_11 
REMARK    2  A    between atoms: N_11  and  C_12 
REMARK    3  A    between atoms: C_15  and  O_16 
ROOT
HETATM    1  N   UNL     1     -41.740 -50.070  11.723  1.00  0.00    -0.307 N 
HETATM    2  C   UNL     1     -42.567 -50.612  12.684  1.00  0.00     0.321 C 
HETATM    3  O   UNL     1     -42.836 -50.111  13.769  1.00  0.00    -0.247 OA
HETATM    4  N   UNL     1     -43.109 -51.817  12.291  1.00  0.00    -0.338 N 
HETATM    5  H   UNL     1     -41.769 -50.491  10.804  1.00  0.00     0.170 HD
HETATM    6  H   UNL     1     -42.556 -52.370  11.652  1.00  0.00     0.164 HD
ENDROOT
BRANCH   1   7
HETATM    7  C   UNL     1     -41.024 -48.845  11.829  1.00  0.00     0.061 A 
HETATM    8  C   UNL     1     -39.978 -48.678  12.737  1.00  0.00     0.048 A 
HETATM    9  C   UNL     1     -39.332 -47.458  12.812  1.00  0.00     0.090 A 
HETATM   10  N   UNL     1     -39.648 -46.400  12.044  1.00  0.00    -0.368 N 
HETATM   11  C   UNL     1     -40.656 -46.555  11.147  1.00  0.00     0.029 A 
ATOM     12  HN  UNL     1     -39.149 -45.515  12.133  1.00  0.00     0.165 HD
HETATM   13  C   UNL     1     -40.969 -45.330  10.338  1.00  0.00     0.070 C 
HETATM   14  C   UNL     1     -41.360 -47.760  11.001  1.00  0.00     0.083 A 
HETATM   15 CL   UNL     1     -42.626 -47.918   9.828  1.00  0.00    -0.080 Cl
ENDBRANCH   1   7
BRANCH   4  16
HETATM   16  C   UNL     1     -43.966 -52.543  13.225  1.00  0.00     0.086 C 
HETATM   17  C   UNL     1     -45.447 -52.300  12.921  1.00  0.00     0.028 C 
HETATM   18  C   UNL     1     -46.343 -53.098  13.867  1.00  0.00     0.034 C 
HETATM   19  C   UNL     1     -46.003 -54.587  13.832  1.00  0.00     0.118 C 
HETATM   20  C   UNL     1     -44.530 -54.831  14.153  1.00  0.00     0.034 C 
HETATM   21  C   UNL     1     -43.619 -54.039  13.222  1.00  0.00     0.028 C 
BRANCH  19  22
HETATM   22  O   UNL     1     -46.821 -55.289  14.760  1.00  0.00    -0.396 OA
HETATM   23  H   UNL     1     -46.408 -56.150  14.941  1.00  0.00     0.210 HD
ENDBRANCH  19  22
ENDBRANCH   4  16
TORSDOF 3
ENDMDL
MODEL 5
REMARK VINA RESULT:      -5.8      1.999      2.251
REMARK  3 active torsions:
REMARK  status: ('A' for Active; 'I' for Inactive)
REMARK    1  A    between atoms: C_7  and  N_8 
REMARK       I    between atoms: N_8  and  C_9 
REMARK       I    between atoms: C_9  and  N_11 
REMARK    2  A    between atoms: N_11  and  C_12 
REMARK    3  A    between atoms: C_15  and  O_16 
ROOT
HETATM    1  N   UNL     1     -41.536 -49.690  11.000  1.00  0.00    -0.307 N 
HETATM    2  C   UNL     1     -42.128 -50.299  12.085  1.00  0.00     0.321 C 
HETATM    3  O   UNL     1     -42.844 -49.755  12.916  1.00  0.00    -0.247 OA
HETATM    4  N   UNL     1     -41.848 -51.648  12.147  1.00  0.00    -0.338 N 
HETATM    5  H   UNL     1     -41.141 -50.296  10.293  1.00  0.00     0.170 HD
HETATM    6  H   UNL     1     -40.966 -51.942  11.753  1.00  0.00     0.164 HD
ENDROOT
BRANCH   1   7
HETATM    7  C   UNL     1     -41.622 -48.310  10.664  1.00  0.00     0.061 A 
HETATM    8  C   UNL     1     -42.671 -47.803   9.895  1.00  0.00     0.048 A 
HETATM    9  C   UNL     1     -42.692 -46.457   9.580  1.00  0.00     0.090 A 
HETATM   10  N   UNL     1     -41.751 -45.583   9.982  1.00  0.00    -0.368 N 
HETATM   11  C   UNL     1     -40.733 -46.063  10.742  1.00  0.00     0.029 A 
ATOM     12  HN  UNL     1     -41.801 -44.598   9.725  1.00  0.00     0.165 HD
HETATM   13  C   UNL     1     -39.711 -45.039  11.138  1.00  0.00     0.070 C 
HETATM   14  C   UNL     1     -40.638 -47.413  11.114  1.00  0.00     0.083 A 
HETATM   15 CL   UNL     1     -39.332 -47.977  12.103  1.00  0.00    -0.080 Cl
ENDBRANCH   1   7
BRANCH   4  16
HETATM   16  C   UNL     1     -42.362 -52.424  13.273  1.00  0.00     0.086 C 
HETATM   17  C   UNL     1     -43.445 -53.408  12.819  1.00  0.00     0.028 C 
HETATM   18  C   UNL     1     -43.947 -54.254  13.988  1.00  0.00     0.034 C 
HETATM   19  C   UNL     1     -42.797 -54.975  14.688  1.00  0.00     0.118 C 
HETATM   20  C   UNL     1     -41.726 -53.992  15.157  1.00  0.00     0.034 C 
HETATM   21  C   UNL     1     -41.214 -53.135  14.004  1.00  0.00     0.028 C 
BRANCH  19  22
HETATM   22  O   UNL     1     -43.295 -55.710  15.799  1.00  0.00    -0.396 OA
HETATM   23  H   UNL     1     -44.243 -55.870  15.660  1.00  0.00     0.210 HD
ENDBRANCH  19  22
ENDBRANCH   4  16
TORSDOF 3
ENDMDL
MODEL 6
REMARK VINA RESULT:      -5.3      3.458      4.671
REMARK  3 active torsions:
REMARK  status: ('A' for Active; 'I' for Inactive)
REMARK    1  A    between atoms: C_7  and  N_8 
REMARK       I    between atoms: N_8  and  C_9 
REMARK       I    between atoms: C_9  and  N_11 
REMARK    2  A    between atoms: N_11  and  C_12 
REMARK    3  A    between atoms: C_15  and  O_16 
ROOT
HETATM    1  N   UNL     1     -41.410 -51.005  11.466  1.00  0.00    -0.307 N 
HETATM    2  C   UNL     1     -42.337 -51.618  12.281  1.00  0.00     0.321 C 
HETATM    3  O   UNL     1     -42.744 -51.195  13.355  1.00  0.00    -0.247 OA
HETATM    4  N   UNL     1     -42.807 -52.799  11.746  1.00  0.00    -0.338 N 
HETATM    5  H   UNL     1     -41.319 -51.363  10.524  1.00  0.00     0.170 HD
HETATM    6  H   UNL     1     -42.171 -53.303  11.143  1.00  0.00     0.164 HD
ENDROOT
BRANCH   1   7
HETATM    7  C   UNL     1     -40.733 -49.784  11.738  1.00  0.00     0.061 A 
HETATM    8  C   UNL     1     -41.136 -48.575  11.170  1.00  0.00     0.048 A 
HETATM    9  C   UNL     1     -40.427 -47.422  11.452  1.00  0.00     0.090 A 
HETATM   10  N   UNL     1     -39.354 -47.388  12.263  1.00  0.00    -0.368 N 
HETATM   11  C   UNL     1     -38.961 -48.557  12.832  1.00  0.00     0.029 A 
ATOM     12  HN  UNL     1     -38.856 -46.517  12.444  1.00  0.00     0.165 HD
HETATM   13  C   UNL     1     -37.747 -48.449  13.708  1.00  0.00     0.070 C 
HETATM   14  C   UNL     1     -39.627 -49.770  12.605  1.00  0.00     0.083 A 
HETATM   15 CL   UNL     1     -39.101 -51.234  13.370  1.00  0.00    -0.080 Cl
ENDBRANCH   1   7
BRANCH   4  16
HETATM   16  C   UNL     1     -43.758 -53.594  12.518  1.00  0.00     0.086 C 
HETATM   17  C   UNL     1     -43.115 -54.136  13.799  1.00  0.00     0.028 C 
HETATM   18  C   UNL     1     -44.123 -54.927  14.631  1.00  0.00     0.034 C 
HETATM   19  C   UNL     1     -45.366 -54.095  14.939  1.00  0.00     0.118 C 
HETATM   20  C   UNL     1     -46.017 -53.570  13.661  1.00  0.00     0.034 C 
HETATM   21  C   UNL     1     -45.025 -52.780  12.815  1.00  0.00     0.028 C 
BRANCH  19  22
HETATM   22  O   UNL     1     -46.301 -54.878  15.669  1.00  0.00    -0.396 OA
HETATM   23  H   UNL     1     -46.809 -54.287  16.251  1.00  0.00     0.210 HD
ENDBRANCH  19  22
ENDBRANCH   4  16
TORSDOF 3
ENDMDL
MODEL 7
REMARK VINA RESULT:      -5.3      3.301      3.933
REMARK  3 active torsions:
REMARK  status: ('A' for Active; 'I' for Inactive)
REMARK    1  A    between atoms: C_7  and  N_8 
REMARK       I    between atoms: N_8  and  C_9 
REMARK       I    between atoms: C_9  and  N_11 
REMARK    2  A    between atoms: N_11  and  C_12 
REMARK    3  A    between atoms: C_15  and  O_16 
ROOT
HETATM    1  N   UNL     1     -42.158 -47.561  13.299  1.00  0.00    -0.307 N 
HETATM    2  C   UNL     1     -42.959 -48.552  12.776  1.00  0.00     0.321 C 
HETATM    3  O   UNL     1     -43.515 -48.529  11.685  1.00  0.00    -0.247 OA
HETATM    4  N   UNL     1     -43.070 -49.637  13.619  1.00  0.00    -0.338 N 
HETATM    5  H   UNL     1     -41.608 -47.798  14.114  1.00  0.00     0.170 HD
HETATM    6  H   UNL     1     -42.989 -49.447  14.608  1.00  0.00     0.164 HD
ENDROOT
BRANCH   1   7
HETATM    7  C   UNL     1     -41.855 -46.315  12.681  1.00  0.00     0.061 A 
HETATM    8  C   UNL     1     -42.572 -45.154  12.974  1.00  0.00     0.048 A 
HETATM    9  C   UNL     1     -42.248 -43.976  12.327  1.00  0.00     0.090 A 
HETATM   10  N   UNL     1     -41.262 -43.872  11.418  1.00  0.00    -0.368 N 
HETATM   11  C   UNL     1     -40.550 -44.994  11.135  1.00  0.00     0.029 A 
ATOM     12  HN  UNL     1     -41.057 -42.985  10.959  1.00  0.00     0.165 HD
HETATM   13  C   UNL     1     -39.479 -44.811  10.099  1.00  0.00     0.070 C 
HETATM   14  C   UNL     1     -40.806 -46.228  11.750  1.00  0.00     0.083 A 
HETATM   15 CL   UNL     1     -39.858 -47.628  11.373  1.00  0.00    -0.080 Cl
ENDBRANCH   1   7
BRANCH   4  16
HETATM   16  C   UNL     1     -43.931 -50.750  13.227  1.00  0.00     0.086 C 
HETATM   17  C   UNL     1     -43.107 -51.996  12.887  1.00  0.00     0.028 C 
HETATM   18  C   UNL     1     -44.010 -53.174  12.524  1.00  0.00     0.034 C 
HETATM   19  C   UNL     1     -45.021 -53.461  13.632  1.00  0.00     0.118 C 
HETATM   20  C   UNL     1     -45.856 -52.224  13.959  1.00  0.00     0.034 C 
HETATM   21  C   UNL     1     -44.972 -51.035  14.319  1.00  0.00     0.028 C 
BRANCH  19  22
HETATM   22  O   UNL     1     -45.875 -54.528  13.238  1.00  0.00    -0.396 OA
HETATM   23  H   UNL     1     -45.474 -54.974  12.473  1.00  0.00     0.210 HD
ENDBRANCH  19  22
ENDBRANCH   4  16
TORSDOF 3
ENDMDL
MODEL 8
REMARK VINA RESULT:      -5.2      2.185      3.012
REMARK  3 active torsions:
REMARK  status: ('A' for Active; 'I' for Inactive)
REMARK    1  A    between atoms: C_7  and  N_8 
REMARK       I    between atoms: N_8  and  C_9 
REMARK       I    between atoms: C_9  and  N_11 
REMARK    2  A    between atoms: N_11  and  C_12 
REMARK    3  A    between atoms: C_15  and  O_16 
ROOT
HETATM    1  N   UNL     1     -40.720 -49.630  11.143  1.00  0.00    -0.307 N 
HETATM    2  C   UNL     1     -41.281 -50.607  11.936  1.00  0.00     0.321 C 
HETATM    3  O   UNL     1     -41.826 -50.433  13.019  1.00  0.00    -0.247 OA
HETATM    4  N   UNL     1     -41.192 -51.860  11.367  1.00  0.00    -0.338 N 
HETATM    5  H   UNL     1     -40.488 -49.887  10.193  1.00  0.00     0.170 HD
HETATM    6  H   UNL     1     -40.404 -52.020  10.755  1.00  0.00     0.164 HD
ENDROOT
BRANCH   1   7
HETATM    7  C   UNL     1     -40.642 -48.243  11.453  1.00  0.00     0.061 A 
HETATM    8  C   UNL     1     -39.674 -47.735  12.320  1.00  0.00     0.048 A 
HETATM    9  C   UNL     1     -39.660 -46.381  12.602  1.00  0.00     0.090 A 
HETATM   10  N   UNL     1     -40.533 -45.502  12.078  1.00  0.00    -0.368 N 
HETATM   11  C   UNL     1     -41.471 -45.984  11.223  1.00  0.00     0.029 A 
ATOM     12  HN  UNL     1     -40.491 -44.511  12.314  1.00  0.00     0.165 HD
HETATM   13  C   UNL     1     -42.423 -44.953  10.691  1.00  0.00     0.070 C 
HETATM   14  C   UNL     1     -41.552 -47.341  10.876  1.00  0.00     0.083 A 
HETATM   15 CL   UNL     1     -42.754 -47.908   9.764  1.00  0.00    -0.080 Cl
ENDBRANCH   1   7
BRANCH   4  16
HETATM   16  C   UNL     1     -41.696 -53.011  12.112  1.00  0.00     0.086 C 
HETATM   17  C   UNL     1     -40.924 -53.205  13.421  1.00  0.00     0.028 C 
HETATM   18  C   UNL     1     -41.482 -54.379  14.223  1.00  0.00     0.034 C 
HETATM   19  C   UNL     1     -42.979 -54.217  14.477  1.00  0.00     0.118 C 
HETATM   20  C   UNL     1     -43.752 -54.043  13.171  1.00  0.00     0.034 C 
HETATM   21  C   UNL     1     -43.206 -52.877  12.354  1.00  0.00     0.028 C 
BRANCH  19  22
HETATM   22  O   UNL     1     -43.473 -55.351  15.180  1.00  0.00    -0.396 OA
HETATM   23  H   UNL     1     -42.714 -55.882  15.476  1.00  0.00     0.210 HD
ENDBRANCH  19  22
ENDBRANCH   4  16
TORSDOF 3
ENDMDL
MODEL 9
REMARK VINA RESULT:      -5.1      4.532      5.241
REMARK  3 active torsions:
REMARK  status: ('A' for Active; 'I' for Inactive)
REMARK    1  A    between atoms: C_7  and  N_8 
REMARK       I    between atoms: N_8  and  C_9 
REMARK       I    between atoms: C_9  and  N_11 
REMARK    2  A    between atoms: N_11  and  C_12 
REMARK    3  A    between atoms: C_15  and  O_16 
ROOT
HETATM    1  N   UNL     1     -42.818 -50.174  12.468  1.00  0.00    -0.307 N 
HETATM    2  C   UNL     1     -43.456 -50.040  13.682  1.00  0.00     0.321 C 
HETATM    3  O   UNL     1     -43.196 -49.213  14.546  1.00  0.00    -0.247 OA
HETATM    4  N   UNL     1     -44.480 -50.950  13.840  1.00  0.00    -0.338 N 
HETATM    5  H   UNL     1     -43.265 -50.762  11.777  1.00  0.00     0.170 HD
HETATM    6  H   UNL     1     -44.375 -51.832  13.356  1.00  0.00     0.164 HD
ENDROOT
BRANCH   1   7
HETATM    7  C   UNL     1     -41.719 -49.395  12.009  1.00  0.00     0.061 A 
HETATM    8  C   UNL     1     -40.405 -49.860  12.082  1.00  0.00     0.048 A 
HETATM    9  C   UNL     1     -39.374 -49.051  11.642  1.00  0.00     0.090 A 
HETATM   10  N   UNL     1     -39.559 -47.820  11.131  1.00  0.00    -0.368 N 
HETATM   11  C   UNL     1     -40.835 -47.363  11.044  1.00  0.00     0.029 A 
ATOM     12  HN  UNL     1     -38.771 -47.253  10.820  1.00  0.00     0.165 HD
HETATM   13  C   UNL     1     -40.967 -45.977  10.483  1.00  0.00     0.070 C 
HETATM   14  C   UNL     1     -41.940 -48.121  11.460  1.00  0.00     0.083 A 
HETATM   15 CL   UNL     1     -43.552 -47.504  11.310  1.00  0.00    -0.080 Cl
ENDBRANCH   1   7
BRANCH   4  16
HETATM   16  C   UNL     1     -45.218 -50.970  15.100  1.00  0.00     0.086 C 
HETATM   17  C   UNL     1     -46.678 -51.380  14.879  1.00  0.00     0.028 C 
HETATM   18  C   UNL     1     -47.438 -51.448  16.203  1.00  0.00     0.034 C 
HETATM   19  C   UNL     1     -46.743 -52.376  17.197  1.00  0.00     0.118 C 
HETATM   20  C   UNL     1     -45.292 -51.957  17.431  1.00  0.00     0.034 C 
HETATM   21  C   UNL     1     -44.518 -51.879  16.120  1.00  0.00     0.028 C 
BRANCH  19  22
HETATM   22  O   UNL     1     -47.449 -52.374  18.431  1.00  0.00    -0.396 OA
HETATM   23  H   UNL     1     -47.713 -53.288  18.634  1.00  0.00     0.210 HD
ENDBRANCH  19  22
ENDBRANCH   4  16
TORSDOF 3
ENDMDL
