MODEL 1
REMARK VINA RESULT:      -5.6      0.000      0.000
REMARK  7 active torsions:
REMARK  status: ('A' for Active; 'I' for Inactive)
REMARK    1  A    between atoms: N_6  and  C_7 
REMARK    2  A    between atoms: C_7  and  C_8 
REMARK    3  A    between atoms: C_8  and  N_9 
REMARK    4  A    between atoms: N_9  and  C_10 
REMARK    5  A    between atoms: C_10  and  C_11 
REMARK    6  A    between atoms: C_11  and  C_12 
REMARK       I    between atoms: C_12  and  N_14 
REMARK    7  A    between atoms: N_14  and  C_15 
ROOT
HETATM    1  N   UNL     1     -41.582 -50.119  11.757  1.00  0.00     0.085 N 
HETATM    2  H   UNL     1     -42.424 -50.554  11.377  1.00  0.00     0.315 HD
ENDROOT
BRANCH   1   3
HETATM    3  C   UNL     1     -41.053 -49.147  10.773  1.00  0.00     0.291 C 
BRANCH   3   4
HETATM    4  C   UNL     1     -41.743 -47.775  10.777  1.00  0.00     0.178 C 
BRANCH   4   5
HETATM    5  N   UNL     1     -42.915 -47.747   9.924  1.00  0.00    -0.302 N 
HETATM    6  N   UNL     1     -42.791 -47.939   8.601  1.00  0.00    -0.310 N 
HETATM    7  C   UNL     1     -44.031 -47.761   8.142  1.00  0.00     0.115 A 
ATOM      8  HN  UNL     1     -41.948 -48.166   8.072  1.00  0.00     0.186 HD
HETATM    9  C   UNL     1     -44.957 -47.465   9.168  1.00  0.00    -0.028 A 
HETATM   10  C   UNL     1     -46.407 -47.204   9.043  1.00  0.00     0.051 C 
HETATM   11  C   UNL     1     -44.193 -47.464  10.314  1.00  0.00     0.118 A 
ENDBRANCH   4   5
ENDBRANCH   3   4
ENDBRANCH   1   3
BRANCH   1  12
HETATM   12  C   UNL     1     -40.585 -51.151  12.062  1.00  0.00     0.278 C 
BRANCH  12  13
HETATM   13  C   UNL     1     -40.966 -52.033  13.250  1.00  0.00     0.132 C 
BRANCH  13  14
HETATM   14  C   UNL     1     -42.442 -52.346  13.124  1.00  0.00     0.219 C 
HETATM   15  O   UNL     1     -42.944 -52.735  12.071  1.00  0.00    -0.274 OA
HETATM   16  N   UNL     1     -43.182 -52.157  14.269  1.00  0.00    -0.356 N 
HETATM   17  H   UNL     1     -42.787 -51.616  15.030  1.00  0.00     0.162 HD
BRANCH  16  18
HETATM   18  C   UNL     1     -44.603 -52.418  14.242  1.00  0.00     0.084 C 
HETATM   19  C   UNL     1     -45.439 -51.173  13.954  1.00  0.00     0.025 C 
HETATM   20  C   UNL     1     -46.817 -51.480  14.545  1.00  0.00     0.002 C 
HETATM   21  C   UNL     1     -46.666 -52.793  15.313  1.00  0.00     0.002 C 
HETATM   22  C   UNL     1     -45.171 -52.925  15.558  1.00  0.00     0.025 C 
ENDBRANCH  16  18
ENDBRANCH  13  14
ENDBRANCH  12  13
ENDBRANCH   1  12
TORSDOF 7
ENDMDL
MODEL 2
REMARK VINA RESULT:      -5.4      2.198      3.184
REMARK  7 active torsions:
REMARK  status: ('A' for Active; 'I' for Inactive)
REMARK    1  A    between atoms: N_6  and  C_7 
REMARK    2  A    between atoms: C_7  and  C_8 
REMARK    3  A    between atoms: C_8  and  N_9 
REMARK    4  A    between atoms: N_9  and  C_10 
REMARK    5  A    between atoms: C_10  and  C_11 
REMARK    6  A    between atoms: C_11  and  C_12 
REMARK       I    between atoms: C_12  and  N_14 
REMARK    7  A    between atoms: N_14  and  C_15 
ROOT
HETATM    1  N   UNL     1     -40.965 -46.879  10.465  1.00  0.00     0.085 N 
HETATM    2  H   UNL     1     -40.315 -46.096  10.550  1.00  0.00     0.315 HD
ENDROOT
BRANCH   1   3
HETATM    3  C   UNL     1     -42.353 -46.367  10.532  1.00  0.00     0.291 C 
BRANCH   3   4
HETATM    4  C   UNL     1     -42.962 -45.960   9.183  1.00  0.00     0.178 C 
BRANCH   4   5
HETATM    5  N   UNL     1     -44.308 -46.473   9.012  1.00  0.00    -0.302 N 
HETATM    6  N   UNL     1     -45.345 -45.627   8.917  1.00  0.00    -0.310 N 
HETATM    7  C   UNL     1     -46.404 -46.437   8.857  1.00  0.00     0.115 A 
ATOM      8  HN  UNL     1     -45.329 -44.607   8.895  1.00  0.00     0.186 HD
HETATM    9  C   UNL     1     -46.051 -47.805   8.905  1.00  0.00    -0.028 A 
HETATM   10  C   UNL     1     -46.945 -48.982   8.867  1.00  0.00     0.051 C 
HETATM   11  C   UNL     1     -44.677 -47.788   9.005  1.00  0.00     0.118 A 
ENDBRANCH   4   5
ENDBRANCH   3   4
ENDBRANCH   1   3
BRANCH   1  12
HETATM   12  C   UNL     1     -40.711 -47.851  11.534  1.00  0.00     0.278 C 
BRANCH  12  13
HETATM   13  C   UNL     1     -40.767 -49.303  11.064  1.00  0.00     0.132 C 
BRANCH  13  14
HETATM   14  C   UNL     1     -41.361 -50.120  12.192  1.00  0.00     0.219 C 
HETATM   15  O   UNL     1     -41.332 -49.743  13.362  1.00  0.00    -0.274 OA
HETATM   16  N   UNL     1     -41.928 -51.315  11.815  1.00  0.00    -0.356 N 
HETATM   17  H   UNL     1     -41.722 -51.695  10.899  1.00  0.00     0.162 HD
BRANCH  16  18
HETATM   18  C   UNL     1     -42.510 -52.169  12.826  1.00  0.00     0.084 C 
HETATM   19  C   UNL     1     -41.515 -53.161  13.423  1.00  0.00     0.025 C 
HETATM   20  C   UNL     1     -42.375 -54.307  13.961  1.00  0.00     0.002 C 
HETATM   21  C   UNL     1     -43.800 -54.027  13.484  1.00  0.00     0.002 C 
HETATM   22  C   UNL     1     -43.633 -53.061  12.320  1.00  0.00     0.025 C 
ENDBRANCH  16  18
ENDBRANCH  13  14
ENDBRANCH  12  13
ENDBRANCH   1  12
TORSDOF 7
ENDMDL
MODEL 3
REMARK VINA RESULT:      -5.4      3.035      3.563
REMARK  7 active torsions:
REMARK  status: ('A' for Active; 'I' for Inactive)
REMARK    1  A    between atoms: N_6  and  C_7 
REMARK    2  A    between atoms: C_7  and  C_8 
REMARK    3  A    between atoms: C_8  and  N_9 
REMARK    4  A    between atoms: N_9  and  C_10 
REMARK    5  A    between atoms: C_10  and  C_11 
REMARK    6  A    between atoms: C_11  and  C_12 
REMARK       I    between atoms: C_12  and  N_14 
REMARK    7  A    between atoms: N_14  and  C_15 
ROOT
HETATM    1  N   UNL     1     -39.688 -48.354  11.262  1.00  0.00     0.085 N 
HETATM    2  H   UNL     1     -39.303 -47.510  10.836  1.00  0.00     0.315 HD
ENDROOT
BRANCH   1   3
HETATM    3  C   UNL     1     -41.163 -48.337  11.124  1.00  0.00     0.291 C 
BRANCH   3   4
HETATM    4  C   UNL     1     -41.737 -47.094  10.429  1.00  0.00     0.178 C 
BRANCH   4   5
HETATM    5  N   UNL     1     -42.942 -47.392   9.680  1.00  0.00    -0.302 N 
HETATM    6  N   UNL     1     -42.864 -47.751   8.389  1.00  0.00    -0.310 N 
HETATM    7  C   UNL     1     -44.140 -47.856   8.016  1.00  0.00     0.115 A 
ATOM      8  HN  UNL     1     -42.027 -47.906   7.827  1.00  0.00     0.186 HD
HETATM    9  C   UNL     1     -45.043 -47.575   9.067  1.00  0.00    -0.028 A 
HETATM   10  C   UNL     1     -46.521 -47.586   9.030  1.00  0.00     0.051 C 
HETATM   11  C   UNL     1     -44.225 -47.277  10.135  1.00  0.00     0.118 A 
ENDBRANCH   4   5
ENDBRANCH   3   4
ENDBRANCH   1   3
BRANCH   1  12
HETATM   12  C   UNL     1     -39.294 -48.422  12.673  1.00  0.00     0.278 C 
BRANCH  12  13
HETATM   13  C   UNL     1     -37.996 -49.193  12.907  1.00  0.00     0.132 C 
BRANCH  13  14
HETATM   14  C   UNL     1     -38.328 -50.668  12.831  1.00  0.00     0.219 C 
HETATM   15  O   UNL     1     -37.616 -51.473  12.232  1.00  0.00    -0.274 OA
HETATM   16  N   UNL     1     -39.486 -51.043  13.472  1.00  0.00    -0.356 N 
HETATM   17  H   UNL     1     -40.157 -50.331  13.739  1.00  0.00     0.162 HD
BRANCH  16  18
HETATM   18  C   UNL     1     -39.892 -52.430  13.443  1.00  0.00     0.084 C 
HETATM   19  C   UNL     1     -41.190 -52.662  12.673  1.00  0.00     0.025 C 
HETATM   20  C   UNL     1     -41.754 -53.967  13.239  1.00  0.00     0.002 C 
HETATM   21  C   UNL     1     -40.872 -54.328  14.434  1.00  0.00     0.002 C 
HETATM   22  C   UNL     1     -40.185 -53.024  14.812  1.00  0.00     0.025 C 
ENDBRANCH  16  18
ENDBRANCH  13  14
ENDBRANCH  12  13
ENDBRANCH   1  12
TORSDOF 7
ENDMDL
MODEL 4
REMARK VINA RESULT:      -5.3      2.582      3.356
REMARK  7 active torsions:
REMARK  status: ('A' for Active; 'I' for Inactive)
REMARK    1  A    between atoms: N_6  and  C_7 
REMARK    2  A    between atoms: C_7  and  C_8 
REMARK    3  A    between atoms: C_8  and  N_9 
REMARK    4  A    between atoms: N_9  and  C_10 
REMARK    5  A    between atoms: C_10  and  C_11 
REMARK    6  A    between atoms: C_11  and  C_12 
REMARK       I    between atoms: C_12  and  N_14 
REMARK    7  A    between atoms: N_14  and  C_15 
ROOT
HETATM    1  N   UNL     1     -39.826 -51.483  13.798  1.00  0.00     0.085 N 
HETATM    2  H   UNL     1     -40.503 -51.257  13.068  1.00  0.00     0.315 HD
ENDROOT
BRANCH   1   3
HETATM    3  C   UNL     1     -38.476 -51.068  13.352  1.00  0.00     0.291 C 
BRANCH   3   4
HETATM    4  C   UNL     1     -38.397 -50.553  11.908  1.00  0.00     0.178 C 
BRANCH   4   5
HETATM    5  N   UNL     1     -39.424 -49.571  11.619  1.00  0.00    -0.302 N 
HETATM    6  N   UNL     1     -40.388 -49.845  10.725  1.00  0.00    -0.310 N 
HETATM    7  C   UNL     1     -41.082 -48.708  10.656  1.00  0.00     0.115 A 
ATOM      8  HN  UNL     1     -40.550 -50.716  10.219  1.00  0.00     0.186 HD
HETATM    9  C   UNL     1     -40.574 -47.703  11.511  1.00  0.00    -0.028 A 
HETATM   10  C   UNL     1     -41.075 -46.324  11.700  1.00  0.00     0.051 C 
HETATM   11  C   UNL     1     -39.494 -48.302  12.121  1.00  0.00     0.118 A 
ENDBRANCH   4   5
ENDBRANCH   3   4
ENDBRANCH   1   3
BRANCH   1  12
HETATM   12  C   UNL     1     -39.865 -52.921  14.082  1.00  0.00     0.278 C 
BRANCH  12  13
HETATM   13  C   UNL     1     -40.788 -53.703  13.148  1.00  0.00     0.132 C 
BRANCH  13  14
HETATM   14  C   UNL     1     -41.957 -52.801  12.812  1.00  0.00     0.219 C 
HETATM   15  O   UNL     1     -41.907 -51.970  11.907  1.00  0.00    -0.274 OA
HETATM   16  N   UNL     1     -43.075 -52.974  13.596  1.00  0.00    -0.356 N 
HETATM   17  H   UNL     1     -42.995 -53.485  14.467  1.00  0.00     0.162 HD
BRANCH  16  18
HETATM   18  C   UNL     1     -44.237 -52.148  13.357  1.00  0.00     0.084 C 
HETATM   19  C   UNL     1     -44.928 -51.694  14.640  1.00  0.00     0.025 C 
HETATM   20  C   UNL     1     -46.370 -51.394  14.226  1.00  0.00     0.002 C 
HETATM   21  C   UNL     1     -46.504 -51.870  12.780  1.00  0.00     0.002 C 
HETATM   22  C   UNL     1     -45.350 -52.843  12.588  1.00  0.00     0.025 C 
ENDBRANCH  16  18
ENDBRANCH  13  14
ENDBRANCH  12  13
ENDBRANCH   1  12
TORSDOF 7
ENDMDL
MODEL 5
REMARK VINA RESULT:      -5.2      2.976      4.426
REMARK  7 active torsions:
REMARK  status: ('A' for Active; 'I' for Inactive)
REMARK    1  A    between atoms: N_6  and  C_7 
REMARK    2  A    between atoms: C_7  and  C_8 
REMARK    3  A    between atoms: C_8  and  N_9 
REMARK    4  A    between atoms: N_9  and  C_10 
REMARK    5  A    between atoms: C_10  and  C_11 
REMARK    6  A    between atoms: C_11  and  C_12 
REMARK       I    between atoms: C_12  and  N_14 
REMARK    7  A    between atoms: N_14  and  C_15 
ROOT
HETATM    1  N   UNL     1     -41.968 -52.026  11.795  1.00  0.00     0.085 N 
HETATM    2  H   UNL     1     -41.484 -52.107  10.901  1.00  0.00     0.315 HD
ENDROOT
BRANCH   1   3
HETATM    3  C   UNL     1     -42.030 -50.599  12.186  1.00  0.00     0.291 C 
BRANCH   3   4
HETATM    4  C   UNL     1     -41.071 -49.674  11.424  1.00  0.00     0.178 C 
BRANCH   4   5
HETATM    5  N   UNL     1     -39.712 -49.761  11.923  1.00  0.00    -0.302 N 
HETATM    6  N   UNL     1     -38.694 -49.975  11.074  1.00  0.00    -0.310 N 
HETATM    7  C   UNL     1     -37.634 -50.082  11.877  1.00  0.00     0.115 A 
ATOM      8  HN  UNL     1     -38.724 -50.042  10.056  1.00  0.00     0.186 HD
HETATM    9  C   UNL     1     -37.965 -49.926  13.243  1.00  0.00    -0.028 A 
HETATM   10  C   UNL     1     -37.064 -49.984  14.414  1.00  0.00     0.051 C 
HETATM   11  C   UNL     1     -39.327 -49.719  13.233  1.00  0.00     0.118 A 
ENDBRANCH   4   5
ENDBRANCH   3   4
ENDBRANCH   1   3
BRANCH   1  12
HETATM   12  C   UNL     1     -41.267 -52.818  12.812  1.00  0.00     0.278 C 
BRANCH  12  13
HETATM   13  C   UNL     1     -41.955 -54.144  13.133  1.00  0.00     0.132 C 
BRANCH  13  14
HETATM   14  C   UNL     1     -43.442 -53.872  13.216  1.00  0.00     0.219 C 
HETATM   15  O   UNL     1     -44.212 -54.142  12.296  1.00  0.00    -0.274 OA
HETATM   16  N   UNL     1     -43.868 -53.295  14.390  1.00  0.00    -0.356 N 
HETATM   17  H   UNL     1     -43.187 -52.874  15.011  1.00  0.00     0.162 HD
BRANCH  16  18
HETATM   18  C   UNL     1     -45.271 -52.986  14.556  1.00  0.00     0.084 C 
HETATM   19  C   UNL     1     -45.649 -51.602  14.036  1.00  0.00     0.025 C 
HETATM   20  C   UNL     1     -46.918 -51.226  14.805  1.00  0.00     0.002 C 
HETATM   21  C   UNL     1     -47.107 -52.310  15.866  1.00  0.00     0.002 C 
HETATM   22  C   UNL     1     -45.737 -52.957  16.003  1.00  0.00     0.025 C 
ENDBRANCH  16  18
ENDBRANCH  13  14
ENDBRANCH  12  13
ENDBRANCH   1  12
TORSDOF 7
ENDMDL
MODEL 6
REMARK VINA RESULT:      -5.2      1.770      2.245
REMARK  7 active torsions:
REMARK  status: ('A' for Active; 'I' for Inactive)
REMARK    1  A    between atoms: N_6  and  C_7 
REMARK    2  A    between atoms: C_7  and  C_8 
REMARK    3  A    between atoms: C_8  and  N_9 
REMARK    4  A    between atoms: N_9  and  C_10 
REMARK    5  A    between atoms: C_10  and  C_11 
REMARK    6  A    between atoms: C_11  and  C_12 
REMARK       I    between atoms: C_12  and  N_14 
REMARK    7  A    between atoms: N_14  and  C_15 
ROOT
HETATM    1  N   UNL     1     -41.855 -51.996  11.781  1.00  0.00     0.085 N 
HETATM    2  H   UNL     1     -41.377 -52.150  10.892  1.00  0.00     0.315 HD
ENDROOT
BRANCH   1   3
HETATM    3  C   UNL     1     -41.823 -50.551  12.105  1.00  0.00     0.291 C 
BRANCH   3   4
HETATM    4  C   UNL     1     -40.626 -49.781  11.530  1.00  0.00     0.178 C 
BRANCH   4   5
HETATM    5  N   UNL     1     -41.006 -48.479  11.019  1.00  0.00    -0.302 N 
HETATM    6  N   UNL     1     -40.146 -47.450  11.089  1.00  0.00    -0.310 N 
HETATM    7  C   UNL     1     -40.851 -46.420  10.617  1.00  0.00     0.115 A 
ATOM      8  HN  UNL     1     -39.182 -47.454  11.423  1.00  0.00     0.186 HD
HETATM    9  C   UNL     1     -42.162 -46.785  10.234  1.00  0.00    -0.028 A 
HETATM   10  C   UNL     1     -43.225 -45.921   9.676  1.00  0.00     0.051 C 
HETATM   11  C   UNL     1     -42.225 -48.133  10.511  1.00  0.00     0.118 A 
ENDBRANCH   4   5
ENDBRANCH   3   4
ENDBRANCH   1   3
BRANCH   1  12
HETATM   12  C   UNL     1     -41.206 -52.784  12.835  1.00  0.00     0.278 C 
BRANCH  12  13
HETATM   13  C   UNL     1     -41.901 -54.116  13.115  1.00  0.00     0.132 C 
BRANCH  13  14
HETATM   14  C   UNL     1     -43.389 -53.844  13.172  1.00  0.00     0.219 C 
HETATM   15  O   UNL     1     -44.140 -54.093  12.230  1.00  0.00    -0.274 OA
HETATM   16  N   UNL     1     -43.841 -53.292  14.349  1.00  0.00    -0.356 N 
HETATM   17  H   UNL     1     -43.173 -52.886  14.994  1.00  0.00     0.162 HD
BRANCH  16  18
HETATM   18  C   UNL     1     -45.246 -52.986  14.491  1.00  0.00     0.084 C 
HETATM   19  C   UNL     1     -45.613 -51.592  13.988  1.00  0.00     0.025 C 
HETATM   20  C   UNL     1     -46.898 -51.230  14.737  1.00  0.00     0.002 C 
HETATM   21  C   UNL     1     -47.109 -52.332  15.775  1.00  0.00     0.002 C 
HETATM   22  C   UNL     1     -45.742 -52.982  15.929  1.00  0.00     0.025 C 
ENDBRANCH  16  18
ENDBRANCH  13  14
ENDBRANCH  12  13
ENDBRANCH   1  12
TORSDOF 7
ENDMDL
MODEL 7
REMARK VINA RESULT:      -5.1      2.473      6.046
REMARK  7 active torsions:
REMARK  status: ('A' for Active; 'I' for Inactive)
REMARK    1  A    between atoms: N_6  and  C_7 
REMARK    2  A    between atoms: C_7  and  C_8 
REMARK    3  A    between atoms: C_8  and  N_9 
REMARK    4  A    between atoms: N_9  and  C_10 
REMARK    5  A    between atoms: C_10  and  C_11 
REMARK    6  A    between atoms: C_11  and  C_12 
REMARK       I    between atoms: C_12  and  N_14 
REMARK    7  A    between atoms: N_14  and  C_15 
ROOT
HETATM    1  N   UNL     1     -39.451 -50.886  13.640  1.00  0.00     0.085 N 
HETATM    2  H   UNL     1     -38.923 -51.211  14.452  1.00  0.00     0.315 HD
ENDROOT
BRANCH   1   3
HETATM    3  C   UNL     1     -40.598 -51.795  13.413  1.00  0.00     0.291 C 
BRANCH   3   4
HETATM    4  C   UNL     1     -41.593 -51.331  12.340  1.00  0.00     0.178 C 
BRANCH   4   5
HETATM    5  N   UNL     1     -42.945 -51.778  12.615  1.00  0.00    -0.302 N 
HETATM    6  N   UNL     1     -43.388 -52.939  12.107  1.00  0.00    -0.310 N 
HETATM    7  C   UNL     1     -44.667 -52.978  12.486  1.00  0.00     0.115 A 
ATOM      8  HN  UNL     1     -42.871 -53.627  11.560  1.00  0.00     0.186 HD
HETATM    9  C   UNL     1     -45.047 -51.849  13.247  1.00  0.00    -0.028 A 
HETATM   10  C   UNL     1     -46.371 -51.543  13.831  1.00  0.00     0.051 C 
HETATM   11  C   UNL     1     -43.899 -51.090  13.310  1.00  0.00     0.118 A 
ENDBRANCH   4   5
ENDBRANCH   3   4
ENDBRANCH   1   3
BRANCH   1  12
HETATM   12  C   UNL     1     -38.575 -50.842  12.465  1.00  0.00     0.278 C 
BRANCH  12  13
HETATM   13  C   UNL     1     -38.049 -49.443  12.148  1.00  0.00     0.132 C 
BRANCH  13  14
HETATM   14  C   UNL     1     -39.219 -48.488  12.250  1.00  0.00     0.219 C 
HETATM   15  O   UNL     1     -39.491 -47.888  13.288  1.00  0.00    -0.274 OA
HETATM   16  N   UNL     1     -39.961 -48.345  11.099  1.00  0.00    -0.356 N 
HETATM   17  H   UNL     1     -39.856 -49.024  10.355  1.00  0.00     0.162 HD
BRANCH  16  18
HETATM   18  C   UNL     1     -41.107 -47.463  11.104  1.00  0.00     0.084 C 
HETATM   19  C   UNL     1     -42.203 -47.893  10.132  1.00  0.00     0.025 C 
HETATM   20  C   UNL     1     -42.984 -46.613   9.829  1.00  0.00     0.002 C 
HETATM   21  C   UNL     1     -42.197 -45.473  10.475  1.00  0.00     0.002 C 
HETATM   22  C   UNL     1     -40.799 -46.037  10.676  1.00  0.00     0.025 C 
ENDBRANCH  16  18
ENDBRANCH  13  14
ENDBRANCH  12  13
ENDBRANCH   1  12
TORSDOF 7
ENDMDL
MODEL 8
REMARK VINA RESULT:      -5.1      2.192      2.402
REMARK  7 active torsions:
REMARK  status: ('A' for Active; 'I' for Inactive)
REMARK    1  A    between atoms: N_6  and  C_7 
REMARK    2  A    between atoms: C_7  and  C_8 
REMARK    3  A    between atoms: C_8  and  N_9 
REMARK    4  A    between atoms: N_9  and  C_10 
REMARK    5  A    between atoms: C_10  and  C_11 
REMARK    6  A    between atoms: C_11  and  C_12 
REMARK       I    between atoms: C_12  and  N_14 
REMARK    7  A    between atoms: N_14  and  C_15 
ROOT
HETATM    1  N   UNL     1     -38.719 -49.057  11.606  1.00  0.00     0.085 N 
HETATM    2  H   UNL     1     -37.812 -48.790  11.993  1.00  0.00     0.315 HD
ENDROOT
BRANCH   1   3
HETATM    3  C   UNL     1     -39.746 -48.097  12.071  1.00  0.00     0.291 C 
BRANCH   3   4
HETATM    4  C   UNL     1     -39.966 -46.885  11.155  1.00  0.00     0.178 C 
BRANCH   4   5
HETATM    5  N   UNL     1     -41.250 -46.932  10.481  1.00  0.00    -0.302 N 
HETATM    6  N   UNL     1     -41.706 -48.091   9.980  1.00  0.00    -0.310 N 
HETATM    7  C   UNL     1     -42.842 -47.743   9.373  1.00  0.00     0.115 A 
ATOM      8  HN  UNL     1     -41.285 -49.018  10.047  1.00  0.00     0.186 HD
HETATM    9  C   UNL     1     -43.124 -46.363   9.490  1.00  0.00    -0.028 A 
HETATM   10  C   UNL     1     -44.281 -45.617   8.948  1.00  0.00     0.051 C 
HETATM   11  C   UNL     1     -42.065 -45.868  10.218  1.00  0.00     0.118 A 
ENDBRANCH   4   5
ENDBRANCH   3   4
ENDBRANCH   1   3
BRANCH   1  12
HETATM   12  C   UNL     1     -39.052 -50.423  12.021  1.00  0.00     0.278 C 
BRANCH  12  13
HETATM   13  C   UNL     1     -40.221 -50.495  13.002  1.00  0.00     0.132 C 
BRANCH  13  14
HETATM   14  C   UNL     1     -40.853 -51.862  12.852  1.00  0.00     0.219 C 
HETATM   15  O   UNL     1     -40.369 -52.735  12.133  1.00  0.00    -0.274 OA
HETATM   16  N   UNL     1     -42.010 -52.056  13.571  1.00  0.00    -0.356 N 
HETATM   17  H   UNL     1     -42.497 -51.254  13.951  1.00  0.00     0.162 HD
BRANCH  16  18
HETATM   18  C   UNL     1     -42.692 -53.327  13.481  1.00  0.00     0.084 C 
HETATM   19  C   UNL     1     -43.927 -53.287  12.585  1.00  0.00     0.025 C 
HETATM   20  C   UNL     1     -44.805 -54.442  13.073  1.00  0.00     0.002 C 
HETATM   21  C   UNL     1     -44.140 -54.973  14.342  1.00  0.00     0.002 C 
HETATM   22  C   UNL     1     -43.236 -53.840  14.805  1.00  0.00     0.025 C 
ENDBRANCH  16  18
ENDBRANCH  13  14
ENDBRANCH  12  13
ENDBRANCH   1  12
TORSDOF 7
ENDMDL
MODEL 9
REMARK VINA RESULT:      -5.0      4.033      6.791
REMARK  7 active torsions:
REMARK  status: ('A' for Active; 'I' for Inactive)
REMARK    1  A    between atoms: N_6  and  C_7 
REMARK    2  A    between atoms: C_7  and  C_8 
REMARK    3  A    between atoms: C_8  and  N_9 
REMARK    4  A    between atoms: N_9  and  C_10 
REMARK    5  A    between atoms: C_10  and  C_11 
REMARK    6  A    between atoms: C_11  and  C_12 
REMARK       I    between atoms: C_12  and  N_14 
REMARK    7  A    between atoms: N_14  and  C_15 
ROOT
HETATM    1  N   UNL     1     -42.814 -53.875  14.180  1.00  0.00     0.085 N 
HETATM    2  H   UNL     1     -43.193 -52.927  14.166  1.00  0.00     0.315 HD
ENDROOT
BRANCH   1   3
HETATM    3  C   UNL     1     -43.910 -54.831  14.461  1.00  0.00     0.291 C 
BRANCH   3   4
HETATM    4  C   UNL     1     -45.201 -54.594  13.664  1.00  0.00     0.178 C 
BRANCH   4   5
HETATM    5  N   UNL     1     -45.918 -53.417  14.117  1.00  0.00    -0.302 N 
HETATM    6  N   UNL     1     -46.037 -52.349  13.313  1.00  0.00    -0.310 N 
HETATM    7  C   UNL     1     -46.664 -51.452  14.077  1.00  0.00     0.115 A 
ATOM      8  HN  UNL     1     -45.723 -52.246  12.348  1.00  0.00     0.186 HD
HETATM    9  C   UNL     1     -46.957 -51.943  15.370  1.00  0.00    -0.028 A 
HETATM   10  C   UNL     1     -47.634 -51.242  16.482  1.00  0.00     0.051 C 
HETATM   11  C   UNL     1     -46.456 -53.226  15.358  1.00  0.00     0.118 A 
ENDBRANCH   4   5
ENDBRANCH   3   4
ENDBRANCH   1   3
BRANCH   1  12
HETATM   12  C   UNL     1     -41.760 -53.973  15.195  1.00  0.00     0.278 C 
BRANCH  12  13
HETATM   13  C   UNL     1     -40.374 -54.242  14.610  1.00  0.00     0.132 C 
BRANCH  13  14
HETATM   14  C   UNL     1     -40.170 -53.268  13.469  1.00  0.00     0.219 C 
HETATM   15  O   UNL     1     -40.549 -53.507  12.324  1.00  0.00    -0.274 OA
HETATM   16  N   UNL     1     -39.523 -52.100  13.804  1.00  0.00    -0.356 N 
HETATM   17  H   UNL     1     -39.022 -52.046  14.682  1.00  0.00     0.162 HD
BRANCH  16  18
HETATM   18  C   UNL     1     -39.271 -51.115  12.777  1.00  0.00     0.084 C 
HETATM   19  C   UNL     1     -37.786 -50.885  12.512  1.00  0.00     0.025 C 
HETATM   20  C   UNL     1     -37.705 -49.481  11.910  1.00  0.00     0.002 C 
HETATM   21  C   UNL     1     -39.108 -48.886  12.033  1.00  0.00     0.002 C 
HETATM   22  C   UNL     1     -39.788 -49.723  13.107  1.00  0.00     0.025 C 
ENDBRANCH  16  18
ENDBRANCH  13  14
ENDBRANCH  12  13
ENDBRANCH   1  12
TORSDOF 7
ENDMDL
