MODEL 1
REMARK VINA RESULT:      -5.8      0.000      0.000
REMARK  3 active torsions:
REMARK  status: ('A' for Active; 'I' for Inactive)
REMARK    1  A    between atoms: N_6  and  C_7 
REMARK    2  A    between atoms: C_7  and  C_8 
REMARK       I    between atoms: C_8  and  N_10 
REMARK    3  A    between atoms: N_10  and  C_11 
ROOT
HETATM    1 CL   UNL     1     -45.621 -55.305  14.008  1.00  0.00    -0.081 Cl
HETATM    2  C   UNL     1     -44.238 -54.394  13.560  1.00  0.00     0.078 A 
HETATM    3  C   UNL     1     -44.376 -53.498  12.407  1.00  0.00     0.133 A 
HETATM    4  N   UNL     1     -43.438 -52.760  11.911  1.00  0.00    -0.305 N 
ATOM      5  HN  UNL     1     -43.597 -52.178  11.089  1.00  0.00     0.186 HD
HETATM    6  N   UNL     1     -42.214 -52.796  12.541  1.00  0.00    -0.248 N 
HETATM    7  C   UNL     1     -41.925 -53.593  13.649  1.00  0.00     0.285 A 
HETATM    8  O   UNL     1     -40.822 -53.612  14.189  1.00  0.00    -0.265 OA
HETATM    9  C   UNL     1     -43.045 -54.440  14.154  1.00  0.00     0.126 A 
HETATM   10 CL   UNL     1     -42.711 -55.457  15.512  1.00  0.00    -0.076 Cl
ENDROOT
BRANCH   6  11
HETATM   11  C   UNL     1     -41.184 -51.901  12.008  1.00  0.00     0.255 C 
BRANCH  11  12
HETATM   12  C   UNL     1     -41.439 -50.416  12.267  1.00  0.00     0.237 C 
HETATM   13  O   UNL     1     -41.450 -49.961  13.409  1.00  0.00    -0.272 OA
HETATM   14  N   UNL     1     -41.673 -49.639  11.151  1.00  0.00    -0.355 N 
HETATM   15  H   UNL     1     -41.918 -50.137  10.303  1.00  0.00     0.162 HD
BRANCH  14  16
HETATM   16  C   UNL     1     -41.974 -48.227  11.253  1.00  0.00     0.084 C 
HETATM   17  C   UNL     1     -42.960 -47.743  10.186  1.00  0.00     0.025 C 
HETATM   18  C   UNL     1     -42.554 -46.302   9.866  1.00  0.00     0.002 C 
HETATM   19  C   UNL     1     -41.357 -45.989  10.757  1.00  0.00     0.002 C 
HETATM   20  C   UNL     1     -40.746 -47.351  11.045  1.00  0.00     0.025 C 
ENDBRANCH  14  16
ENDBRANCH  11  12
ENDBRANCH   6  11
TORSDOF 3
ENDMDL
MODEL 2
REMARK VINA RESULT:      -5.6      1.838      2.503
REMARK  3 active torsions:
REMARK  status: ('A' for Active; 'I' for Inactive)
REMARK    1  A    between atoms: N_6  and  C_7 
REMARK    2  A    between atoms: C_7  and  C_8 
REMARK       I    between atoms: C_8  and  N_10 
REMARK    3  A    between atoms: N_10  and  C_11 
ROOT
HETATM    1 CL   UNL     1     -42.383 -54.665  14.369  1.00  0.00    -0.081 Cl
HETATM    2  C   UNL     1     -41.660 -53.360  13.523  1.00  0.00     0.078 A 
HETATM    3  C   UNL     1     -42.517 -52.611  12.597  1.00  0.00     0.133 A 
HETATM    4  N   UNL     1     -42.141 -51.620  11.857  1.00  0.00    -0.305 N 
ATOM      5  HN  UNL     1     -42.787 -51.160  11.215  1.00  0.00     0.186 HD
HETATM    6  N   UNL     1     -40.831 -51.215  11.974  1.00  0.00    -0.248 N 
HETATM    7  C   UNL     1     -39.893 -51.821  12.810  1.00  0.00     0.285 A 
HETATM    8  O   UNL     1     -38.727 -51.444  12.890  1.00  0.00    -0.265 OA
HETATM    9  C   UNL     1     -40.387 -52.975  13.616  1.00  0.00     0.126 A 
HETATM   10 CL   UNL     1     -39.243 -53.762  14.645  1.00  0.00    -0.076 Cl
ENDROOT
BRANCH   6  11
HETATM   11  C   UNL     1     -40.440 -50.047  11.179  1.00  0.00     0.255 C 
BRANCH  11  12
HETATM   12  C   UNL     1     -41.361 -48.837  11.339  1.00  0.00     0.237 C 
HETATM   13  O   UNL     1     -41.400 -48.199  12.389  1.00  0.00    -0.272 OA
HETATM   14  N   UNL     1     -42.148 -48.527  10.248  1.00  0.00    -0.355 N 
HETATM   15  H   UNL     1     -42.251 -49.255   9.551  1.00  0.00     0.162 HD
BRANCH  14  16
HETATM   16  C   UNL     1     -43.097 -47.436  10.276  1.00  0.00     0.084 C 
HETATM   17  C   UNL     1     -44.228 -47.595   9.256  1.00  0.00     0.025 C 
HETATM   18  C   UNL     1     -44.589 -46.175   8.809  1.00  0.00     0.002 C 
HETATM   19  C   UNL     1     -43.671 -45.238   9.584  1.00  0.00     0.002 C 
HETATM   20  C   UNL     1     -42.462 -46.098   9.917  1.00  0.00     0.025 C 
ENDBRANCH  14  16
ENDBRANCH  11  12
ENDBRANCH   6  11
TORSDOF 3
ENDMDL
MODEL 3
REMARK VINA RESULT:      -5.5      3.632      6.412
REMARK  3 active torsions:
REMARK  status: ('A' for Active; 'I' for Inactive)
REMARK    1  A    between atoms: N_6  and  C_7 
REMARK    2  A    between atoms: C_7  and  C_8 
REMARK       I    between atoms: C_8  and  N_10 
REMARK    3  A    between atoms: N_10  and  C_11 
ROOT
HETATM    1 CL   UNL     1     -39.715 -46.944  11.548  1.00  0.00    -0.081 Cl
HETATM    2  C   UNL     1     -40.059 -48.611  11.762  1.00  0.00     0.078 A 
HETATM    3  C   UNL     1     -41.405 -49.065  11.399  1.00  0.00     0.133 A 
HETATM    4  N   UNL     1     -41.851 -50.273  11.518  1.00  0.00    -0.305 N 
ATOM      5  HN  UNL     1     -42.810 -50.514  11.269  1.00  0.00     0.186 HD
HETATM    6  N   UNL     1     -40.972 -51.219  11.998  1.00  0.00    -0.248 N 
HETATM    7  C   UNL     1     -39.659 -50.947  12.383  1.00  0.00     0.285 A 
HETATM    8  O   UNL     1     -38.898 -51.808  12.816  1.00  0.00    -0.265 OA
HETATM    9  C   UNL     1     -39.219 -49.528  12.245  1.00  0.00     0.126 A 
HETATM   10 CL   UNL     1     -37.604 -49.154  12.737  1.00  0.00    -0.076 Cl
ENDROOT
BRANCH   6  11
HETATM   11  C   UNL     1     -41.472 -52.595  12.061  1.00  0.00     0.255 C 
BRANCH  11  12
HETATM   12  C   UNL     1     -42.824 -52.745  12.759  1.00  0.00     0.237 C 
HETATM   13  O   UNL     1     -43.094 -52.103  13.772  1.00  0.00    -0.272 OA
HETATM   14  N   UNL     1     -43.699 -53.651  12.194  1.00  0.00    -0.355 N 
HETATM   15  H   UNL     1     -43.294 -54.319  11.548  1.00  0.00     0.162 HD
BRANCH  14  16
HETATM   16  C   UNL     1     -44.994 -53.927  12.776  1.00  0.00     0.084 C 
HETATM   17  C   UNL     1     -45.790 -52.660  13.104  1.00  0.00     0.025 C 
HETATM   18  C   UNL     1     -46.608 -52.993  14.355  1.00  0.00     0.002 C 
HETATM   19  C   UNL     1     -46.274 -54.437  14.709  1.00  0.00     0.002 C 
HETATM   20  C   UNL     1     -44.893 -54.654  14.110  1.00  0.00     0.025 C 
ENDBRANCH  14  16
ENDBRANCH  11  12
ENDBRANCH   6  11
TORSDOF 3
ENDMDL
MODEL 4
REMARK VINA RESULT:      -5.5      4.192      7.207
REMARK  3 active torsions:
REMARK  status: ('A' for Active; 'I' for Inactive)
REMARK    1  A    between atoms: N_6  and  C_7 
REMARK    2  A    between atoms: C_7  and  C_8 
REMARK       I    between atoms: C_8  and  N_10 
REMARK    3  A    between atoms: N_10  and  C_11 
ROOT
HETATM    1 CL   UNL     1     -43.794 -44.739   9.433  1.00  0.00    -0.081 Cl
HETATM    2  C   UNL     1     -42.764 -46.003   9.969  1.00  0.00     0.078 A 
HETATM    3  C   UNL     1     -43.225 -47.377   9.744  1.00  0.00     0.133 A 
HETATM    4  N   UNL     1     -42.599 -48.449  10.104  1.00  0.00    -0.305 N 
ATOM      5  HN  UNL     1     -42.991 -49.376   9.938  1.00  0.00     0.186 HD
HETATM    6  N   UNL     1     -41.380 -48.284  10.721  1.00  0.00    -0.248 N 
HETATM    7  C   UNL     1     -40.804 -47.045  11.003  1.00  0.00     0.285 A 
HETATM    8  O   UNL     1     -39.717 -46.925  11.563  1.00  0.00    -0.265 OA
HETATM    9  C   UNL     1     -41.592 -45.849  10.586  1.00  0.00     0.126 A 
HETATM   10 CL   UNL     1     -40.915 -44.298  10.942  1.00  0.00    -0.076 Cl
ENDROOT
BRANCH   6  11
HETATM   11  C   UNL     1     -40.653 -49.511  11.059  1.00  0.00     0.255 C 
BRANCH  11  12
HETATM   12  C   UNL     1     -41.229 -50.280  12.249  1.00  0.00     0.237 C 
HETATM   13  O   UNL     1     -40.971 -49.953  13.405  1.00  0.00    -0.272 OA
HETATM   14  N   UNL     1     -42.030 -51.361  11.940  1.00  0.00    -0.355 N 
HETATM   15  H   UNL     1     -41.958 -51.713  10.992  1.00  0.00     0.162 HD
BRANCH  14  16
HETATM   16  C   UNL     1     -42.604 -52.204  12.965  1.00  0.00     0.084 C 
HETATM   17  C   UNL     1     -41.614 -53.230  13.526  1.00  0.00     0.025 C 
HETATM   18  C   UNL     1     -42.447 -54.466  13.875  1.00  0.00     0.002 C 
HETATM   19  C   UNL     1     -43.889 -54.122  13.518  1.00  0.00     0.002 C 
HETATM   20  C   UNL     1     -43.758 -53.052  12.447  1.00  0.00     0.025 C 
ENDBRANCH  14  16
ENDBRANCH  11  12
ENDBRANCH   6  11
TORSDOF 3
ENDMDL
MODEL 5
REMARK VINA RESULT:      -5.4      1.905      2.443
REMARK  3 active torsions:
REMARK  status: ('A' for Active; 'I' for Inactive)
REMARK    1  A    between atoms: N_6  and  C_7 
REMARK    2  A    between atoms: C_7  and  C_8 
REMARK       I    between atoms: C_8  and  N_10 
REMARK    3  A    between atoms: N_10  and  C_11 
ROOT
HETATM    1 CL   UNL     1     -43.217 -54.627  14.233  1.00  0.00    -0.081 Cl
HETATM    2  C   UNL     1     -42.230 -53.437  13.490  1.00  0.00     0.078 A 
HETATM    3  C   UNL     1     -42.899 -52.467  12.617  1.00  0.00     0.133 A 
HETATM    4  N   UNL     1     -42.317 -51.522  11.954  1.00  0.00    -0.305 N 
ATOM      5  HN  UNL     1     -42.843 -50.897  11.343  1.00  0.00     0.186 HD
HETATM    6  N   UNL     1     -40.955 -51.398  12.110  1.00  0.00    -0.248 N 
HETATM    7  C   UNL     1     -40.176 -52.237  12.906  1.00  0.00     0.285 A 
HETATM    8  O   UNL     1     -38.959 -52.109  13.022  1.00  0.00    -0.265 OA
HETATM    9  C   UNL     1     -40.907 -53.323  13.621  1.00  0.00     0.126 A 
HETATM   10 CL   UNL     1     -39.966 -54.395  14.597  1.00  0.00    -0.076 Cl
ENDROOT
BRANCH   6  11
HETATM   11  C   UNL     1     -40.322 -50.279  11.407  1.00  0.00     0.255 C 
BRANCH  11  12
HETATM   12  C   UNL     1     -40.741 -48.897  11.909  1.00  0.00     0.237 C 
HETATM   13  O   UNL     1     -41.556 -48.770  12.821  1.00  0.00    -0.272 OA
HETATM   14  N   UNL     1     -40.167 -47.819  11.266  1.00  0.00    -0.355 N 
HETATM   15  H   UNL     1     -39.737 -48.012  10.369  1.00  0.00     0.162 HD
BRANCH  14  16
HETATM   16  C   UNL     1     -40.507 -46.455  11.608  1.00  0.00     0.084 C 
HETATM   17  C   UNL     1     -40.385 -45.490  10.426  1.00  0.00     0.025 C 
HETATM   18  C   UNL     1     -39.942 -44.151  11.025  1.00  0.00     0.002 C 
HETATM   19  C   UNL     1     -39.830 -44.375  12.529  1.00  0.00     0.002 C 
HETATM   20  C   UNL     1     -39.577 -45.868  12.662  1.00  0.00     0.025 C 
ENDBRANCH  14  16
ENDBRANCH  11  12
ENDBRANCH   6  11
TORSDOF 3
ENDMDL
MODEL 6
REMARK VINA RESULT:      -5.4      2.387      2.923
REMARK  3 active torsions:
REMARK  status: ('A' for Active; 'I' for Inactive)
REMARK    1  A    between atoms: N_6  and  C_7 
REMARK    2  A    between atoms: C_7  and  C_8 
REMARK       I    between atoms: C_8  and  N_10 
REMARK    3  A    between atoms: N_10  and  C_11 
ROOT
HETATM    1 CL   UNL     1     -45.650 -54.970  14.298  1.00  0.00    -0.081 Cl
HETATM    2  C   UNL     1     -44.186 -54.307  13.698  1.00  0.00     0.078 A 
HETATM    3  C   UNL     1     -44.282 -53.440  12.519  1.00  0.00     0.133 A 
HETATM    4  N   UNL     1     -43.287 -52.878  11.914  1.00  0.00    -0.305 N 
ATOM      5  HN  UNL     1     -43.425 -52.305  11.082  1.00  0.00     0.186 HD
HETATM    6  N   UNL     1     -42.034 -53.087  12.444  1.00  0.00    -0.248 N 
HETATM    7  C   UNL     1     -41.777 -53.883  13.561  1.00  0.00     0.285 A 
HETATM    8  O   UNL     1     -40.648 -54.060  14.010  1.00  0.00    -0.265 OA
HETATM    9  C   UNL     1     -42.967 -54.523  14.194  1.00  0.00     0.126 A 
HETATM   10 CL   UNL     1     -42.679 -55.534  15.567  1.00  0.00    -0.076 Cl
ENDROOT
BRANCH   6  11
HETATM   11  C   UNL     1     -40.927 -52.387  11.788  1.00  0.00     0.255 C 
BRANCH  11  12
HETATM   12  C   UNL     1     -40.773 -50.922  12.199  1.00  0.00     0.237 C 
HETATM   13  O   UNL     1     -41.634 -50.089  11.925  1.00  0.00    -0.272 OA
HETATM   14  N   UNL     1     -39.610 -50.601  12.870  1.00  0.00    -0.355 N 
HETATM   15  H   UNL     1     -38.856 -51.275  12.802  1.00  0.00     0.162 HD
BRANCH  14  16
HETATM   16  C   UNL     1     -39.313 -49.246  13.277  1.00  0.00     0.084 C 
HETATM   17  C   UNL     1     -37.818 -48.916  13.226  1.00  0.00     0.025 C 
HETATM   18  C   UNL     1     -37.570 -47.927  14.370  1.00  0.00     0.002 C 
HETATM   19  C   UNL     1     -38.921 -47.706  15.041  1.00  0.00     0.002 C 
HETATM   20  C   UNL     1     -39.702 -48.971  14.724  1.00  0.00     0.025 C 
ENDBRANCH  14  16
ENDBRANCH  11  12
ENDBRANCH   6  11
TORSDOF 3
ENDMDL
MODEL 7
REMARK VINA RESULT:      -5.3      1.189      2.024
REMARK  3 active torsions:
REMARK  status: ('A' for Active; 'I' for Inactive)
REMARK    1  A    between atoms: N_6  and  C_7 
REMARK    2  A    between atoms: C_7  and  C_8 
REMARK       I    between atoms: C_8  and  N_10 
REMARK    3  A    between atoms: N_10  and  C_11 
ROOT
HETATM    1 CL   UNL     1     -42.337 -55.800  16.297  1.00  0.00    -0.081 Cl
HETATM    2  C   UNL     1     -42.207 -54.709  14.979  1.00  0.00     0.078 A 
HETATM    3  C   UNL     1     -40.917 -54.035  14.798  1.00  0.00     0.133 A 
HETATM    4  N   UNL     1     -40.644 -53.164  13.883  1.00  0.00    -0.305 N 
ATOM      5  HN  UNL     1     -39.730 -52.714  13.830  1.00  0.00     0.186 HD
HETATM    6  N   UNL     1     -41.643 -52.870  12.982  1.00  0.00    -0.248 N 
HETATM    7  C   UNL     1     -42.921 -53.427  13.018  1.00  0.00     0.285 A 
HETATM    8  O   UNL     1     -43.798 -53.142  12.206  1.00  0.00    -0.265 OA
HETATM    9  C   UNL     1     -43.177 -54.404  14.116  1.00  0.00     0.126 A 
HETATM   10 CL   UNL     1     -44.759 -55.095  14.201  1.00  0.00    -0.076 Cl
ENDROOT
BRANCH   6  11
HETATM   11  C   UNL     1     -41.294 -51.933  11.910  1.00  0.00     0.255 C 
BRANCH  11  12
HETATM   12  C   UNL     1     -41.527 -50.462  12.255  1.00  0.00     0.237 C 
HETATM   13  O   UNL     1     -41.521 -50.071  13.421  1.00  0.00    -0.272 OA
HETATM   14  N   UNL     1     -41.762 -49.620  11.188  1.00  0.00    -0.355 N 
HETATM   15  H   UNL     1     -42.021 -50.067  10.315  1.00  0.00     0.162 HD
BRANCH  14  16
HETATM   16  C   UNL     1     -42.043 -48.213  11.371  1.00  0.00     0.084 C 
HETATM   17  C   UNL     1     -43.169 -47.700  10.468  1.00  0.00     0.025 C 
HETATM   18  C   UNL     1     -42.809 -46.249  10.136  1.00  0.00     0.002 C 
HETATM   19  C   UNL     1     -41.498 -45.960  10.858  1.00  0.00     0.002 C 
HETATM   20  C   UNL     1     -40.854 -47.328  11.017  1.00  0.00     0.025 C 
ENDBRANCH  14  16
ENDBRANCH  11  12
ENDBRANCH   6  11
TORSDOF 3
ENDMDL
MODEL 8
REMARK VINA RESULT:      -5.1      5.956      8.152
REMARK  3 active torsions:
REMARK  status: ('A' for Active; 'I' for Inactive)
REMARK    1  A    between atoms: N_6  and  C_7 
REMARK    2  A    between atoms: C_7  and  C_8 
REMARK       I    between atoms: C_8  and  N_10 
REMARK    3  A    between atoms: N_10  and  C_11 
ROOT
HETATM    1 CL   UNL     1     -42.559 -42.516  14.483  1.00  0.00    -0.081 Cl
HETATM    2  C   UNL     1     -42.141 -43.619  13.237  1.00  0.00     0.078 A 
HETATM    3  C   UNL     1     -42.690 -44.976  13.338  1.00  0.00     0.133 A 
HETATM    4  N   UNL     1     -42.462 -45.944  12.512  1.00  0.00    -0.305 N 
ATOM      5  HN  UNL     1     -42.858 -46.873  12.657  1.00  0.00     0.186 HD
HETATM    6  N   UNL     1     -41.662 -45.664  11.427  1.00  0.00    -0.248 N 
HETATM    7  C   UNL     1     -41.068 -44.425  11.188  1.00  0.00     0.285 A 
HETATM    8  O   UNL     1     -40.350 -44.204  10.216  1.00  0.00    -0.265 OA
HETATM    9  C   UNL     1     -41.350 -43.361  12.195  1.00  0.00     0.126 A 
HETATM   10 CL   UNL     1     -40.609 -41.820  11.940  1.00  0.00    -0.076 Cl
ENDROOT
BRANCH   6  11
HETATM   11  C   UNL     1     -41.471 -46.753  10.465  1.00  0.00     0.255 C 
BRANCH  11  12
HETATM   12  C   UNL     1     -41.050 -48.083  11.090  1.00  0.00     0.237 C 
HETATM   13  O   UNL     1     -41.878 -48.951  11.361  1.00  0.00    -0.272 OA
HETATM   14  N   UNL     1     -39.702 -48.233  11.344  1.00  0.00    -0.355 N 
HETATM   15  H   UNL     1     -39.151 -47.382  11.348  1.00  0.00     0.162 HD
BRANCH  14  16
HETATM   16  C   UNL     1     -39.170 -49.422  11.974  1.00  0.00     0.084 C 
HETATM   17  C   UNL     1     -38.838 -49.221  13.455  1.00  0.00     0.025 C 
HETATM   18  C   UNL     1     -37.623 -50.111  13.735  1.00  0.00     0.002 C 
HETATM   19  C   UNL     1     -37.293 -50.806  12.419  1.00  0.00     0.002 C 
HETATM   20  C   UNL     1     -37.851 -49.870  11.358  1.00  0.00     0.025 C 
ENDBRANCH  14  16
ENDBRANCH  11  12
ENDBRANCH   6  11
TORSDOF 3
ENDMDL
MODEL 9
REMARK VINA RESULT:      -5.1      3.923      6.815
REMARK  3 active torsions:
REMARK  status: ('A' for Active; 'I' for Inactive)
REMARK    1  A    between atoms: N_6  and  C_7 
REMARK    2  A    between atoms: C_7  and  C_8 
REMARK       I    between atoms: C_8  and  N_10 
REMARK    3  A    between atoms: N_10  and  C_11 
ROOT
HETATM    1 CL   UNL     1     -41.831 -44.890  10.638  1.00  0.00    -0.081 Cl
HETATM    2  C   UNL     1     -41.407 -46.500  11.052  1.00  0.00     0.078 A 
HETATM    3  C   UNL     1     -42.194 -47.574  10.437  1.00  0.00     0.133 A 
HETATM    4  N   UNL     1     -42.038 -48.839  10.652  1.00  0.00    -0.305 N 
ATOM      5  HN  UNL     1     -42.640 -49.533  10.208  1.00  0.00     0.186 HD
HETATM    6  N   UNL     1     -41.023 -49.208  11.506  1.00  0.00    -0.248 N 
HETATM    7  C   UNL     1     -40.186 -48.308  12.165  1.00  0.00     0.285 A 
HETATM    8  O   UNL     1     -39.291 -48.663  12.929  1.00  0.00    -0.265 OA
HETATM    9  C   UNL     1     -40.438 -46.863  11.894  1.00  0.00     0.126 A 
HETATM   10 CL   UNL     1     -39.432 -45.721  12.714  1.00  0.00    -0.076 Cl
ENDROOT
BRANCH   6  11
HETATM   11  C   UNL     1     -40.815 -50.648  11.683  1.00  0.00     0.255 C 
BRANCH  11  12
HETATM   12  C   UNL     1     -41.683 -51.283  12.771  1.00  0.00     0.237 C 
HETATM   13  O   UNL     1     -41.298 -51.347  13.936  1.00  0.00    -0.272 OA
HETATM   14  N   UNL     1     -42.899 -51.788  12.357  1.00  0.00    -0.355 N 
HETATM   15  H   UNL     1     -43.003 -51.938  11.360  1.00  0.00     0.162 HD
BRANCH  14  16
HETATM   16  C   UNL     1     -43.800 -52.455  13.271  1.00  0.00     0.084 C 
HETATM   17  C   UNL     1     -43.733 -53.982  13.174  1.00  0.00     0.025 C 
HETATM   18  C   UNL     1     -45.151 -54.481  13.469  1.00  0.00     0.002 C 
HETATM   19  C   UNL     1     -45.992 -53.238  13.736  1.00  0.00     0.002 C 
HETATM   20  C   UNL     1     -45.261 -52.131  12.992  1.00  0.00     0.025 C 
ENDBRANCH  14  16
ENDBRANCH  11  12
ENDBRANCH   6  11
TORSDOF 3
ENDMDL
