MODEL 1
REMARK VINA RESULT:      -6.5      0.000      0.000
REMARK  5 active torsions:
REMARK  status: ('A' for Active; 'I' for Inactive)
REMARK    1  A    between atoms: C_2  and  C_5 
REMARK    2  A    between atoms: C_8  and  C_9 
REMARK    3  A    between atoms: C_9  and  C_10 
REMARK    4  A    between atoms: C_10  and  N_11 
REMARK       I    between atoms: N_11  and  C_12 
REMARK    5  A    between atoms: C_12  and  C_14 
ROOT
HETATM    1  C   UNL     1     -42.253 -47.681  11.348  1.00  0.00     0.084 C 
ENDROOT
BRANCH   1   2
HETATM    2  C   UNL     1     -43.399 -47.384  10.428  1.00  0.00     0.052 A 
HETATM    3  S   UNL     1     -43.369 -45.949   9.480  1.00  0.00    -0.086 SA
HETATM    4  C   UNL     1     -44.873 -46.375   8.786  1.00  0.00     0.085 A 
HETATM    5  C   UNL     1     -45.323 -47.577   9.306  1.00  0.00     0.123 A 
HETATM    6  N   UNL     1     -44.465 -48.134  10.263  1.00  0.00    -0.350 N 
ATOM      7  HN  UNL     1     -44.644 -49.003  10.765  1.00  0.00     0.166 HD
BRANCH   5   8
HETATM    8  C   UNL     1     -46.601 -48.268   8.919  1.00  0.00     0.433 C 
HETATM    9  F   UNL     1     -47.669 -47.425   8.971  1.00  0.00    -0.165 F 
HETATM   10  F   UNL     1     -46.893 -49.308   9.742  1.00  0.00    -0.165 F 
HETATM   11  F   UNL     1     -46.559 -48.758   7.653  1.00  0.00    -0.165 F 
ENDBRANCH   5   8
ENDBRANCH   1   2
BRANCH   1  12
HETATM   12  C   UNL     1     -41.314 -48.759  10.800  1.00  0.00     0.129 C 
BRANCH  12  13
HETATM   13  N   UNL     1     -41.524 -50.041  11.456  1.00  0.00    -0.359 N 
HETATM   14  C   UNL     1     -40.479 -50.727  12.044  1.00  0.00     0.251 C 
HETATM   15  O   UNL     1     -39.338 -50.271  12.107  1.00  0.00    -0.271 OA
HETATM   16  H   UNL     1     -42.316 -50.618  11.189  1.00  0.00     0.162 HD
BRANCH  14  17
HETATM   17  C   UNL     1     -40.876 -52.044  12.723  1.00  0.00     0.311 C 
HETATM   18  C   UNL     1     -39.915 -52.450  13.832  1.00  0.00     0.047 C 
HETATM   19  C   UNL     1     -39.875 -53.972  13.788  1.00  0.00     0.033 C 
HETATM   20  C   UNL     1     -40.843 -54.366  12.685  1.00  0.00     0.271 C 
HETATM   21  N   UNL     1     -40.884 -53.200  11.795  1.00  0.00     0.097 N 
HETATM   22  H   UNL     1     -41.761 -53.212  11.275  1.00  0.00     0.317 HD
ENDBRANCH  14  17
ENDBRANCH  12  13
ENDBRANCH   1  12
TORSDOF 5
ENDMDL
MODEL 2
REMARK VINA RESULT:      -6.3      3.584      6.212
REMARK  5 active torsions:
REMARK  status: ('A' for Active; 'I' for Inactive)
REMARK    1  A    between atoms: C_2  and  C_5 
REMARK    2  A    between atoms: C_8  and  C_9 
REMARK    3  A    between atoms: C_9  and  C_10 
REMARK    4  A    between atoms: C_10  and  N_11 
REMARK       I    between atoms: N_11  and  C_12 
REMARK    5  A    between atoms: C_12  and  C_14 
ROOT
HETATM    1  C   UNL     1     -41.480 -51.894  11.821  1.00  0.00     0.084 C 
ENDROOT
BRANCH   1   2
HETATM    2  C   UNL     1     -42.670 -52.231  12.671  1.00  0.00     0.052 A 
HETATM    3  S   UNL     1     -42.490 -53.350  13.965  1.00  0.00    -0.086 SA
HETATM    4  C   UNL     1     -44.139 -53.146  14.370  1.00  0.00     0.085 A 
HETATM    5  C   UNL     1     -44.743 -52.246  13.508  1.00  0.00     0.123 A 
HETATM    6  N   UNL     1     -43.880 -51.743  12.525  1.00  0.00    -0.350 N 
ATOM      7  HN  UNL     1     -44.155 -51.086  11.795  1.00  0.00     0.166 HD
BRANCH   5   8
HETATM    8  C   UNL     1     -46.180 -51.810  13.570  1.00  0.00     0.433 C 
HETATM    9  F   UNL     1     -47.021 -52.864  13.765  1.00  0.00    -0.165 F 
HETATM   10  F   UNL     1     -46.584 -51.202  12.425  1.00  0.00    -0.165 F 
HETATM   11  F   UNL     1     -46.411 -50.941  14.588  1.00  0.00    -0.165 F 
ENDBRANCH   5   8
ENDBRANCH   1   2
BRANCH   1  12
HETATM   12  C   UNL     1     -40.963 -50.474  12.058  1.00  0.00     0.129 C 
BRANCH  12  13
HETATM   13  N   UNL     1     -41.510 -49.532  11.093  1.00  0.00    -0.359 N 
HETATM   14  C   UNL     1     -42.552 -48.687  11.422  1.00  0.00     0.251 C 
HETATM   15  O   UNL     1     -43.030 -48.634  12.554  1.00  0.00    -0.271 OA
HETATM   16  H   UNL     1     -41.409 -49.716  10.099  1.00  0.00     0.162 HD
BRANCH  14  17
HETATM   17  C   UNL     1     -42.985 -47.733  10.303  1.00  0.00     0.311 C 
HETATM   18  C   UNL     1     -44.493 -47.525  10.253  1.00  0.00     0.047 C 
HETATM   19  C   UNL     1     -44.824 -47.357   8.777  1.00  0.00     0.033 C 
HETATM   20  C   UNL     1     -43.490 -47.436   8.055  1.00  0.00     0.271 C 
HETATM   21  N   UNL     1     -42.632 -48.223   8.949  1.00  0.00     0.097 N 
HETATM   22  H   UNL     1     -41.657 -48.002   8.750  1.00  0.00     0.317 HD
ENDBRANCH  14  17
ENDBRANCH  12  13
ENDBRANCH   1  12
TORSDOF 5
ENDMDL
MODEL 3
REMARK VINA RESULT:      -6.3      2.006      2.323
REMARK  5 active torsions:
REMARK  status: ('A' for Active; 'I' for Inactive)
REMARK    1  A    between atoms: C_2  and  C_5 
REMARK    2  A    between atoms: C_8  and  C_9 
REMARK    3  A    between atoms: C_9  and  C_10 
REMARK    4  A    between atoms: C_10  and  N_11 
REMARK       I    between atoms: N_11  and  C_12 
REMARK    5  A    between atoms: C_12  and  C_14 
ROOT
HETATM    1  C   UNL     1     -40.495 -48.574  11.417  1.00  0.00     0.084 C 
ENDROOT
BRANCH   1   2
HETATM    2  C   UNL     1     -41.560 -47.739  10.772  1.00  0.00     0.052 A 
HETATM    3  S   UNL     1     -41.345 -46.035  10.663  1.00  0.00    -0.086 SA
HETATM    4  C   UNL     1     -42.846 -45.897   9.857  1.00  0.00     0.085 A 
HETATM    5  C   UNL     1     -43.436 -47.141   9.712  1.00  0.00     0.123 A 
HETATM    6  N   UNL     1     -42.684 -48.188  10.261  1.00  0.00    -0.350 N 
ATOM      7  HN  UNL     1     -42.970 -49.167  10.265  1.00  0.00     0.166 HD
BRANCH   5   8
HETATM    8  C   UNL     1     -44.753 -47.408   9.038  1.00  0.00     0.433 C 
HETATM    9  F   UNL     1     -45.380 -46.254   8.677  1.00  0.00    -0.165 F 
HETATM   10  F   UNL     1     -45.617 -48.078   9.843  1.00  0.00    -0.165 F 
HETATM   11  F   UNL     1     -44.612 -48.140   7.903  1.00  0.00    -0.165 F 
ENDBRANCH   5   8
ENDBRANCH   1   2
BRANCH   1  12
HETATM   12  C   UNL     1     -40.575 -50.050  11.021  1.00  0.00     0.129 C 
BRANCH  12  13
HETATM   13  N   UNL     1     -41.661 -50.735  11.706  1.00  0.00    -0.359 N 
HETATM   14  C   UNL     1     -41.494 -52.002  12.231  1.00  0.00     0.251 C 
HETATM   15  O   UNL     1     -40.415 -52.592  12.209  1.00  0.00    -0.271 OA
HETATM   16  H   UNL     1     -42.623 -50.482  11.502  1.00  0.00     0.162 HD
BRANCH  14  17
HETATM   17  C   UNL     1     -42.724 -52.565  12.952  1.00  0.00     0.311 C 
HETATM   18  C   UNL     1     -42.371 -53.641  13.971  1.00  0.00     0.047 C 
HETATM   19  C   UNL     1     -43.533 -54.623  13.934  1.00  0.00     0.033 C 
HETATM   20  C   UNL     1     -44.514 -54.045  12.929  1.00  0.00     0.271 C 
HETATM   21  N   UNL     1     -43.688 -53.222  12.038  1.00  0.00     0.097 N 
HETATM   22  H   UNL     1     -44.278 -52.515  11.601  1.00  0.00     0.317 HD
ENDBRANCH  14  17
ENDBRANCH  12  13
ENDBRANCH   1  12
TORSDOF 5
ENDMDL
MODEL 4
REMARK VINA RESULT:      -6.0      4.210      6.975
REMARK  5 active torsions:
REMARK  status: ('A' for Active; 'I' for Inactive)
REMARK    1  A    between atoms: C_2  and  C_5 
REMARK    2  A    between atoms: C_8  and  C_9 
REMARK    3  A    between atoms: C_9  and  C_10 
REMARK    4  A    between atoms: C_10  and  N_11 
REMARK       I    between atoms: N_11  and  C_12 
REMARK    5  A    between atoms: C_12  and  C_14 
ROOT
HETATM    1  C   UNL     1     -41.107 -52.292  13.508  1.00  0.00     0.084 C 
ENDROOT
BRANCH   1   2
HETATM    2  C   UNL     1     -42.086 -53.326  13.981  1.00  0.00     0.052 A 
HETATM    3  S   UNL     1     -41.554 -54.559  15.056  1.00  0.00    -0.086 SA
HETATM    4  C   UNL     1     -43.136 -55.207  15.095  1.00  0.00     0.085 A 
HETATM    5  C   UNL     1     -43.985 -54.462  14.295  1.00  0.00     0.123 A 
HETATM    6  N   UNL     1     -43.354 -53.391  13.649  1.00  0.00    -0.350 N 
ATOM      7  HN  UNL     1     -43.818 -52.748  13.006  1.00  0.00     0.166 HD
BRANCH   5   8
HETATM    8  C   UNL     1     -45.452 -54.727  14.098  1.00  0.00     0.433 C 
HETATM    9  F   UNL     1     -46.004 -53.870  13.195  1.00  0.00    -0.165 F 
HETATM   10  F   UNL     1     -46.160 -54.582  15.248  1.00  0.00    -0.165 F 
HETATM   11  F   UNL     1     -45.692 -55.981  13.635  1.00  0.00    -0.165 F 
ENDBRANCH   5   8
ENDBRANCH   1   2
BRANCH   1  12
HETATM   12  C   UNL     1     -41.146 -52.087  11.992  1.00  0.00     0.129 C 
BRANCH  12  13
HETATM   13  N   UNL     1     -41.686 -50.783  11.638  1.00  0.00    -0.359 N 
HETATM   14  C   UNL     1     -40.859 -49.707  11.381  1.00  0.00     0.251 C 
HETATM   15  O   UNL     1     -39.632 -49.801  11.371  1.00  0.00    -0.271 OA
HETATM   16  H   UNL     1     -42.630 -50.536  11.922  1.00  0.00     0.162 HD
BRANCH  14  17
HETATM   17  C   UNL     1     -41.586 -48.416  10.987  1.00  0.00     0.311 C 
HETATM   18  C   UNL     1     -42.929 -48.257  11.687  1.00  0.00     0.047 C 
HETATM   19  C   UNL     1     -43.826 -47.554  10.677  1.00  0.00     0.033 C 
HETATM   20  C   UNL     1     -42.946 -47.309   9.464  1.00  0.00     0.271 C 
HETATM   21  N   UNL     1     -41.909 -48.345   9.542  1.00  0.00     0.097 N 
HETATM   22  H   UNL     1     -41.089 -48.031   9.025  1.00  0.00     0.317 HD
ENDBRANCH  14  17
ENDBRANCH  12  13
ENDBRANCH   1  12
TORSDOF 5
ENDMDL
MODEL 5
REMARK VINA RESULT:      -5.9      3.630      4.200
REMARK  5 active torsions:
REMARK  status: ('A' for Active; 'I' for Inactive)
REMARK    1  A    between atoms: C_2  and  C_5 
REMARK    2  A    between atoms: C_8  and  C_9 
REMARK    3  A    between atoms: C_9  and  C_10 
REMARK    4  A    between atoms: C_10  and  N_11 
REMARK       I    between atoms: N_11  and  C_12 
REMARK    5  A    between atoms: C_12  and  C_14 
ROOT
HETATM    1  C   UNL     1     -41.397 -49.616  12.719  1.00  0.00     0.084 C 
ENDROOT
BRANCH   1   2
HETATM    2  C   UNL     1     -41.696 -48.583  11.673  1.00  0.00     0.052 A 
HETATM    3  S   UNL     1     -40.853 -47.083  11.705  1.00  0.00    -0.086 SA
HETATM    4  C   UNL     1     -41.696 -46.580  10.304  1.00  0.00     0.085 A 
HETATM    5  C   UNL     1     -42.572 -47.567   9.885  1.00  0.00     0.123 A 
HETATM    6  N   UNL     1     -42.567 -48.708  10.698  1.00  0.00    -0.350 N 
ATOM      7  HN  UNL     1     -43.160 -49.525  10.554  1.00  0.00     0.166 HD
BRANCH   5   8
HETATM    8  C   UNL     1     -43.467 -47.482   8.679  1.00  0.00     0.433 C 
HETATM    9  F   UNL     1     -44.726 -47.923   8.952  1.00  0.00    -0.165 F 
HETATM   10  F   UNL     1     -43.011 -48.236   7.646  1.00  0.00    -0.165 F 
HETATM   11  F   UNL     1     -43.596 -46.210   8.222  1.00  0.00    -0.165 F 
ENDBRANCH   5   8
ENDBRANCH   1   2
BRANCH   1  12
HETATM   12  C   UNL     1     -41.825 -51.024  12.303  1.00  0.00     0.129 C 
BRANCH  12  13
HETATM   13  N   UNL     1     -43.208 -51.298  12.667  1.00  0.00    -0.359 N 
HETATM   14  C   UNL     1     -43.666 -52.590  12.833  1.00  0.00     0.251 C 
HETATM   15  O   UNL     1     -42.928 -53.571  12.749  1.00  0.00    -0.271 OA
HETATM   16  H   UNL     1     -43.928 -50.615  12.452  1.00  0.00     0.162 HD
BRANCH  14  17
HETATM   17  C   UNL     1     -45.137 -52.702  13.251  1.00  0.00     0.311 C 
HETATM   18  C   UNL     1     -45.813 -51.346  13.404  1.00  0.00     0.047 C 
HETATM   19  C   UNL     1     -46.806 -51.521  14.544  1.00  0.00     0.033 C 
HETATM   20  C   UNL     1     -46.681 -52.976  14.964  1.00  0.00     0.271 C 
HETATM   21  N   UNL     1     -45.322 -53.360  14.566  1.00  0.00     0.097 N 
HETATM   22  H   UNL     1     -45.286 -54.372  14.448  1.00  0.00     0.317 HD
ENDBRANCH  14  17
ENDBRANCH  12  13
ENDBRANCH   1  12
TORSDOF 5
ENDMDL
MODEL 6
REMARK VINA RESULT:      -5.6      5.847      7.563
REMARK  5 active torsions:
REMARK  status: ('A' for Active; 'I' for Inactive)
REMARK    1  A    between atoms: C_2  and  C_5 
REMARK    2  A    between atoms: C_8  and  C_9 
REMARK    3  A    between atoms: C_9  and  C_10 
REMARK    4  A    between atoms: C_10  and  N_11 
REMARK       I    between atoms: N_11  and  C_12 
REMARK    5  A    between atoms: C_12  and  C_14 
ROOT
HETATM    1  C   UNL     1     -41.184 -53.352  14.122  1.00  0.00     0.084 C 
ENDROOT
BRANCH   1   2
HETATM    2  C   UNL     1     -40.560 -52.269  13.293  1.00  0.00     0.052 A 
HETATM    3  S   UNL     1     -41.553 -51.331  12.246  1.00  0.00    -0.086 SA
HETATM    4  C   UNL     1     -40.187 -50.421  11.766  1.00  0.00     0.085 A 
HETATM    5  C   UNL     1     -39.051 -50.871  12.418  1.00  0.00     0.123 A 
HETATM    6  N   UNL     1     -39.287 -51.948  13.282  1.00  0.00    -0.350 N 
ATOM      7  HN  UNL     1     -38.566 -52.420  13.829  1.00  0.00     0.166 HD
BRANCH   5   8
HETATM    8  C   UNL     1     -37.670 -50.298  12.256  1.00  0.00     0.433 C 
HETATM    9  F   UNL     1     -36.705 -51.213  12.551  1.00  0.00    -0.165 F 
HETATM   10  F   UNL     1     -37.454 -49.235  13.073  1.00  0.00    -0.165 F 
HETATM   11  F   UNL     1     -37.430 -49.883  10.986  1.00  0.00    -0.165 F 
ENDBRANCH   5   8
ENDBRANCH   1   2
BRANCH   1  12
HETATM   12  C   UNL     1     -42.418 -53.970  13.460  1.00  0.00     0.129 C 
BRANCH  12  13
HETATM   13  N   UNL     1     -43.649 -53.536  14.102  1.00  0.00    -0.359 N 
HETATM   14  C   UNL     1     -44.885 -53.826  13.558  1.00  0.00     0.251 C 
HETATM   15  O   UNL     1     -45.020 -54.516  12.548  1.00  0.00    -0.271 OA
HETATM   16  H   UNL     1     -43.636 -52.733  14.724  1.00  0.00     0.162 HD
BRANCH  14  17
HETATM   17  C   UNL     1     -46.082 -53.328  14.377  1.00  0.00     0.311 C 
HETATM   18  C   UNL     1     -46.476 -51.897  14.038  1.00  0.00     0.047 C 
HETATM   19  C   UNL     1     -46.963 -51.295  15.349  1.00  0.00     0.033 C 
HETATM   20  C   UNL     1     -46.864 -52.419  16.367  1.00  0.00     0.271 C 
HETATM   21  N   UNL     1     -45.822 -53.307  15.837  1.00  0.00     0.097 N 
HETATM   22  H   UNL     1     -45.959 -54.241  16.220  1.00  0.00     0.317 HD
ENDBRANCH  14  17
ENDBRANCH  12  13
ENDBRANCH   1  12
TORSDOF 5
ENDMDL
MODEL 7
REMARK VINA RESULT:      -5.6      4.469      6.302
REMARK  5 active torsions:
REMARK  status: ('A' for Active; 'I' for Inactive)
REMARK    1  A    between atoms: C_2  and  C_5 
REMARK    2  A    between atoms: C_8  and  C_9 
REMARK    3  A    between atoms: C_9  and  C_10 
REMARK    4  A    between atoms: C_10  and  N_11 
REMARK       I    between atoms: N_11  and  C_12 
REMARK    5  A    between atoms: C_12  and  C_14 
ROOT
HETATM    1  C   UNL     1     -42.478 -54.235  14.605  1.00  0.00     0.084 C 
ENDROOT
BRANCH   1   2
HETATM    2  C   UNL     1     -43.935 -53.882  14.568  1.00  0.00     0.052 A 
HETATM    3  S   UNL     1     -45.068 -55.041  13.992  1.00  0.00    -0.086 SA
HETATM    4  C   UNL     1     -46.344 -53.942  14.289  1.00  0.00     0.085 A 
HETATM    5  C   UNL     1     -45.851 -52.756  14.806  1.00  0.00     0.123 A 
HETATM    6  N   UNL     1     -44.457 -52.737  14.943  1.00  0.00    -0.350 N 
ATOM      7  HN  UNL     1     -43.920 -51.942  15.288  1.00  0.00     0.166 HD
BRANCH   5   8
HETATM    8  C   UNL     1     -46.682 -51.567  15.202  1.00  0.00     0.433 C 
HETATM    9  F   UNL     1     -47.218 -50.940  14.118  1.00  0.00    -0.165 F 
HETATM   10  F   UNL     1     -45.958 -50.631  15.867  1.00  0.00    -0.165 F 
HETATM   11  F   UNL     1     -47.725 -51.910  16.001  1.00  0.00    -0.165 F 
ENDBRANCH   5   8
ENDBRANCH   1   2
BRANCH   1  12
HETATM   12  C   UNL     1     -41.822 -54.199  13.223  1.00  0.00     0.129 C 
BRANCH  12  13
HETATM   13  N   UNL     1     -41.512 -52.839  12.808  1.00  0.00    -0.359 N 
HETATM   14  C   UNL     1     -40.245 -52.311  12.961  1.00  0.00     0.251 C 
HETATM   15  O   UNL     1     -39.299 -52.971  13.390  1.00  0.00    -0.271 OA
HETATM   16  H   UNL     1     -42.256 -52.150  12.749  1.00  0.00     0.162 HD
BRANCH  14  17
HETATM   17  C   UNL     1     -40.078 -50.879  12.440  1.00  0.00     0.311 C 
HETATM   18  C   UNL     1     -40.673 -49.836  13.376  1.00  0.00     0.047 C 
HETATM   19  C   UNL     1     -41.206 -48.739  12.465  1.00  0.00     0.033 C 
HETATM   20  C   UNL     1     -40.856 -49.184  11.055  1.00  0.00     0.271 C 
HETATM   21  N   UNL     1     -40.757 -50.646  11.143  1.00  0.00     0.097 N 
HETATM   22  H   UNL     1     -40.166 -50.983  10.384  1.00  0.00     0.317 HD
ENDBRANCH  14  17
ENDBRANCH  12  13
ENDBRANCH   1  12
TORSDOF 5
ENDMDL
MODEL 8
REMARK VINA RESULT:      -5.6      4.698      7.597
REMARK  5 active torsions:
REMARK  status: ('A' for Active; 'I' for Inactive)
REMARK    1  A    between atoms: C_2  and  C_5 
REMARK    2  A    between atoms: C_8  and  C_9 
REMARK    3  A    between atoms: C_9  and  C_10 
REMARK    4  A    between atoms: C_10  and  N_11 
REMARK       I    between atoms: N_11  and  C_12 
REMARK    5  A    between atoms: C_12  and  C_14 
ROOT
HETATM    1  C   UNL     1     -37.803 -49.663  13.471  1.00  0.00     0.084 C 
ENDROOT
BRANCH   1   2
HETATM    2  C   UNL     1     -38.455 -50.844  14.126  1.00  0.00     0.052 A 
HETATM    3  S   UNL     1     -38.813 -50.783  15.808  1.00  0.00    -0.086 SA
HETATM    4  C   UNL     1     -39.489 -52.352  15.720  1.00  0.00     0.085 A 
HETATM    5  C   UNL     1     -39.409 -52.843  14.428  1.00  0.00     0.123 A 
HETATM    6  N   UNL     1     -38.794 -51.963  13.528  1.00  0.00    -0.350 N 
ATOM      7  HN  UNL     1     -38.632 -52.163  12.541  1.00  0.00     0.166 HD
BRANCH   5   8
HETATM    8  C   UNL     1     -39.917 -54.183  13.972  1.00  0.00     0.433 C 
HETATM    9  F   UNL     1     -40.709 -54.770  14.912  1.00  0.00    -0.165 F 
HETATM   10  F   UNL     1     -38.909 -55.056  13.719  1.00  0.00    -0.165 F 
HETATM   11  F   UNL     1     -40.664 -54.094  12.841  1.00  0.00    -0.165 F 
ENDBRANCH   5   8
ENDBRANCH   1   2
BRANCH   1  12
HETATM   12  C   UNL     1     -37.975 -49.656  11.950  1.00  0.00     0.129 C 
BRANCH  12  13
HETATM   13  N   UNL     1     -39.042 -48.759  11.532  1.00  0.00    -0.359 N 
HETATM   14  C   UNL     1     -40.330 -49.217  11.331  1.00  0.00     0.251 C 
HETATM   15  O   UNL     1     -40.662 -50.380  11.555  1.00  0.00    -0.271 OA
HETATM   16  H   UNL     1     -38.813 -47.902  11.038  1.00  0.00     0.162 HD
BRANCH  14  17
HETATM   17  C   UNL     1     -41.341 -48.137  10.928  1.00  0.00     0.311 C 
HETATM   18  C   UNL     1     -42.597 -48.152  11.789  1.00  0.00     0.047 C 
HETATM   19  C   UNL     1     -43.727 -47.748  10.852  1.00  0.00     0.033 C 
HETATM   20  C   UNL     1     -43.062 -47.482   9.513  1.00  0.00     0.271 C 
HETATM   21  N   UNL     1     -41.839 -48.292   9.540  1.00  0.00     0.097 N 
HETATM   22  H   UNL     1     -41.163 -47.892   8.890  1.00  0.00     0.317 HD
ENDBRANCH  14  17
ENDBRANCH  12  13
ENDBRANCH   1  12
TORSDOF 5
ENDMDL
MODEL 9
REMARK VINA RESULT:      -5.6      4.153      5.121
REMARK  5 active torsions:
REMARK  status: ('A' for Active; 'I' for Inactive)
REMARK    1  A    between atoms: C_2  and  C_5 
REMARK    2  A    between atoms: C_8  and  C_9 
REMARK    3  A    between atoms: C_9  and  C_10 
REMARK    4  A    between atoms: C_10  and  N_11 
REMARK       I    between atoms: N_11  and  C_12 
REMARK    5  A    between atoms: C_12  and  C_14 
ROOT
HETATM    1  C   UNL     1     -40.915 -51.699  12.540  1.00  0.00     0.084 C 
ENDROOT
BRANCH   1   2
HETATM    2  C   UNL     1     -40.940 -50.292  12.019  1.00  0.00     0.052 A 
HETATM    3  S   UNL     1     -39.606 -49.254  12.335  1.00  0.00    -0.086 SA
HETATM    4  C   UNL     1     -40.371 -48.003  11.455  1.00  0.00     0.085 A 
HETATM    5  C   UNL     1     -41.595 -48.431  10.968  1.00  0.00     0.123 A 
HETATM    6  N   UNL     1     -41.910 -49.750  11.319  1.00  0.00    -0.350 N 
ATOM      7  HN  UNL     1     -42.777 -50.225  11.066  1.00  0.00     0.166 HD
BRANCH   5   8
HETATM    8  C   UNL     1     -42.538 -47.607  10.137  1.00  0.00     0.433 C 
HETATM    9  F   UNL     1     -42.106 -46.322  10.004  1.00  0.00    -0.165 F 
HETATM   10  F   UNL     1     -43.780 -47.540  10.681  1.00  0.00    -0.165 F 
HETATM   11  F   UNL     1     -42.678 -48.097   8.878  1.00  0.00    -0.165 F 
ENDBRANCH   5   8
ENDBRANCH   1   2
BRANCH   1  12
HETATM   12  C   UNL     1     -42.154 -52.503  12.139  1.00  0.00     0.129 C 
BRANCH  12  13
HETATM   13  N   UNL     1     -43.213 -52.394  13.132  1.00  0.00    -0.359 N 
HETATM   14  C   UNL     1     -44.319 -53.221  13.097  1.00  0.00     0.251 C 
HETATM   15  O   UNL     1     -44.442 -54.129  12.276  1.00  0.00    -0.271 OA
HETATM   16  H   UNL     1     -43.352 -51.517  13.623  1.00  0.00     0.162 HD
BRANCH  14  17
HETATM   17  C   UNL     1     -45.323 -53.000  14.235  1.00  0.00     0.311 C 
HETATM   18  C   UNL     1     -46.533 -52.181  13.805  1.00  0.00     0.047 C 
HETATM   19  C   UNL     1     -46.914 -51.361  15.030  1.00  0.00     0.033 C 
HETATM   20  C   UNL     1     -45.933 -51.776  16.112  1.00  0.00     0.271 C 
HETATM   21  N   UNL     1     -44.753 -52.250  15.379  1.00  0.00     0.097 N 
HETATM   22  H   UNL     1     -44.228 -52.888  15.976  1.00  0.00     0.317 HD
ENDBRANCH  14  17
ENDBRANCH  12  13
ENDBRANCH   1  12
TORSDOF 5
ENDMDL
