MODEL 1
REMARK VINA RESULT:      -6.4      0.000      0.000
REMARK  5 active torsions:
REMARK  status: ('A' for Active; 'I' for Inactive)
REMARK    1  A    between atoms: C_5  and  N_8 
REMARK       I    between atoms: N_8  and  C_9 
REMARK       I    between atoms: C_9  and  N_11 
REMARK    2  A    between atoms: N_11  and  C_12 
REMARK    3  A    between atoms: C_16  and  O_17 
REMARK    4  A    between atoms: O_17  and  C_18 
REMARK    5  A    between atoms: C_18  and  C_19 
ROOT
HETATM    1  N   UNL     1     -41.230 -51.154  12.417  1.00  0.00    -0.338 N 
HETATM    2  C   UNL     1     -41.765 -49.896  12.232  1.00  0.00     0.322 C 
HETATM    3  O   UNL     1     -42.449 -49.338  13.079  1.00  0.00    -0.247 OA
HETATM    4  N   UNL     1     -41.489 -49.407  10.977  1.00  0.00    -0.295 N 
HETATM    5  H   UNL     1     -40.333 -51.312  11.976  1.00  0.00     0.164 HD
HETATM    6  H   UNL     1     -41.503 -50.098  10.242  1.00  0.00     0.172 HD
ENDROOT
BRANCH   4   7
HETATM    7  C   UNL     1     -41.988 -48.164  10.563  1.00  0.00     0.110 A 
HETATM    8  C   UNL     1     -41.212 -47.011  10.667  1.00  0.00     0.049 A 
HETATM    9  C   UNL     1     -41.759 -45.796  10.276  1.00  0.00     0.008 A 
HETATM   10  C   UNL     1     -43.065 -45.767   9.810  1.00  0.00     0.056 A 
HETATM   11  C   UNL     1     -43.761 -46.965   9.747  1.00  0.00     0.143 A 
HETATM   12  N   UNL     1     -43.243 -48.170  10.065  1.00  0.00    -0.323 N 
ATOM     13  HN  UNL     1     -43.768 -49.036   9.937  1.00  0.00     0.169 HD
BRANCH  11  14
HETATM   14  O   UNL     1     -45.059 -46.891   9.289  1.00  0.00    -0.330 OA
BRANCH  14  15
HETATM   15  C   UNL     1     -45.383 -47.991   8.430  1.00  0.00     0.248 C 
BRANCH  15  16
HETATM   16  C   UNL     1     -46.838 -48.367   8.649  1.00  0.00     0.377 C 
HETATM   17  F   UNL     1     -46.925 -49.393   9.532  1.00  0.00    -0.212 F 
HETATM   18  F   UNL     1     -47.509 -47.324   9.206  1.00  0.00    -0.212 F 
ENDBRANCH  15  16
ENDBRANCH  14  15
ENDBRANCH  11  14
ENDBRANCH   4   7
BRANCH   1  19
HETATM   19  C   UNL     1     -41.537 -51.897  13.638  1.00  0.00     0.089 C 
HETATM   20  C   UNL     1     -40.412 -51.816  14.679  1.00  0.00     0.055 C 
HETATM   21  C   UNL     1     -39.242 -52.738  14.334  1.00  0.00     0.274 C 
HETATM   22  N   UNL     1     -39.630 -54.129  14.072  1.00  0.00     0.084 N 
HETATM   23  C   UNL     1     -39.987 -54.848  15.296  1.00  0.00     0.309 C 
HETATM   24  C   UNL     1     -40.678 -54.211  13.050  1.00  0.00     0.274 C 
HETATM   25  C   UNL     1     -41.909 -53.351  13.335  1.00  0.00     0.055 C 
ENDBRANCH   1  19
TORSDOF 5
ENDMDL
MODEL 2
REMARK VINA RESULT:      -6.4      3.122      6.860
REMARK  5 active torsions:
REMARK  status: ('A' for Active; 'I' for Inactive)
REMARK    1  A    between atoms: C_5  and  N_8 
REMARK       I    between atoms: N_8  and  C_9 
REMARK       I    between atoms: C_9  and  N_11 
REMARK    2  A    between atoms: N_11  and  C_12 
REMARK    3  A    between atoms: C_16  and  O_17 
REMARK    4  A    between atoms: O_17  and  C_18 
REMARK    5  A    between atoms: C_18  and  C_19 
ROOT
HETATM    1  N   UNL     1     -41.424 -48.594  11.754  1.00  0.00    -0.338 N 
HETATM    2  C   UNL     1     -42.037 -49.646  12.403  1.00  0.00     0.322 C 
HETATM    3  O   UNL     1     -42.658 -49.507  13.447  1.00  0.00    -0.247 OA
HETATM    4  N   UNL     1     -41.796 -50.842  11.768  1.00  0.00    -0.295 N 
HETATM    5  H   UNL     1     -41.406 -48.659  10.744  1.00  0.00     0.164 HD
HETATM    6  H   UNL     1     -40.871 -50.933  11.374  1.00  0.00     0.172 HD
ENDROOT
BRANCH   4   7
HETATM    7  C   UNL     1     -42.283 -52.047  12.294  1.00  0.00     0.110 A 
HETATM    8  C   UNL     1     -41.413 -53.004  12.814  1.00  0.00     0.049 A 
HETATM    9  C   UNL     1     -41.938 -54.196  13.294  1.00  0.00     0.008 A 
HETATM   10  C   UNL     1     -43.307 -54.403  13.226  1.00  0.00     0.056 A 
HETATM   11  C   UNL     1     -44.093 -53.395  12.687  1.00  0.00     0.143 A 
HETATM   12  N   UNL     1     -43.624 -52.202  12.263  1.00  0.00    -0.323 N 
ATOM     13  HN  UNL     1     -44.245 -51.461  11.939  1.00  0.00     0.169 HD
BRANCH  11  14
HETATM   14  O   UNL     1     -45.447 -53.644  12.628  1.00  0.00    -0.330 OA
BRANCH  14  15
HETATM   15  C   UNL     1     -46.214 -52.440  12.745  1.00  0.00     0.248 C 
BRANCH  15  16
HETATM   16  C   UNL     1     -46.542 -52.213  14.210  1.00  0.00     0.377 C 
HETATM   17  F   UNL     1     -47.205 -51.038  14.361  1.00  0.00    -0.212 F 
HETATM   18  F   UNL     1     -47.381 -53.185  14.655  1.00  0.00    -0.212 F 
ENDBRANCH  15  16
ENDBRANCH  14  15
ENDBRANCH  11  14
ENDBRANCH   4   7
BRANCH   1  19
HETATM   19  C   UNL     1     -41.448 -47.262  12.356  1.00  0.00     0.089 C 
HETATM   20  C   UNL     1     -42.544 -46.364  11.767  1.00  0.00     0.055 C 
HETATM   21  C   UNL     1     -42.157 -45.808  10.396  1.00  0.00     0.274 C 
HETATM   22  N   UNL     1     -40.848 -45.146  10.364  1.00  0.00     0.084 N 
HETATM   23  C   UNL     1     -40.870 -43.837  11.017  1.00  0.00     0.309 C 
HETATM   24  C   UNL     1     -39.793 -46.015  10.891  1.00  0.00     0.274 C 
HETATM   25  C   UNL     1     -40.077 -46.585  12.282  1.00  0.00     0.055 C 
ENDBRANCH   1  19
TORSDOF 5
ENDMDL
MODEL 3
REMARK VINA RESULT:      -6.3      1.857      2.508
REMARK  5 active torsions:
REMARK  status: ('A' for Active; 'I' for Inactive)
REMARK    1  A    between atoms: C_5  and  N_8 
REMARK       I    between atoms: N_8  and  C_9 
REMARK       I    between atoms: C_9  and  N_11 
REMARK    2  A    between atoms: N_11  and  C_12 
REMARK    3  A    between atoms: C_16  and  O_17 
REMARK    4  A    between atoms: O_17  and  C_18 
REMARK    5  A    between atoms: C_18  and  C_19 
ROOT
HETATM    1  N   UNL     1     -42.336 -51.314  12.901  1.00  0.00    -0.338 N 
HETATM    2  C   UNL     1     -42.497 -49.987  12.559  1.00  0.00     0.322 C 
HETATM    3  O   UNL     1     -43.265 -49.241  13.149  1.00  0.00    -0.247 OA
HETATM    4  N   UNL     1     -41.750 -49.656  11.452  1.00  0.00    -0.295 N 
HETATM    5  H   UNL     1     -41.405 -51.687  12.762  1.00  0.00     0.164 HD
HETATM    6  H   UNL     1     -41.693 -50.377  10.749  1.00  0.00     0.172 HD
ENDROOT
BRANCH   4   7
HETATM    7  C   UNL     1     -41.811 -48.367  10.903  1.00  0.00     0.110 A 
HETATM    8  C   UNL     1     -40.825 -47.423  11.184  1.00  0.00     0.049 A 
HETATM    9  C   UNL     1     -40.944 -46.148  10.645  1.00  0.00     0.008 A 
HETATM   10  C   UNL     1     -42.047 -45.852   9.859  1.00  0.00     0.056 A 
HETATM   11  C   UNL     1     -42.979 -46.855   9.639  1.00  0.00     0.143 A 
HETATM   12  N   UNL     1     -42.867 -48.120  10.100  1.00  0.00    -0.323 N 
ATOM     13  HN  UNL     1     -43.541 -48.846   9.855  1.00  0.00     0.169 HD
BRANCH  11  14
HETATM   14  O   UNL     1     -44.066 -46.517   8.862  1.00  0.00    -0.330 OA
BRANCH  14  15
HETATM   15  C   UNL     1     -44.772 -47.676   8.402  1.00  0.00     0.248 C 
BRANCH  15  16
HETATM   16  C   UNL     1     -46.142 -47.701   9.054  1.00  0.00     0.377 C 
HETATM   17  F   UNL     1     -46.775 -46.517   8.852  1.00  0.00    -0.212 F 
HETATM   18  F   UNL     1     -46.918 -48.654   8.472  1.00  0.00    -0.212 F 
ENDBRANCH  15  16
ENDBRANCH  14  15
ENDBRANCH  11  14
ENDBRANCH   4   7
BRANCH   1  19
HETATM   19  C   UNL     1     -43.156 -51.890  13.966  1.00  0.00     0.089 C 
HETATM   20  C   UNL     1     -42.718 -53.309  14.349  1.00  0.00     0.055 C 
HETATM   21  C   UNL     1     -43.190 -54.351  13.334  1.00  0.00     0.274 C 
HETATM   22  N   UNL     1     -44.627 -54.295  13.039  1.00  0.00     0.084 N 
HETATM   23  C   UNL     1     -45.440 -54.824  14.134  1.00  0.00     0.309 C 
HETATM   24  C   UNL     1     -45.040 -52.948  12.635  1.00  0.00     0.274 C 
HETATM   25  C   UNL     1     -44.646 -51.844  13.617  1.00  0.00     0.055 C 
ENDBRANCH   1  19
TORSDOF 5
ENDMDL
MODEL 4
REMARK VINA RESULT:      -6.1      3.607      7.150
REMARK  5 active torsions:
REMARK  status: ('A' for Active; 'I' for Inactive)
REMARK    1  A    between atoms: C_5  and  N_8 
REMARK       I    between atoms: N_8  and  C_9 
REMARK       I    between atoms: C_9  and  N_11 
REMARK    2  A    between atoms: N_11  and  C_12 
REMARK    3  A    between atoms: C_16  and  O_17 
REMARK    4  A    between atoms: O_17  and  C_18 
REMARK    5  A    between atoms: C_18  and  C_19 
ROOT
HETATM    1  N   UNL     1     -41.486 -48.364  11.383  1.00  0.00    -0.338 N 
HETATM    2  C   UNL     1     -42.042 -49.461  12.009  1.00  0.00     0.322 C 
HETATM    3  O   UNL     1     -42.964 -49.370  12.807  1.00  0.00    -0.247 OA
HETATM    4  N   UNL     1     -41.385 -50.622  11.674  1.00  0.00    -0.295 N 
HETATM    5  H   UNL     1     -41.150 -48.527  10.442  1.00  0.00     0.164 HD
HETATM    6  H   UNL     1     -40.386 -50.527  11.568  1.00  0.00     0.172 HD
ENDROOT
BRANCH   4   7
HETATM    7  C   UNL     1     -41.756 -51.848  12.244  1.00  0.00     0.110 A 
HETATM    8  C   UNL     1     -40.823 -52.637  12.916  1.00  0.00     0.049 A 
HETATM    9  C   UNL     1     -41.228 -53.859  13.436  1.00  0.00     0.008 A 
HETATM   10  C   UNL     1     -42.542 -54.263  13.255  1.00  0.00     0.056 A 
HETATM   11  C   UNL     1     -43.397 -53.413  12.569  1.00  0.00     0.143 A 
HETATM   12  N   UNL     1     -43.053 -52.195  12.100  1.00  0.00    -0.323 N 
ATOM     13  HN  UNL     1     -43.732 -51.572  11.662  1.00  0.00     0.169 HD
BRANCH  11  14
HETATM   14  O   UNL     1     -44.691 -53.856  12.402  1.00  0.00    -0.330 OA
BRANCH  14  15
HETATM   15  C   UNL     1     -45.553 -53.387  13.446  1.00  0.00     0.248 C 
BRANCH  15  16
HETATM   16  C   UNL     1     -46.013 -54.577  14.268  1.00  0.00     0.377 C 
HETATM   17  F   UNL     1     -45.633 -55.733  13.667  1.00  0.00    -0.212 F 
HETATM   18  F   UNL     1     -45.409 -54.563  15.486  1.00  0.00    -0.212 F 
ENDBRANCH  15  16
ENDBRANCH  14  15
ENDBRANCH  11  14
ENDBRANCH   4   7
BRANCH   1  19
HETATM   19  C   UNL     1     -41.958 -47.023  11.723  1.00  0.00     0.089 C 
HETATM   20  C   UNL     1     -41.854 -46.043  10.547  1.00  0.00     0.055 C 
HETATM   21  C   UNL     1     -40.421 -45.554  10.331  1.00  0.00     0.274 C 
HETATM   22  N   UNL     1     -39.781 -45.014  11.536  1.00  0.00     0.084 N 
HETATM   23  C   UNL     1     -40.300 -43.695  11.898  1.00  0.00     0.309 C 
HETATM   24  C   UNL     1     -39.846 -45.964  12.650  1.00  0.00     0.274 C 
HETATM   25  C   UNL     1     -41.252 -46.475  12.966  1.00  0.00     0.055 C 
ENDBRANCH   1  19
TORSDOF 5
ENDMDL
MODEL 5
REMARK VINA RESULT:      -5.5      3.189      4.016
REMARK  5 active torsions:
REMARK  status: ('A' for Active; 'I' for Inactive)
REMARK    1  A    between atoms: C_5  and  N_8 
REMARK       I    between atoms: N_8  and  C_9 
REMARK       I    between atoms: C_9  and  N_11 
REMARK    2  A    between atoms: N_11  and  C_12 
REMARK    3  A    between atoms: C_16  and  O_17 
REMARK    4  A    between atoms: O_17  and  C_18 
REMARK    5  A    between atoms: C_18  and  C_19 
ROOT
HETATM    1  N   UNL     1     -42.033 -50.577  12.253  1.00  0.00    -0.338 N 
HETATM    2  C   UNL     1     -42.493 -49.299  12.015  1.00  0.00     0.322 C 
HETATM    3  O   UNL     1     -43.092 -48.645  12.857  1.00  0.00    -0.247 OA
HETATM    4  N   UNL     1     -42.253 -48.907  10.718  1.00  0.00    -0.295 N 
HETATM    5  H   UNL     1     -41.173 -50.823  11.779  1.00  0.00     0.164 HD
HETATM    6  H   UNL     1     -42.353 -49.639  10.031  1.00  0.00     0.172 HD
ENDROOT
BRANCH   4   7
HETATM    7  C   UNL     1     -42.691 -47.660  10.251  1.00  0.00     0.110 A 
HETATM    8  C   UNL     1     -43.397 -47.552   9.055  1.00  0.00     0.049 A 
HETATM    9  C   UNL     1     -43.782 -46.292   8.614  1.00  0.00     0.008 A 
HETATM   10  C   UNL     1     -43.436 -45.182   9.370  1.00  0.00     0.056 A 
HETATM   11  C   UNL     1     -42.727 -45.388  10.545  1.00  0.00     0.143 A 
HETATM   12  N   UNL     1     -42.386 -46.601  11.031  1.00  0.00    -0.323 N 
ATOM     13  HN  UNL     1     -41.926 -46.711  11.935  1.00  0.00     0.169 HD
BRANCH  11  14
HETATM   14  O   UNL     1     -42.394 -44.259  11.261  1.00  0.00    -0.330 OA
BRANCH  14  15
HETATM   15  C   UNL     1     -41.337 -44.514  12.194  1.00  0.00     0.248 C 
BRANCH  15  16
HETATM   16  C   UNL     1     -40.056 -43.899  11.658  1.00  0.00     0.377 C 
HETATM   17  F   UNL     1     -39.414 -44.786  10.857  1.00  0.00    -0.212 F 
HETATM   18  F   UNL     1     -40.347 -42.822  10.882  1.00  0.00    -0.212 F 
ENDBRANCH  15  16
ENDBRANCH  14  15
ENDBRANCH  11  14
ENDBRANCH   4   7
BRANCH   1  19
HETATM   19  C   UNL     1     -42.321 -51.222  13.533  1.00  0.00     0.089 C 
HETATM   20  C   UNL     1     -41.170 -52.112  14.021  1.00  0.00     0.055 C 
HETATM   21  C   UNL     1     -41.126 -53.450  13.283  1.00  0.00     0.274 C 
HETATM   22  N   UNL     1     -42.401 -54.178  13.280  1.00  0.00     0.084 N 
HETATM   23  C   UNL     1     -42.705 -54.773  14.581  1.00  0.00     0.309 C 
HETATM   24  C   UNL     1     -43.495 -53.341  12.779  1.00  0.00     0.274 C 
HETATM   25  C   UNL     1     -43.641 -51.995  13.490  1.00  0.00     0.055 C 
ENDBRANCH   1  19
TORSDOF 5
ENDMDL
MODEL 6
REMARK VINA RESULT:      -5.5      4.532      8.374
REMARK  5 active torsions:
REMARK  status: ('A' for Active; 'I' for Inactive)
REMARK    1  A    between atoms: C_5  and  N_8 
REMARK       I    between atoms: N_8  and  C_9 
REMARK       I    between atoms: C_9  and  N_11 
REMARK    2  A    between atoms: N_11  and  C_12 
REMARK    3  A    between atoms: C_16  and  O_17 
REMARK    4  A    between atoms: O_17  and  C_18 
REMARK    5  A    between atoms: C_18  and  C_19 
ROOT
HETATM    1  N   UNL     1     -42.586 -49.444  12.014  1.00  0.00    -0.338 N 
HETATM    2  C   UNL     1     -43.113 -50.395  12.864  1.00  0.00     0.322 C 
HETATM    3  O   UNL     1     -43.598 -50.114  13.951  1.00  0.00    -0.247 OA
HETATM    4  N   UNL     1     -42.954 -51.666  12.363  1.00  0.00    -0.295 N 
HETATM    5  H   UNL     1     -42.694 -49.639  11.027  1.00  0.00     0.164 HD
HETATM    6  H   UNL     1     -42.086 -51.822  11.873  1.00  0.00     0.172 HD
ENDROOT
BRANCH   4   7
HETATM    7  C   UNL     1     -43.371 -52.786  13.097  1.00  0.00     0.110 A 
HETATM    8  C   UNL     1     -44.427 -53.579  12.652  1.00  0.00     0.049 A 
HETATM    9  C   UNL     1     -44.828 -54.659  13.428  1.00  0.00     0.008 A 
HETATM   10  C   UNL     1     -44.176 -54.902  14.628  1.00  0.00     0.056 A 
HETATM   11  C   UNL     1     -43.139 -54.055  14.989  1.00  0.00     0.143 A 
HETATM   12  N   UNL     1     -42.686 -53.032  14.234  1.00  0.00    -0.323 N 
ATOM     13  HN  UNL     1     -41.875 -52.477  14.506  1.00  0.00     0.169 HD
BRANCH  11  14
HETATM   14  O   UNL     1     -42.524 -54.325  16.193  1.00  0.00    -0.330 OA
BRANCH  14  15
HETATM   15  C   UNL     1     -41.261 -54.977  16.010  1.00  0.00     0.248 C 
BRANCH  15  16
HETATM   16  C   UNL     1     -41.266 -56.276  16.797  1.00  0.00     0.377 C 
HETATM   17  F   UNL     1     -42.260 -57.085  16.351  1.00  0.00    -0.212 F 
HETATM   18  F   UNL     1     -40.103 -56.948  16.592  1.00  0.00    -0.212 F 
ENDBRANCH  15  16
ENDBRANCH  14  15
ENDBRANCH  11  14
ENDBRANCH   4   7
BRANCH   1  19
HETATM   19  C   UNL     1     -42.534 -48.046  12.438  1.00  0.00     0.089 C 
HETATM   20  C   UNL     1     -43.143 -47.090  11.404  1.00  0.00     0.055 C 
HETATM   21  C   UNL     1     -42.198 -46.837  10.229  1.00  0.00     0.274 C 
HETATM   22  N   UNL     1     -40.849 -46.411  10.623  1.00  0.00     0.084 N 
HETATM   23  C   UNL     1     -40.819 -45.027  11.096  1.00  0.00     0.309 C 
HETATM   24  C   UNL     1     -40.251 -47.344  11.582  1.00  0.00     0.274 C 
HETATM   25  C   UNL     1     -41.111 -47.624  12.815  1.00  0.00     0.055 C 
ENDBRANCH   1  19
TORSDOF 5
ENDMDL
MODEL 7
REMARK VINA RESULT:      -5.4      4.174      5.291
REMARK  5 active torsions:
REMARK  status: ('A' for Active; 'I' for Inactive)
REMARK    1  A    between atoms: C_5  and  N_8 
REMARK       I    between atoms: N_8  and  C_9 
REMARK       I    between atoms: C_9  and  N_11 
REMARK    2  A    between atoms: N_11  and  C_12 
REMARK    3  A    between atoms: C_16  and  O_17 
REMARK    4  A    between atoms: O_17  and  C_18 
REMARK    5  A    between atoms: C_18  and  C_19 
ROOT
HETATM    1  N   UNL     1     -43.313 -50.983  12.748  1.00  0.00    -0.338 N 
HETATM    2  C   UNL     1     -42.948 -49.654  12.691  1.00  0.00     0.322 C 
HETATM    3  O   UNL     1     -43.119 -48.882  13.624  1.00  0.00    -0.247 OA
HETATM    4  N   UNL     1     -42.450 -49.318  11.454  1.00  0.00    -0.295 N 
HETATM    5  H   UNL     1     -42.719 -51.618  12.229  1.00  0.00     0.164 HD
HETATM    6  H   UNL     1     -42.906 -49.772  10.677  1.00  0.00     0.172 HD
ENDROOT
BRANCH   4   7
HETATM    7  C   UNL     1     -42.071 -47.999  11.166  1.00  0.00     0.110 A 
HETATM    8  C   UNL     1     -42.731 -47.263  10.184  1.00  0.00     0.049 A 
HETATM    9  C   UNL     1     -42.300 -45.972   9.909  1.00  0.00     0.008 A 
HETATM   10  C   UNL     1     -41.216 -45.463  10.609  1.00  0.00     0.056 A 
HETATM   11  C   UNL     1     -40.620 -46.272  11.564  1.00  0.00     0.143 A 
HETATM   12  N   UNL     1     -41.047 -47.509  11.897  1.00  0.00    -0.323 N 
ATOM     13  HN  UNL     1     -40.622 -48.042  12.655  1.00  0.00     0.169 HD
BRANCH  11  14
HETATM   14  O   UNL     1     -39.539 -45.733  12.230  1.00  0.00    -0.330 OA
BRANCH  14  15
HETATM   15  C   UNL     1     -39.463 -46.197  13.583  1.00  0.00     0.248 C 
BRANCH  15  16
HETATM   16  C   UNL     1     -39.800 -45.045  14.512  1.00  0.00     0.377 C 
HETATM   17  F   UNL     1     -38.954 -45.040  15.573  1.00  0.00    -0.212 F 
HETATM   18  F   UNL     1     -39.616 -43.861  13.870  1.00  0.00    -0.212 F 
ENDBRANCH  15  16
ENDBRANCH  14  15
ENDBRANCH  11  14
ENDBRANCH   4   7
BRANCH   1  19
HETATM   19  C   UNL     1     -43.994 -51.496  13.936  1.00  0.00     0.089 C 
HETATM   20  C   UNL     1     -43.474 -52.873  14.370  1.00  0.00     0.055 C 
HETATM   21  C   UNL     1     -44.023 -53.997  13.491  1.00  0.00     0.274 C 
HETATM   22  N   UNL     1     -45.484 -53.995  13.355  1.00  0.00     0.084 N 
HETATM   23  C   UNL     1     -46.157 -54.458  14.569  1.00  0.00     0.309 C 
HETATM   24  C   UNL     1     -45.980 -52.692  12.904  1.00  0.00     0.274 C 
HETATM   25  C   UNL     1     -45.514 -51.508  13.753  1.00  0.00     0.055 C 
ENDBRANCH   1  19
TORSDOF 5
ENDMDL
MODEL 8
REMARK VINA RESULT:      -5.3      3.307      4.311
REMARK  5 active torsions:
REMARK  status: ('A' for Active; 'I' for Inactive)
REMARK    1  A    between atoms: C_5  and  N_8 
REMARK       I    between atoms: N_8  and  C_9 
REMARK       I    between atoms: C_9  and  N_11 
REMARK    2  A    between atoms: N_11  and  C_12 
REMARK    3  A    between atoms: C_16  and  O_17 
REMARK    4  A    between atoms: O_17  and  C_18 
REMARK    5  A    between atoms: C_18  and  C_19 
ROOT
HETATM    1  N   UNL     1     -41.527 -51.494  12.695  1.00  0.00    -0.338 N 
HETATM    2  C   UNL     1     -41.365 -50.398  11.873  1.00  0.00     0.322 C 
HETATM    3  O   UNL     1     -40.389 -50.252  11.151  1.00  0.00    -0.247 OA
HETATM    4  N   UNL     1     -42.388 -49.491  12.030  1.00  0.00    -0.295 N 
HETATM    5  H   UNL     1     -42.484 -51.796  12.830  1.00  0.00     0.164 HD
HETATM    6  H   UNL     1     -42.725 -49.394  12.976  1.00  0.00     0.172 HD
ENDROOT
BRANCH   4   7
HETATM    7  C   UNL     1     -42.388 -48.279  11.327  1.00  0.00     0.110 A 
HETATM    8  C   UNL     1     -43.533 -47.833  10.670  1.00  0.00     0.049 A 
HETATM    9  C   UNL     1     -43.478 -46.642   9.958  1.00  0.00     0.008 A 
HETATM   10  C   UNL     1     -42.280 -45.944   9.909  1.00  0.00     0.056 A 
HETATM   11  C   UNL     1     -41.192 -46.469  10.590  1.00  0.00     0.143 A 
HETATM   12  N   UNL     1     -41.225 -47.593  11.338  1.00  0.00    -0.323 N 
ATOM     13  HN  UNL     1     -40.419 -47.905  11.880  1.00  0.00     0.169 HD
BRANCH  11  14
HETATM   14  O   UNL     1     -40.018 -45.750  10.508  1.00  0.00    -0.330 OA
BRANCH  14  15
HETATM   15  C   UNL     1     -40.145 -44.456  11.109  1.00  0.00     0.248 C 
BRANCH  15  16
HETATM   16  C   UNL     1     -39.695 -44.546  12.557  1.00  0.00     0.377 C 
HETATM   17  F   UNL     1     -38.972 -43.446  12.888  1.00  0.00    -0.212 F 
HETATM   18  F   UNL     1     -40.776 -44.556  13.380  1.00  0.00    -0.212 F 
ENDBRANCH  15  16
ENDBRANCH  14  15
ENDBRANCH  11  14
ENDBRANCH   4   7
BRANCH   1  19
HETATM   19  C   UNL     1     -40.470 -52.501  12.774  1.00  0.00     0.089 C 
HETATM   20  C   UNL     1     -41.019 -53.929  12.888  1.00  0.00     0.055 C 
HETATM   21  C   UNL     1     -41.513 -54.244  14.300  1.00  0.00     0.274 C 
HETATM   22  N   UNL     1     -40.534 -53.961  15.357  1.00  0.00     0.084 N 
HETATM   23  C   UNL     1     -39.452 -54.944  15.391  1.00  0.00     0.309 C 
HETATM   24  C   UNL     1     -40.037 -52.585  15.273  1.00  0.00     0.274 C 
HETATM   25  C   UNL     1     -39.482 -52.194  13.903  1.00  0.00     0.055 C 
ENDBRANCH   1  19
TORSDOF 5
ENDMDL
MODEL 9
REMARK VINA RESULT:      -5.3      1.763      2.156
REMARK  5 active torsions:
REMARK  status: ('A' for Active; 'I' for Inactive)
REMARK    1  A    between atoms: C_5  and  N_8 
REMARK       I    between atoms: N_8  and  C_9 
REMARK       I    between atoms: C_9  and  N_11 
REMARK    2  A    between atoms: N_11  and  C_12 
REMARK    3  A    between atoms: C_16  and  O_17 
REMARK    4  A    between atoms: O_17  and  C_18 
REMARK    5  A    between atoms: C_18  and  C_19 
ROOT
HETATM    1  N   UNL     1     -40.797 -50.798  12.802  1.00  0.00    -0.338 N 
HETATM    2  C   UNL     1     -41.182 -49.501  12.535  1.00  0.00     0.322 C 
HETATM    3  O   UNL     1     -42.322 -49.099  12.720  1.00  0.00    -0.247 OA
HETATM    4  N   UNL     1     -40.155 -48.771  11.982  1.00  0.00    -0.295 N 
HETATM    5  H   UNL     1     -39.841 -50.910  13.118  1.00  0.00     0.164 HD
HETATM    6  H   UNL     1     -39.565 -49.286  11.346  1.00  0.00     0.172 HD
ENDROOT
BRANCH   4   7
HETATM    7  C   UNL     1     -40.352 -47.441  11.584  1.00  0.00     0.110 A 
HETATM    8  C   UNL     1     -39.761 -46.390  12.283  1.00  0.00     0.049 A 
HETATM    9  C   UNL     1     -40.010 -45.088  11.872  1.00  0.00     0.008 A 
HETATM   10  C   UNL     1     -40.851 -44.873  10.791  1.00  0.00     0.056 A 
HETATM   11  C   UNL     1     -41.397 -45.982  10.161  1.00  0.00     0.143 A 
HETATM   12  N   UNL     1     -41.133 -47.262  10.497  1.00  0.00    -0.323 N 
ATOM     13  HN  UNL     1     -41.501 -48.049   9.962  1.00  0.00     0.169 HD
BRANCH  11  14
HETATM   14  O   UNL     1     -42.236 -45.726   9.098  1.00  0.00    -0.330 OA
BRANCH  14  15
HETATM   15  C   UNL     1     -43.615 -45.841   9.470  1.00  0.00     0.248 C 
BRANCH  15  16
HETATM   16  C   UNL     1     -44.227 -47.007   8.713  1.00  0.00     0.377 C 
HETATM   17  F   UNL     1     -43.248 -47.768   8.162  1.00  0.00    -0.212 F 
HETATM   18  F   UNL     1     -44.903 -47.816   9.572  1.00  0.00    -0.212 F 
ENDBRANCH  15  16
ENDBRANCH  14  15
ENDBRANCH  11  14
ENDBRANCH   4   7
BRANCH   1  19
HETATM   19  C   UNL     1     -41.790 -51.767  13.262  1.00  0.00     0.089 C 
HETATM   20  C   UNL     1     -41.935 -51.788  14.789  1.00  0.00     0.055 C 
HETATM   21  C   UNL     1     -40.791 -52.544  15.465  1.00  0.00     0.274 C 
HETATM   22  N   UNL     1     -40.562 -53.891  14.931  1.00  0.00     0.084 N 
HETATM   23  C   UNL     1     -41.593 -54.840  15.353  1.00  0.00     0.309 C 
HETATM   24  C   UNL     1     -40.385 -53.869  13.476  1.00  0.00     0.274 C 
HETATM   25  C   UNL     1     -41.508 -53.168  12.712  1.00  0.00     0.055 C 
ENDBRANCH   1  19
TORSDOF 5
ENDMDL
