MODEL 1
REMARK VINA RESULT:      -5.8      0.000      0.000
REMARK  5 active torsions:
REMARK  status: ('A' for Active; 'I' for Inactive)
REMARK    1  A    between atoms: C_2  and  N_3 
REMARK    2  A    between atoms: C_6  and  C_7 
REMARK    3  A    between atoms: C_7  and  N_8 
REMARK       I    between atoms: N_8  and  C_9 
REMARK    4  A    between atoms: C_9  and  C_11 
REMARK    5  A    between atoms: C_11  and  C_12 
ROOT
HETATM    1  N   UNL     1     -42.798 -50.089  12.396  1.00  0.00    -0.360 N 
HETATM    2  C   UNL     1     -42.315 -49.008  11.690  1.00  0.00     0.222 C 
HETATM    3  O   UNL     1     -41.259 -49.032  11.065  1.00  0.00    -0.273 OA
HETATM    4  H   UNL     1     -43.650 -49.996  12.936  1.00  0.00     0.162 HD
ENDROOT
BRANCH   2   5
HETATM    5  C   UNL     1     -43.206 -47.782  11.731  1.00  0.00     0.146 C 
BRANCH   5   6
HETATM    6  C   UNL     1     -43.249 -46.968  10.481  1.00  0.00     0.006 A 
HETATM    7  C   UNL     1     -44.300 -46.991   9.513  1.00  0.00     0.038 A 
HETATM    8  C   UNL     1     -45.541 -47.801   9.500  1.00  0.00     0.071 C 
HETATM    9  N   UNL     1     -44.065 -46.144   8.508  1.00  0.00    -0.265 N 
HETATM   10  O   UNL     1     -42.851 -45.558   8.785  1.00  0.00    -0.242 OA
ATOM     11  HN  UNL     1     -44.663 -45.967   7.700  1.00  0.00     0.194 HD
HETATM   12  C   UNL     1     -42.360 -46.047   9.954  1.00  0.00     0.081 A 
HETATM   13  C   UNL     1     -41.048 -45.501  10.358  1.00  0.00     0.079 C 
ENDBRANCH   5   6
ENDBRANCH   2   5
BRANCH   1  14
HETATM   14  C   UNL     1     -42.115 -51.374  12.418  1.00  0.00     0.129 C 
BRANCH  14  15
HETATM   15  C   UNL     1     -42.630 -52.292  13.537  1.00  0.00     0.033 C 
HETATM   16  C   UNL     1     -42.799 -53.743  13.081  1.00  0.00     0.038 C 
HETATM   17  C   UNL     1     -44.271 -53.891  12.703  1.00  0.00     0.273 C 
HETATM   18  N   UNL     1     -44.880 -52.580  12.947  1.00  0.00     0.088 N 
HETATM   19  C   UNL     1     -44.048 -51.920  13.960  1.00  0.00     0.278 C 
BRANCH  18  20
HETATM   20  C   UNL     1     -46.285 -52.653  13.355  1.00  0.00     0.268 C 
HETATM   21  C   UNL     1     -46.677 -51.532  14.314  1.00  0.00     0.037 C 
ENDBRANCH  18  20
ENDBRANCH  14  15
ENDBRANCH   1  14
TORSDOF 5
ENDMDL
MODEL 2
REMARK VINA RESULT:      -5.7      3.388      4.753
REMARK  5 active torsions:
REMARK  status: ('A' for Active; 'I' for Inactive)
REMARK    1  A    between atoms: C_2  and  N_3 
REMARK    2  A    between atoms: C_6  and  C_7 
REMARK    3  A    between atoms: C_7  and  N_8 
REMARK       I    between atoms: N_8  and  C_9 
REMARK    4  A    between atoms: C_9  and  C_11 
REMARK    5  A    between atoms: C_11  and  C_12 
ROOT
HETATM    1  N   UNL     1     -41.553 -53.173  14.239  1.00  0.00    -0.360 N 
HETATM    2  C   UNL     1     -40.229 -53.097  13.861  1.00  0.00     0.222 C 
HETATM    3  O   UNL     1     -39.588 -54.065  13.462  1.00  0.00    -0.273 OA
HETATM    4  H   UNL     1     -42.017 -52.353  14.609  1.00  0.00     0.162 HD
ENDROOT
BRANCH   2   5
HETATM    5  C   UNL     1     -39.625 -51.710  13.962  1.00  0.00     0.146 C 
BRANCH   5   6
HETATM    6  C   UNL     1     -39.741 -50.860  12.741  1.00  0.00     0.006 A 
HETATM    7  C   UNL     1     -38.657 -50.482  11.890  1.00  0.00     0.038 A 
HETATM    8  C   UNL     1     -37.216 -50.809  12.009  1.00  0.00     0.071 C 
HETATM    9  N   UNL     1     -39.070 -49.731  10.867  1.00  0.00    -0.265 N 
HETATM   10  O   UNL     1     -40.429 -49.586  11.031  1.00  0.00    -0.242 OA
ATOM     11  HN  UNL     1     -38.497 -49.343  10.117  1.00  0.00     0.194 HD
HETATM   12  C   UNL     1     -40.832 -50.253  12.145  1.00  0.00     0.081 A 
HETATM   13  C   UNL     1     -42.277 -50.164  12.438  1.00  0.00     0.079 C 
ENDBRANCH   5   6
ENDBRANCH   2   5
BRANCH   1  14
HETATM   14  C   UNL     1     -42.320 -54.406  14.146  1.00  0.00     0.129 C 
BRANCH  14  15
HETATM   15  C   UNL     1     -43.677 -54.307  14.860  1.00  0.00     0.033 C 
HETATM   16  C   UNL     1     -44.809 -54.974  14.076  1.00  0.00     0.038 C 
HETATM   17  C   UNL     1     -45.488 -53.853  13.292  1.00  0.00     0.273 C 
HETATM   18  N   UNL     1     -44.761 -52.627  13.637  1.00  0.00     0.088 N 
HETATM   19  C   UNL     1     -44.158 -52.862  14.953  1.00  0.00     0.278 C 
BRANCH  18  20
HETATM   20  C   UNL     1     -45.599 -51.426  13.624  1.00  0.00     0.268 C 
HETATM   21  C   UNL     1     -46.719 -51.480  14.659  1.00  0.00     0.037 C 
ENDBRANCH  18  20
ENDBRANCH  14  15
ENDBRANCH   1  14
TORSDOF 5
ENDMDL
MODEL 3
REMARK VINA RESULT:      -5.6      1.389      1.960
REMARK  5 active torsions:
REMARK  status: ('A' for Active; 'I' for Inactive)
REMARK    1  A    between atoms: C_2  and  N_3 
REMARK    2  A    between atoms: C_6  and  C_7 
REMARK    3  A    between atoms: C_7  and  N_8 
REMARK       I    between atoms: N_8  and  C_9 
REMARK    4  A    between atoms: C_9  and  C_11 
REMARK    5  A    between atoms: C_11  and  C_12 
ROOT
HETATM    1  N   UNL     1     -42.373 -50.011  11.814  1.00  0.00    -0.360 N 
HETATM    2  C   UNL     1     -42.464 -48.638  11.731  1.00  0.00     0.222 C 
HETATM    3  O   UNL     1     -42.794 -47.929  12.678  1.00  0.00    -0.273 OA
HETATM    4  H   UNL     1     -42.146 -50.550  10.987  1.00  0.00     0.162 HD
ENDROOT
BRANCH   2   5
HETATM    5  C   UNL     1     -42.107 -48.065  10.374  1.00  0.00     0.146 C 
BRANCH   5   6
HETATM    6  C   UNL     1     -42.745 -46.760  10.031  1.00  0.00     0.006 A 
HETATM    7  C   UNL     1     -43.953 -46.600   9.285  1.00  0.00     0.038 A 
HETATM    8  C   UNL     1     -44.824 -47.637   8.682  1.00  0.00     0.071 C 
HETATM    9  N   UNL     1     -44.284 -45.314   9.150  1.00  0.00    -0.265 N 
HETATM   10  O   UNL     1     -43.295 -44.602   9.790  1.00  0.00    -0.242 OA
ATOM     11  HN  UNL     1     -45.102 -44.936   8.671  1.00  0.00     0.194 HD
HETATM   12  C   UNL     1     -42.376 -45.457  10.312  1.00  0.00     0.081 A 
HETATM   13  C   UNL     1     -41.252 -44.809  11.018  1.00  0.00     0.079 C 
ENDBRANCH   5   6
ENDBRANCH   2   5
BRANCH   1  14
HETATM   14  C   UNL     1     -42.612 -50.736  13.054  1.00  0.00     0.129 C 
BRANCH  14  15
HETATM   15  C   UNL     1     -44.062 -51.232  13.171  1.00  0.00     0.033 C 
HETATM   16  C   UNL     1     -44.657 -50.996  14.561  1.00  0.00     0.038 C 
HETATM   17  C   UNL     1     -44.473 -52.308  15.320  1.00  0.00     0.273 C 
HETATM   18  N   UNL     1     -43.810 -53.221  14.384  1.00  0.00     0.088 N 
HETATM   19  C   UNL     1     -44.148 -52.749  13.037  1.00  0.00     0.278 C 
BRANCH  18  20
HETATM   20  C   UNL     1     -44.174 -54.627  14.579  1.00  0.00     0.268 C 
HETATM   21  C   UNL     1     -45.389 -55.039  13.753  1.00  0.00     0.037 C 
ENDBRANCH  18  20
ENDBRANCH  14  15
ENDBRANCH   1  14
TORSDOF 5
ENDMDL
MODEL 4
REMARK VINA RESULT:      -5.6      3.981      6.967
REMARK  5 active torsions:
REMARK  status: ('A' for Active; 'I' for Inactive)
REMARK    1  A    between atoms: C_2  and  N_3 
REMARK    2  A    between atoms: C_6  and  C_7 
REMARK    3  A    between atoms: C_7  and  N_8 
REMARK       I    between atoms: N_8  and  C_9 
REMARK    4  A    between atoms: C_9  and  C_11 
REMARK    5  A    between atoms: C_11  and  C_12 
ROOT
HETATM    1  N   UNL     1     -43.193 -52.900  12.174  1.00  0.00    -0.360 N 
HETATM    2  C   UNL     1     -43.503 -53.863  13.111  1.00  0.00     0.222 C 
HETATM    3  O   UNL     1     -42.654 -54.449  13.777  1.00  0.00    -0.273 OA
HETATM    4  H   UNL     1     -43.930 -52.486  11.617  1.00  0.00     0.162 HD
ENDROOT
BRANCH   2   5
HETATM    5  C   UNL     1     -44.986 -54.132  13.269  1.00  0.00     0.146 C 
BRANCH   5   6
HETATM    6  C   UNL     1     -45.786 -53.028  13.876  1.00  0.00     0.006 A 
HETATM    7  C   UNL     1     -45.963 -52.807  15.276  1.00  0.00     0.038 A 
HETATM    8  C   UNL     1     -45.436 -53.589  16.420  1.00  0.00     0.071 C 
HETATM    9  N   UNL     1     -46.718 -51.733  15.516  1.00  0.00    -0.265 N 
HETATM   10  O   UNL     1     -47.066 -51.235  14.281  1.00  0.00    -0.242 OA
ATOM     11  HN  UNL     1     -46.984 -51.358  16.427  1.00  0.00     0.194 HD
HETATM   12  C   UNL     1     -46.518 -52.003  13.303  1.00  0.00     0.081 A 
HETATM   13  C   UNL     1     -46.829 -51.574  11.924  1.00  0.00     0.079 C 
ENDBRANCH   5   6
ENDBRANCH   2   5
BRANCH   1  14
HETATM   14  C   UNL     1     -41.827 -52.459  11.931  1.00  0.00     0.129 C 
BRANCH  14  15
HETATM   15  C   UNL     1     -41.457 -51.219  12.759  1.00  0.00     0.033 C 
HETATM   16  C   UNL     1     -41.580 -49.918  11.963  1.00  0.00     0.038 C 
HETATM   17  C   UNL     1     -40.176 -49.612  11.447  1.00  0.00     0.273 C 
HETATM   18  N   UNL     1     -39.322 -50.696  11.945  1.00  0.00     0.088 N 
HETATM   19  C   UNL     1     -39.981 -51.221  13.146  1.00  0.00     0.278 C 
BRANCH  18  20
HETATM   20  C   UNL     1     -37.944 -50.280  12.213  1.00  0.00     0.268 C 
HETATM   21  C   UNL     1     -37.173 -49.943  10.940  1.00  0.00     0.037 C 
ENDBRANCH  18  20
ENDBRANCH  14  15
ENDBRANCH   1  14
TORSDOF 5
ENDMDL
MODEL 5
REMARK VINA RESULT:      -5.6      2.936      7.356
REMARK  5 active torsions:
REMARK  status: ('A' for Active; 'I' for Inactive)
REMARK    1  A    between atoms: C_2  and  N_3 
REMARK    2  A    between atoms: C_6  and  C_7 
REMARK    3  A    between atoms: C_7  and  N_8 
REMARK       I    between atoms: N_8  and  C_9 
REMARK    4  A    between atoms: C_9  and  C_11 
REMARK    5  A    between atoms: C_11  and  C_12 
ROOT
HETATM    1  N   UNL     1     -42.696 -50.945  12.095  1.00  0.00    -0.360 N 
HETATM    2  C   UNL     1     -42.467 -52.155  12.715  1.00  0.00     0.222 C 
HETATM    3  O   UNL     1     -41.593 -52.319  13.563  1.00  0.00    -0.273 OA
HETATM    4  H   UNL     1     -43.396 -50.880  11.366  1.00  0.00     0.162 HD
ENDROOT
BRANCH   2   5
HETATM    5  C   UNL     1     -43.395 -53.271  12.279  1.00  0.00     0.146 C 
BRANCH   5   6
HETATM    6  C   UNL     1     -44.428 -53.683  13.275  1.00  0.00     0.006 A 
HETATM    7  C   UNL     1     -45.784 -53.233  13.295  1.00  0.00     0.038 A 
HETATM    8  C   UNL     1     -46.467 -52.281  12.388  1.00  0.00     0.071 C 
HETATM    9  N   UNL     1     -46.473 -53.787  14.295  1.00  0.00    -0.265 N 
HETATM   10  O   UNL     1     -45.584 -54.598  14.962  1.00  0.00    -0.242 OA
ATOM     11  HN  UNL     1     -47.458 -53.638  14.520  1.00  0.00     0.194 HD
HETATM   12  C   UNL     1     -44.366 -54.537  14.361  1.00  0.00     0.081 A 
HETATM   13  C   UNL     1     -43.316 -55.361  14.994  1.00  0.00     0.079 C 
ENDBRANCH   5   6
ENDBRANCH   2   5
BRANCH   1  14
HETATM   14  C   UNL     1     -41.949 -49.742  12.432  1.00  0.00     0.129 C 
BRANCH  14  15
HETATM   15  C   UNL     1     -40.955 -49.342  11.331  1.00  0.00     0.033 C 
HETATM   16  C   UNL     1     -39.638 -48.801  11.892  1.00  0.00     0.038 C 
HETATM   17  C   UNL     1     -39.779 -47.280  11.888  1.00  0.00     0.273 C 
HETATM   18  N   UNL     1     -41.112 -47.004  11.345  1.00  0.00     0.088 N 
HETATM   19  C   UNL     1     -41.467 -48.159  10.514  1.00  0.00     0.278 C 
BRANCH  18  20
HETATM   20  C   UNL     1     -41.191 -45.747  10.596  1.00  0.00     0.268 C 
HETATM   21  C   UNL     1     -39.818 -45.135  10.328  1.00  0.00     0.037 C 
ENDBRANCH  18  20
ENDBRANCH  14  15
ENDBRANCH   1  14
TORSDOF 5
ENDMDL
MODEL 6
REMARK VINA RESULT:      -5.5      4.559      7.023
REMARK  5 active torsions:
REMARK  status: ('A' for Active; 'I' for Inactive)
REMARK    1  A    between atoms: C_2  and  N_3 
REMARK    2  A    between atoms: C_6  and  C_7 
REMARK    3  A    between atoms: C_7  and  N_8 
REMARK       I    between atoms: N_8  and  C_9 
REMARK    4  A    between atoms: C_9  and  C_11 
REMARK    5  A    between atoms: C_11  and  C_12 
ROOT
HETATM    1  N   UNL     1     -43.285 -54.098  13.359  1.00  0.00    -0.360 N 
HETATM    2  C   UNL     1     -44.081 -54.845  14.201  1.00  0.00     0.222 C 
HETATM    3  O   UNL     1     -43.628 -55.609  15.050  1.00  0.00    -0.273 OA
HETATM    4  H   UNL     1     -43.714 -53.523  12.643  1.00  0.00     0.162 HD
ENDROOT
BRANCH   2   5
HETATM    5  C   UNL     1     -45.570 -54.635  14.010  1.00  0.00     0.146 C 
BRANCH   5   6
HETATM    6  C   UNL     1     -46.090 -53.286  14.381  1.00  0.00     0.006 A 
HETATM    7  C   UNL     1     -46.269 -52.806  15.714  1.00  0.00     0.038 A 
HETATM    8  C   UNL     1     -46.011 -53.497  17.000  1.00  0.00     0.071 C 
HETATM    9  N   UNL     1     -46.736 -51.556  15.731  1.00  0.00    -0.265 N 
HETATM   10  O   UNL     1     -46.888 -51.193  14.412  1.00  0.00    -0.242 OA
ATOM     11  HN  UNL     1     -46.939 -50.985  16.553  1.00  0.00     0.194 HD
HETATM   12  C   UNL     1     -46.509 -52.220  13.606  1.00  0.00     0.081 A 
HETATM   13  C   UNL     1     -46.637 -51.956  12.158  1.00  0.00     0.079 C 
ENDBRANCH   5   6
ENDBRANCH   2   5
BRANCH   1  14
HETATM   14  C   UNL     1     -41.832 -54.115  13.439  1.00  0.00     0.129 C 
BRANCH  14  15
HETATM   15  C   UNL     1     -41.281 -52.976  14.310  1.00  0.00     0.033 C 
HETATM   16  C   UNL     1     -42.100 -51.689  14.188  1.00  0.00     0.038 C 
HETATM   17  C   UNL     1     -41.376 -50.832  13.152  1.00  0.00     0.273 C 
HETATM   18  N   UNL     1     -40.210 -51.616  12.731  1.00  0.00     0.088 N 
HETATM   19  C   UNL     1     -39.901 -52.526  13.840  1.00  0.00     0.278 C 
BRANCH  18  20
HETATM   20  C   UNL     1     -39.055 -50.794  12.359  1.00  0.00     0.268 C 
HETATM   21  C   UNL     1     -37.815 -51.114  13.189  1.00  0.00     0.037 C 
ENDBRANCH  18  20
ENDBRANCH  14  15
ENDBRANCH   1  14
TORSDOF 5
ENDMDL
MODEL 7
REMARK VINA RESULT:      -5.4      2.595      7.096
REMARK  5 active torsions:
REMARK  status: ('A' for Active; 'I' for Inactive)
REMARK    1  A    between atoms: C_2  and  N_3 
REMARK    2  A    between atoms: C_6  and  C_7 
REMARK    3  A    between atoms: C_7  and  N_8 
REMARK       I    between atoms: N_8  and  C_9 
REMARK    4  A    between atoms: C_9  and  C_11 
REMARK    5  A    between atoms: C_11  and  C_12 
ROOT
HETATM    1  N   UNL     1     -42.956 -50.349  12.606  1.00  0.00    -0.360 N 
HETATM    2  C   UNL     1     -42.694 -51.511  13.300  1.00  0.00     0.222 C 
HETATM    3  O   UNL     1     -42.108 -51.531  14.379  1.00  0.00    -0.273 OA
HETATM    4  H   UNL     1     -43.398 -50.397  11.696  1.00  0.00     0.162 HD
ENDROOT
BRANCH   2   5
HETATM    5  C   UNL     1     -43.206 -52.771  12.631  1.00  0.00     0.146 C 
BRANCH   5   6
HETATM    6  C   UNL     1     -44.279 -53.506  13.364  1.00  0.00     0.006 A 
HETATM    7  C   UNL     1     -45.683 -53.279  13.222  1.00  0.00     0.038 A 
HETATM    8  C   UNL     1     -46.390 -52.296  12.367  1.00  0.00     0.071 C 
HETATM    9  N   UNL     1     -46.397 -54.099  13.997  1.00  0.00    -0.265 N 
HETATM   10  O   UNL     1     -45.480 -54.870  14.674  1.00  0.00    -0.242 OA
ATOM     11  HN  UNL     1     -47.414 -54.145  14.072  1.00  0.00     0.194 HD
HETATM   12  C   UNL     1     -44.220 -54.519  14.304  1.00  0.00     0.081 A 
HETATM   13  C   UNL     1     -43.140 -55.273  14.973  1.00  0.00     0.079 C 
ENDBRANCH   5   6
ENDBRANCH   2   5
BRANCH   1  14
HETATM   14  C   UNL     1     -42.601 -49.035  13.122  1.00  0.00     0.129 C 
BRANCH  14  15
HETATM   15  C   UNL     1     -41.613 -48.294  12.208  1.00  0.00     0.033 C 
HETATM   16  C   UNL     1     -41.664 -46.776  12.389  1.00  0.00     0.038 C 
HETATM   17  C   UNL     1     -42.591 -46.257  11.292  1.00  0.00     0.273 C 
HETATM   18  N   UNL     1     -43.023 -47.440  10.542  1.00  0.00     0.088 N 
HETATM   19  C   UNL     1     -41.982 -48.455  10.736  1.00  0.00     0.278 C 
BRANCH  18  20
HETATM   20  C   UNL     1     -43.272 -47.175   9.123  1.00  0.00     0.268 C 
HETATM   21  C   UNL     1     -44.129 -45.933   8.898  1.00  0.00     0.037 C 
ENDBRANCH  18  20
ENDBRANCH  14  15
ENDBRANCH   1  14
TORSDOF 5
ENDMDL
MODEL 8
REMARK VINA RESULT:      -5.4      3.066      7.956
REMARK  5 active torsions:
REMARK  status: ('A' for Active; 'I' for Inactive)
REMARK    1  A    between atoms: C_2  and  N_3 
REMARK    2  A    between atoms: C_6  and  C_7 
REMARK    3  A    between atoms: C_7  and  N_8 
REMARK       I    between atoms: N_8  and  C_9 
REMARK    4  A    between atoms: C_9  and  C_11 
REMARK    5  A    between atoms: C_11  and  C_12 
ROOT
HETATM    1  N   UNL     1     -42.271 -50.929  11.970  1.00  0.00    -0.360 N 
HETATM    2  C   UNL     1     -42.930 -51.686  12.916  1.00  0.00     0.222 C 
HETATM    3  O   UNL     1     -43.373 -51.218  13.961  1.00  0.00    -0.273 OA
HETATM    4  H   UNL     1     -41.882 -51.378  11.150  1.00  0.00     0.162 HD
ENDROOT
BRANCH   2   5
HETATM    5  C   UNL     1     -43.083 -53.150  12.554  1.00  0.00     0.146 C 
BRANCH   5   6
HETATM    6  C   UNL     1     -43.131 -54.101  13.702  1.00  0.00     0.006 A 
HETATM    7  C   UNL     1     -42.020 -54.463  14.526  1.00  0.00     0.038 A 
HETATM    8  C   UNL     1     -40.609 -54.017  14.440  1.00  0.00     0.071 C 
HETATM    9  N   UNL     1     -42.374 -55.324  15.483  1.00  0.00    -0.265 N 
HETATM   10  O   UNL     1     -43.717 -55.558  15.300  1.00  0.00    -0.242 OA
ATOM     11  HN  UNL     1     -41.771 -55.726  16.202  1.00  0.00     0.194 HD
HETATM   12  C   UNL     1     -44.171 -54.837  14.241  1.00  0.00     0.081 A 
HETATM   13  C   UNL     1     -45.605 -55.013  13.935  1.00  0.00     0.079 C 
ENDBRANCH   5   6
ENDBRANCH   2   5
BRANCH   1  14
HETATM   14  C   UNL     1     -42.089 -49.491  12.111  1.00  0.00     0.129 C 
BRANCH  14  15
HETATM   15  C   UNL     1     -41.009 -48.943  11.166  1.00  0.00     0.033 C 
HETATM   16  C   UNL     1     -39.670 -48.711  11.869  1.00  0.00     0.038 C 
HETATM   17  C   UNL     1     -39.650 -47.233  12.248  1.00  0.00     0.273 C 
HETATM   18  N   UNL     1     -40.921 -46.681  11.770  1.00  0.00     0.088 N 
HETATM   19  C   UNL     1     -41.357 -47.544  10.666  1.00  0.00     0.278 C 
BRANCH  18  20
HETATM   20  C   UNL     1     -40.834 -45.276  11.363  1.00  0.00     0.268 C 
HETATM   21  C   UNL     1     -39.789 -45.042  10.277  1.00  0.00     0.037 C 
ENDBRANCH  18  20
ENDBRANCH  14  15
ENDBRANCH   1  14
TORSDOF 5
ENDMDL
MODEL 9
REMARK VINA RESULT:      -5.4      4.183      6.922
REMARK  5 active torsions:
REMARK  status: ('A' for Active; 'I' for Inactive)
REMARK    1  A    between atoms: C_2  and  N_3 
REMARK    2  A    between atoms: C_6  and  C_7 
REMARK    3  A    between atoms: C_7  and  N_8 
REMARK       I    between atoms: N_8  and  C_9 
REMARK    4  A    between atoms: C_9  and  C_11 
REMARK    5  A    between atoms: C_11  and  C_12 
ROOT
HETATM    1  N   UNL     1     -43.405 -52.177  12.551  1.00  0.00    -0.360 N 
HETATM    2  C   UNL     1     -44.151 -51.299  13.309  1.00  0.00     0.222 C 
HETATM    3  O   UNL     1     -43.703 -50.244  13.748  1.00  0.00    -0.273 OA
HETATM    4  H   UNL     1     -43.811 -53.057  12.259  1.00  0.00     0.162 HD
ENDROOT
BRANCH   2   5
HETATM    5  C   UNL     1     -45.584 -51.733  13.545  1.00  0.00     0.146 C 
BRANCH   5   6
HETATM    6  C   UNL     1     -45.796 -52.688  14.673  1.00  0.00     0.006 A 
HETATM    7  C   UNL     1     -46.140 -52.325  16.011  1.00  0.00     0.038 A 
HETATM    8  C   UNL     1     -46.345 -50.977  16.591  1.00  0.00     0.071 C 
HETATM    9  N   UNL     1     -46.277 -53.397  16.794  1.00  0.00    -0.265 N 
HETATM   10  O   UNL     1     -46.013 -54.485  15.993  1.00  0.00    -0.242 OA
ATOM     11  HN  UNL     1     -46.527 -53.409  17.784  1.00  0.00     0.194 HD
HETATM   12  C   UNL     1     -45.723 -54.068  14.732  1.00  0.00     0.081 A 
HETATM   13  C   UNL     1     -45.409 -55.148  13.775  1.00  0.00     0.079 C 
ENDBRANCH   5   6
ENDBRANCH   2   5
BRANCH   1  14
HETATM   14  C   UNL     1     -42.030 -51.899  12.164  1.00  0.00     0.129 C 
BRANCH  14  15
HETATM   15  C   UNL     1     -41.077 -53.050  12.521  1.00  0.00     0.033 C 
HETATM   16  C   UNL     1     -41.772 -54.177  13.289  1.00  0.00     0.038 C 
HETATM   17  C   UNL     1     -41.500 -53.903  14.766  1.00  0.00     0.273 C 
HETATM   18  N   UNL     1     -40.688 -52.683  14.803  1.00  0.00     0.088 N 
HETATM   19  C   UNL     1     -40.003 -52.604  13.508  1.00  0.00     0.278 C 
BRANCH  18  20
HETATM   20  C   UNL     1     -39.747 -52.639  15.925  1.00  0.00     0.268 C 
HETATM   21  C   UNL     1     -38.984 -53.949  16.102  1.00  0.00     0.037 C 
ENDBRANCH  18  20
ENDBRANCH  14  15
ENDBRANCH   1  14
TORSDOF 5
ENDMDL
