MODEL 1
REMARK VINA RESULT:      -6.2      0.000      0.000
REMARK  3 active torsions:
REMARK  status: ('A' for Active; 'I' for Inactive)
REMARK    1  A    between atoms: N_6  and  C_7 
REMARK    2  A    between atoms: C_7  and  C_8 
REMARK       I    between atoms: C_8  and  N_10 
REMARK    3  A    between atoms: N_10  and  C_11 
ROOT
HETATM    1  C   UNL     1     -42.145 -50.854  12.855  1.00  0.00     0.237 C 
HETATM    2  O   UNL     1     -42.120 -50.527  14.041  1.00  0.00    -0.272 OA
HETATM    3  N   UNL     1     -43.095 -51.717  12.341  1.00  0.00    -0.355 N 
HETATM    4  H   UNL     1     -43.032 -51.951  11.355  1.00  0.00     0.162 HD
ENDROOT
BRANCH   1   5
HETATM    5  C   UNL     1     -41.004 -50.495  11.906  1.00  0.00     0.255 C 
BRANCH   5   6
HETATM    6  N   UNL     1     -40.500 -49.134  12.086  1.00  0.00    -0.248 N 
HETATM    7  N   UNL     1     -39.692 -48.912  13.178  1.00  0.00    -0.305 N 
HETATM    8  C   UNL     1     -39.337 -47.689  13.403  1.00  0.00     0.133 A 
ATOM      9  HN  UNL     1     -39.387 -49.676  13.782  1.00  0.00     0.186 HD
HETATM   10  C   UNL     1     -39.701 -46.527  12.585  1.00  0.00     0.078 A 
HETATM   11 CL   UNL     1     -39.105 -45.000  13.090  1.00  0.00    -0.081 Cl
HETATM   12  C   UNL     1     -40.457 -46.754  11.511  1.00  0.00     0.126 A 
HETATM   13  C   UNL     1     -40.913 -48.140  11.199  1.00  0.00     0.285 A 
HETATM   14 CL   UNL     1     -40.966 -45.499  10.438  1.00  0.00    -0.076 Cl
HETATM   15  O   UNL     1     -41.618 -48.369  10.220  1.00  0.00    -0.265 OA
ENDBRANCH   5   6
ENDBRANCH   1   5
BRANCH   3  16
HETATM   16  C   UNL     1     -44.199 -52.220  13.159  1.00  0.00     0.084 C 
HETATM   17  C   UNL     1     -44.462 -53.690  12.812  1.00  0.00     0.025 C 
HETATM   18  C   UNL     1     -45.408 -54.469  13.733  1.00  0.00     0.002 C 
HETATM   19  C   UNL     1     -45.229 -54.209  15.229  1.00  0.00     0.000 C 
HETATM   20  C   UNL     1     -46.268 -53.266  15.843  1.00  0.00     0.000 C 
HETATM   21  C   UNL     1     -46.227 -51.798  15.410  1.00  0.00     0.000 C 
HETATM   22  C   UNL     1     -46.602 -51.550  13.949  1.00  0.00     0.002 C 
HETATM   23  C   UNL     1     -45.421 -51.304  13.006  1.00  0.00     0.025 C 
ENDBRANCH   3  16
TORSDOF 3
ENDMDL
MODEL 2
REMARK VINA RESULT:      -6.2      1.231      1.861
REMARK  3 active torsions:
REMARK  status: ('A' for Active; 'I' for Inactive)
REMARK    1  A    between atoms: N_6  and  C_7 
REMARK    2  A    between atoms: C_7  and  C_8 
REMARK       I    between atoms: C_8  and  N_10 
REMARK    3  A    between atoms: N_10  and  C_11 
ROOT
HETATM    1  C   UNL     1     -41.816 -51.638  12.893  1.00  0.00     0.237 C 
HETATM    2  O   UNL     1     -41.496 -52.131  13.975  1.00  0.00    -0.272 OA
HETATM    3  N   UNL     1     -43.109 -51.689  12.407  1.00  0.00    -0.355 N 
HETATM    4  H   UNL     1     -43.285 -51.274  11.496  1.00  0.00     0.162 HD
ENDROOT
BRANCH   1   5
HETATM    5  C   UNL     1     -40.768 -51.118  11.914  1.00  0.00     0.255 C 
BRANCH   5   6
HETATM    6  N   UNL     1     -40.762 -49.661  11.782  1.00  0.00    -0.248 N 
HETATM    7  N   UNL     1     -41.470 -49.133  10.725  1.00  0.00    -0.305 N 
HETATM    8  C   UNL     1     -41.376 -47.857  10.540  1.00  0.00     0.133 A 
ATOM      9  HN  UNL     1     -42.041 -49.721  10.118  1.00  0.00     0.186 HD
HETATM   10  C   UNL     1     -40.602 -46.925  11.368  1.00  0.00     0.078 A 
HETATM   11 CL   UNL     1     -40.633 -45.270  10.918  1.00  0.00    -0.081 Cl
HETATM   12  C   UNL     1     -39.946 -47.439  12.409  1.00  0.00     0.126 A 
HETATM   13  C   UNL     1     -40.001 -48.907  12.674  1.00  0.00     0.285 A 
HETATM   14 CL   UNL     1     -38.997 -46.480  13.488  1.00  0.00    -0.076 Cl
HETATM   15  O   UNL     1     -39.396 -49.402  13.622  1.00  0.00    -0.265 OA
ENDBRANCH   5   6
ENDBRANCH   1   5
BRANCH   3  16
HETATM   16  C   UNL     1     -44.207 -52.246  13.198  1.00  0.00     0.084 C 
HETATM   17  C   UNL     1     -44.437 -53.707  12.794  1.00  0.00     0.025 C 
HETATM   18  C   UNL     1     -45.371 -54.540  13.678  1.00  0.00     0.002 C 
HETATM   19  C   UNL     1     -45.207 -54.333  15.184  1.00  0.00     0.000 C 
HETATM   20  C   UNL     1     -46.269 -53.437  15.826  1.00  0.00     0.000 C 
HETATM   21  C   UNL     1     -46.257 -51.953  15.450  1.00  0.00     0.000 C 
HETATM   22  C   UNL     1     -46.629 -51.657  13.996  1.00  0.00     0.002 C 
HETATM   23  C   UNL     1     -45.448 -51.351  13.071  1.00  0.00     0.025 C 
ENDBRANCH   3  16
TORSDOF 3
ENDMDL
MODEL 3
REMARK VINA RESULT:      -6.2      1.695      1.870
REMARK  3 active torsions:
REMARK  status: ('A' for Active; 'I' for Inactive)
REMARK    1  A    between atoms: N_6  and  C_7 
REMARK    2  A    between atoms: C_7  and  C_8 
REMARK       I    between atoms: C_8  and  N_10 
REMARK    3  A    between atoms: N_10  and  C_11 
ROOT
HETATM    1  C   UNL     1     -41.985 -52.402  13.077  1.00  0.00     0.237 C 
HETATM    2  O   UNL     1     -41.787 -52.857  14.203  1.00  0.00    -0.272 OA
HETATM    3  N   UNL     1     -43.254 -52.236  12.555  1.00  0.00    -0.355 N 
HETATM    4  H   UNL     1     -43.329 -51.872  11.610  1.00  0.00     0.162 HD
ENDROOT
BRANCH   1   5
HETATM    5  C   UNL     1     -40.838 -52.184  12.094  1.00  0.00     0.255 C 
BRANCH   5   6
HETATM    6  N   UNL     1     -39.944 -51.089  12.472  1.00  0.00    -0.248 N 
HETATM    7  N   UNL     1     -38.957 -51.385  13.385  1.00  0.00    -0.305 N 
HETATM    8  C   UNL     1     -38.237 -50.396  13.805  1.00  0.00     0.133 A 
ATOM      9  HN  UNL     1     -38.801 -52.337  13.714  1.00  0.00     0.186 HD
HETATM   10  C   UNL     1     -38.366 -48.999  13.378  1.00  0.00     0.078 A 
HETATM   11 CL   UNL     1     -37.290 -47.864  14.082  1.00  0.00    -0.081 Cl
HETATM   12  C   UNL     1     -39.302 -48.726  12.469  1.00  0.00     0.126 A 
HETATM   13  C   UNL     1     -40.178 -49.818  11.950  1.00  0.00     0.285 A 
HETATM   14 CL   UNL     1     -39.579 -47.136  11.852  1.00  0.00    -0.076 Cl
HETATM   15  O   UNL     1     -41.053 -49.586  11.119  1.00  0.00    -0.265 OA
ENDBRANCH   5   6
ENDBRANCH   1   5
BRANCH   3  16
HETATM   16  C   UNL     1     -44.453 -52.496  13.352  1.00  0.00     0.084 C 
HETATM   17  C   UNL     1     -44.858 -53.967  13.198  1.00  0.00     0.025 C 
HETATM   18  C   UNL     1     -45.938 -54.500  14.147  1.00  0.00     0.002 C 
HETATM   19  C   UNL     1     -45.819 -54.040  15.600  1.00  0.00     0.000 C 
HETATM   20  C   UNL     1     -46.779 -52.915  15.997  1.00  0.00     0.000 C 
HETATM   21  C   UNL     1     -46.549 -51.539  15.365  1.00  0.00     0.000 C 
HETATM   22  C   UNL     1     -46.808 -51.474  13.859  1.00  0.00     0.002 C 
HETATM   23  C   UNL     1     -45.554 -51.493  12.981  1.00  0.00     0.025 C 
ENDBRANCH   3  16
TORSDOF 3
ENDMDL
MODEL 4
REMARK VINA RESULT:      -6.0      4.092      7.283
REMARK  3 active torsions:
REMARK  status: ('A' for Active; 'I' for Inactive)
REMARK    1  A    between atoms: N_6  and  C_7 
REMARK    2  A    between atoms: C_7  and  C_8 
REMARK       I    between atoms: C_8  and  N_10 
REMARK    3  A    between atoms: N_10  and  C_11 
ROOT
HETATM    1  C   UNL     1     -40.967 -50.928  12.260  1.00  0.00     0.237 C 
HETATM    2  O   UNL     1     -40.544 -50.547  13.351  1.00  0.00    -0.272 OA
HETATM    3  N   UNL     1     -41.614 -50.083  11.377  1.00  0.00    -0.355 N 
HETATM    4  H   UNL     1     -41.950 -50.483  10.506  1.00  0.00     0.162 HD
ENDROOT
BRANCH   1   5
HETATM    5  C   UNL     1     -40.995 -52.409  11.891  1.00  0.00     0.255 C 
BRANCH   5   6
HETATM    6  N   UNL     1     -42.120 -53.137  12.479  1.00  0.00    -0.248 N 
HETATM    7  N   UNL     1     -43.360 -52.913  11.924  1.00  0.00    -0.305 N 
HETATM    8  C   UNL     1     -44.370 -53.467  12.511  1.00  0.00     0.133 A 
ATOM      9  HN  UNL     1     -43.476 -52.338  11.089  1.00  0.00     0.186 HD
HETATM   10  C   UNL     1     -44.306 -54.327  13.698  1.00  0.00     0.078 A 
HETATM   11 CL   UNL     1     -45.790 -54.947  14.294  1.00  0.00    -0.081 Cl
HETATM   12  C   UNL     1     -43.099 -54.565  14.210  1.00  0.00     0.126 A 
HETATM   13  C   UNL     1     -41.890 -53.948  13.590  1.00  0.00     0.285 A 
HETATM   14 CL   UNL     1     -42.847 -55.563  15.598  1.00  0.00    -0.076 Cl
HETATM   15  O   UNL     1     -40.769 -54.147  14.052  1.00  0.00    -0.265 OA
ENDBRANCH   5   6
ENDBRANCH   1   5
BRANCH   3  16
HETATM   16  C   UNL     1     -41.747 -48.650  11.642  1.00  0.00     0.084 C 
HETATM   17  C   UNL     1     -42.912 -48.417  12.611  1.00  0.00     0.025 C 
HETATM   18  C   UNL     1     -43.056 -47.013  13.208  1.00  0.00     0.002 C 
HETATM   19  C   UNL     1     -41.749 -46.345  13.639  1.00  0.00     0.000 C 
HETATM   20  C   UNL     1     -41.214 -45.296  12.661  1.00  0.00     0.000 C 
HETATM   21  C   UNL     1     -40.710 -45.792  11.303  1.00  0.00     0.000 C 
HETATM   22  C   UNL     1     -41.795 -46.356  10.384  1.00  0.00     0.002 C 
HETATM   23  C   UNL     1     -41.862 -47.884  10.316  1.00  0.00     0.025 C 
ENDBRANCH   3  16
TORSDOF 3
ENDMDL
MODEL 5
REMARK VINA RESULT:      -5.9      1.695      2.458
REMARK  3 active torsions:
REMARK  status: ('A' for Active; 'I' for Inactive)
REMARK    1  A    between atoms: N_6  and  C_7 
REMARK    2  A    between atoms: C_7  and  C_8 
REMARK       I    between atoms: C_8  and  N_10 
REMARK    3  A    between atoms: N_10  and  C_11 
ROOT
HETATM    1  C   UNL     1     -41.616 -50.463  12.498  1.00  0.00     0.237 C 
HETATM    2  O   UNL     1     -41.130 -50.522  13.627  1.00  0.00    -0.272 OA
HETATM    3  N   UNL     1     -42.726 -51.199  12.128  1.00  0.00    -0.355 N 
HETATM    4  H   UNL     1     -43.052 -51.107  11.170  1.00  0.00     0.162 HD
ENDROOT
BRANCH   1   5
HETATM    5  C   UNL     1     -40.905 -49.733  11.363  1.00  0.00     0.255 C 
BRANCH   5   6
HETATM    6  N   UNL     1     -41.534 -48.462  11.000  1.00  0.00    -0.248 N 
HETATM    7  N   UNL     1     -42.819 -48.526  10.510  1.00  0.00    -0.305 N 
HETATM    8  C   UNL     1     -43.336 -47.420  10.084  1.00  0.00     0.133 A 
ATOM      9  HN  UNL     1     -43.338 -49.403  10.483  1.00  0.00     0.186 HD
HETATM   10  C   UNL     1     -42.683 -46.106  10.100  1.00  0.00     0.078 A 
HETATM   11 CL   UNL     1     -43.578 -44.782   9.477  1.00  0.00    -0.081 Cl
HETATM   12  C   UNL     1     -41.451 -46.047  10.606  1.00  0.00     0.126 A 
HETATM   13  C   UNL     1     -40.789 -47.288  11.104  1.00  0.00     0.285 A 
HETATM   14 CL   UNL     1     -40.546 -44.578  10.708  1.00  0.00    -0.076 Cl
HETATM   15  O   UNL     1     -39.651 -47.257  11.566  1.00  0.00    -0.265 OA
ENDBRANCH   5   6
ENDBRANCH   1   5
BRANCH   3  16
HETATM   16  C   UNL     1     -43.459 -52.022  13.090  1.00  0.00     0.084 C 
HETATM   17  C   UNL     1     -43.976 -53.285  12.391  1.00  0.00     0.025 C 
HETATM   18  C   UNL     1     -44.550 -54.393  13.280  1.00  0.00     0.002 C 
HETATM   19  C   UNL     1     -43.771 -54.673  14.566  1.00  0.00     0.000 C 
HETATM   20  C   UNL     1     -44.387 -54.072  15.832  1.00  0.00     0.000 C 
HETATM   21  C   UNL     1     -44.382 -52.546  15.960  1.00  0.00     0.000 C 
HETATM   22  C   UNL     1     -45.279 -51.816  14.959  1.00  0.00     0.002 C 
HETATM   23  C   UNL     1     -44.550 -51.183  13.771  1.00  0.00     0.025 C 
ENDBRANCH   3  16
TORSDOF 3
ENDMDL
MODEL 6
REMARK VINA RESULT:      -5.8      2.934      3.204
REMARK  3 active torsions:
REMARK  status: ('A' for Active; 'I' for Inactive)
REMARK    1  A    between atoms: N_6  and  C_7 
REMARK    2  A    between atoms: C_7  and  C_8 
REMARK       I    between atoms: C_8  and  N_10 
REMARK    3  A    between atoms: N_10  and  C_11 
ROOT
HETATM    1  C   UNL     1     -41.259 -52.746  15.266  1.00  0.00     0.237 C 
HETATM    2  O   UNL     1     -41.809 -52.519  16.343  1.00  0.00    -0.272 OA
HETATM    3  N   UNL     1     -41.970 -53.018  14.112  1.00  0.00    -0.355 N 
HETATM    4  H   UNL     1     -41.438 -53.214  13.269  1.00  0.00     0.162 HD
ENDROOT
BRANCH   1   5
HETATM    5  C   UNL     1     -39.750 -52.949  15.169  1.00  0.00     0.255 C 
BRANCH   5   6
HETATM    6  N   UNL     1     -39.008 -51.713  14.916  1.00  0.00    -0.248 N 
HETATM    7  N   UNL     1     -38.581 -51.011  16.021  1.00  0.00    -0.305 N 
HETATM    8  C   UNL     1     -38.025 -49.864  15.804  1.00  0.00     0.133 A 
ATOM      9  HN  UNL     1     -38.697 -51.378  16.966  1.00  0.00     0.186 HD
HETATM   10  C   UNL     1     -37.791 -49.260  14.487  1.00  0.00     0.078 A 
HETATM   11 CL   UNL     1     -37.032 -47.722  14.457  1.00  0.00    -0.081 Cl
HETATM   12  C   UNL     1     -38.178 -49.961  13.421  1.00  0.00     0.126 A 
HETATM   13  C   UNL     1     -38.838 -51.287  13.600  1.00  0.00     0.285 A 
HETATM   14 CL   UNL     1     -37.968 -49.399  11.800  1.00  0.00    -0.076 Cl
HETATM   15  O   UNL     1     -39.211 -51.944  12.631  1.00  0.00    -0.265 OA
ENDBRANCH   5   6
ENDBRANCH   1   5
BRANCH   3  16
HETATM   16  C   UNL     1     -43.431 -52.954  14.076  1.00  0.00     0.084 C 
HETATM   17  C   UNL     1     -43.989 -54.301  13.601  1.00  0.00     0.025 C 
HETATM   18  C   UNL     1     -45.500 -54.520  13.734  1.00  0.00     0.002 C 
HETATM   19  C   UNL     1     -46.123 -54.017  15.037  1.00  0.00     0.000 C 
HETATM   20  C   UNL     1     -46.866 -52.683  14.918  1.00  0.00     0.000 C 
HETATM   21  C   UNL     1     -46.025 -51.434  14.639  1.00  0.00     0.000 C 
HETATM   22  C   UNL     1     -45.369 -51.398  13.258  1.00  0.00     0.002 C 
HETATM   23  C   UNL     1     -43.880 -51.750  13.235  1.00  0.00     0.025 C 
ENDBRANCH   3  16
TORSDOF 3
ENDMDL
MODEL 7
REMARK VINA RESULT:      -5.8      3.853      7.707
REMARK  3 active torsions:
REMARK  status: ('A' for Active; 'I' for Inactive)
REMARK    1  A    between atoms: N_6  and  C_7 
REMARK    2  A    between atoms: C_7  and  C_8 
REMARK       I    between atoms: C_8  and  N_10 
REMARK    3  A    between atoms: N_10  and  C_11 
ROOT
HETATM    1  C   UNL     1     -40.564 -48.574  11.837  1.00  0.00     0.237 C 
HETATM    2  O   UNL     1     -41.471 -48.447  12.660  1.00  0.00    -0.272 OA
HETATM    3  N   UNL     1     -39.872 -47.494  11.322  1.00  0.00    -0.355 N 
HETATM    4  H   UNL     1     -39.151 -47.685  10.632  1.00  0.00     0.162 HD
ENDROOT
BRANCH   1   5
HETATM    5  C   UNL     1     -40.278 -49.916  11.169  1.00  0.00     0.255 C 
BRANCH   5   6
HETATM    6  N   UNL     1     -40.799 -51.062  11.913  1.00  0.00    -0.248 N 
HETATM    7  N   UNL     1     -42.160 -51.264  11.865  1.00  0.00    -0.305 N 
HETATM    8  C   UNL     1     -42.637 -52.207  12.610  1.00  0.00     0.133 A 
ATOM      9  HN  UNL     1     -42.764 -50.696  11.271  1.00  0.00     0.186 HD
HETATM   10  C   UNL     1     -41.852 -53.091  13.480  1.00  0.00     0.078 A 
HETATM   11 CL   UNL     1     -42.716 -54.273  14.375  1.00  0.00    -0.081 Cl
HETATM   12  C   UNL     1     -40.532 -52.912  13.496  1.00  0.00     0.126 A 
HETATM   13  C   UNL     1     -39.916 -51.833  12.669  1.00  0.00     0.285 A 
HETATM   14 CL   UNL     1     -39.464 -53.873  14.456  1.00  0.00    -0.076 Cl
HETATM   15  O   UNL     1     -38.702 -51.644  12.677  1.00  0.00    -0.265 OA
ENDBRANCH   5   6
ENDBRANCH   1   5
BRANCH   3  16
HETATM   16  C   UNL     1     -40.107 -46.131  11.800  1.00  0.00     0.084 C 
HETATM   17  C   UNL     1     -39.834 -45.138  10.665  1.00  0.00     0.025 C 
HETATM   18  C   UNL     1     -40.262 -43.684  10.887  1.00  0.00     0.002 C 
HETATM   19  C   UNL     1     -41.623 -43.496  11.559  1.00  0.00     0.000 C 
HETATM   20  C   UNL     1     -41.559 -43.146  13.048  1.00  0.00     0.000 C 
HETATM   21  C   UNL     1     -41.047 -44.228  14.003  1.00  0.00     0.000 C 
HETATM   22  C   UNL     1     -39.568 -44.581  13.838  1.00  0.00     0.002 C 
HETATM   23  C   UNL     1     -39.289 -45.878  13.074  1.00  0.00     0.025 C 
ENDBRANCH   3  16
TORSDOF 3
ENDMDL
MODEL 8
REMARK VINA RESULT:      -5.6      1.292      1.630
REMARK  3 active torsions:
REMARK  status: ('A' for Active; 'I' for Inactive)
REMARK    1  A    between atoms: N_6  and  C_7 
REMARK    2  A    between atoms: C_7  and  C_8 
REMARK       I    between atoms: C_8  and  N_10 
REMARK    3  A    between atoms: N_10  and  C_11 
ROOT
HETATM    1  C   UNL     1     -41.782 -50.552  12.297  1.00  0.00     0.237 C 
HETATM    2  O   UNL     1     -42.000 -50.059  13.403  1.00  0.00    -0.272 OA
HETATM    3  N   UNL     1     -42.088 -51.866  11.996  1.00  0.00    -0.355 N 
HETATM    4  H   UNL     1     -41.857 -52.200  11.064  1.00  0.00     0.162 HD
ENDROOT
BRANCH   1   5
HETATM    5  C   UNL     1     -40.967 -49.810  11.241  1.00  0.00     0.255 C 
BRANCH   5   6
HETATM    6  N   UNL     1     -40.475 -48.508  11.691  1.00  0.00    -0.248 N 
HETATM    7  N   UNL     1     -39.585 -48.511  12.742  1.00  0.00    -0.305 N 
HETATM    8  C   UNL     1     -39.236 -47.360  13.214  1.00  0.00     0.133 A 
ATOM      9  HN  UNL     1     -39.220 -49.381  13.129  1.00  0.00     0.186 HD
HETATM   10  C   UNL     1     -39.687 -46.056  12.714  1.00  0.00     0.078 A 
HETATM   11 CL   UNL     1     -39.080 -44.662  13.510  1.00  0.00    -0.081 Cl
HETATM   12  C   UNL     1     -40.522 -46.059  11.676  1.00  0.00     0.126 A 
HETATM   13  C   UNL     1     -40.976 -47.354  11.089  1.00  0.00     0.285 A 
HETATM   14 CL   UNL     1     -41.139 -44.613  10.960  1.00  0.00    -0.076 Cl
HETATM   15  O   UNL     1     -41.754 -47.380  10.137  1.00  0.00    -0.265 OA
ENDBRANCH   5   6
ENDBRANCH   1   5
BRANCH   3  16
HETATM   16  C   UNL     1     -42.787 -52.730  12.947  1.00  0.00     0.084 C 
HETATM   17  C   UNL     1     -41.842 -53.843  13.416  1.00  0.00     0.025 C 
HETATM   18  C   UNL     1     -42.302 -54.700  14.599  1.00  0.00     0.002 C 
HETATM   19  C   UNL     1     -42.973 -53.937  15.742  1.00  0.00     0.000 C 
HETATM   20  C   UNL     1     -44.501 -54.033  15.765  1.00  0.00     0.000 C 
HETATM   21  C   UNL     1     -45.266 -53.347  14.630  1.00  0.00     0.000 C 
HETATM   22  C   UNL     1     -45.068 -53.976  13.251  1.00  0.00     0.002 C 
HETATM   23  C   UNL     1     -44.099 -53.232  12.328  1.00  0.00     0.025 C 
ENDBRANCH   3  16
TORSDOF 3
ENDMDL
MODEL 9
REMARK VINA RESULT:      -5.6      4.016      7.416
REMARK  3 active torsions:
REMARK  status: ('A' for Active; 'I' for Inactive)
REMARK    1  A    between atoms: N_6  and  C_7 
REMARK    2  A    between atoms: C_7  and  C_8 
REMARK       I    between atoms: C_8  and  N_10 
REMARK    3  A    between atoms: N_10  and  C_11 
ROOT
HETATM    1  C   UNL     1     -40.707 -50.595  12.179  1.00  0.00     0.237 C 
HETATM    2  O   UNL     1     -40.699 -50.191  11.017  1.00  0.00    -0.272 OA
HETATM    3  N   UNL     1     -40.808 -49.742  13.262  1.00  0.00    -0.355 N 
HETATM    4  H   UNL     1     -40.786 -50.157  14.190  1.00  0.00     0.162 HD
ENDROOT
BRANCH   1   5
HETATM    5  C   UNL     1     -40.394 -52.050  12.518  1.00  0.00     0.255 C 
BRANCH   5   6
HETATM    6  N   UNL     1     -41.583 -52.852  12.805  1.00  0.00    -0.248 N 
HETATM    7  N   UNL     1     -42.695 -52.610  12.029  1.00  0.00    -0.305 N 
HETATM    8  C   UNL     1     -43.780 -53.236  12.353  1.00  0.00     0.133 A 
ATOM      9  HN  UNL     1     -42.665 -51.968  11.238  1.00  0.00     0.186 HD
HETATM   10  C   UNL     1     -43.920 -54.194  13.455  1.00  0.00     0.078 A 
HETATM   11 CL   UNL     1     -45.467 -54.897  13.686  1.00  0.00    -0.081 Cl
HETATM   12  C   UNL     1     -42.831 -54.448  14.181  1.00  0.00     0.126 A 
HETATM   13  C   UNL     1     -41.548 -53.751  13.870  1.00  0.00     0.285 A 
HETATM   14 CL   UNL     1     -42.822 -55.556  15.506  1.00  0.00    -0.076 Cl
HETATM   15  O   UNL     1     -40.536 -53.964  14.533  1.00  0.00    -0.265 OA
ENDBRANCH   5   6
ENDBRANCH   1   5
BRANCH   3  16
HETATM   16  C   UNL     1     -41.016 -48.304  13.091  1.00  0.00     0.084 C 
HETATM   17  C   UNL     1     -39.985 -47.537  13.928  1.00  0.00     0.025 C 
HETATM   18  C   UNL     1     -39.875 -46.027  13.691  1.00  0.00     0.002 C 
HETATM   19  C   UNL     1     -39.936 -45.586  12.227  1.00  0.00     0.000 C 
HETATM   20  C   UNL     1     -41.287 -45.018  11.786  1.00  0.00     0.000 C 
HETATM   21  C   UNL     1     -42.470 -45.988  11.720  1.00  0.00     0.000 C 
HETATM   22  C   UNL     1     -42.935 -46.525  13.074  1.00  0.00     0.002 C 
HETATM   23  C   UNL     1     -42.477 -47.948  13.403  1.00  0.00     0.025 C 
ENDBRANCH   3  16
TORSDOF 3
ENDMDL
