MODEL 1
REMARK VINA RESULT:      -6.1      0.000      0.000
REMARK  2 active torsions:
REMARK  status: ('A' for Active; 'I' for Inactive)
REMARK    1  A    between atoms: C_6  and  C_7 
REMARK       I    between atoms: C_7  and  N_9 
REMARK    2  A    between atoms: N_9  and  C_10 
ROOT
HETATM    1  C   UNL     1     -41.869 -54.262  13.821  1.00  0.00     0.251 C 
HETATM    2  O   UNL     1     -41.972 -54.599  14.998  1.00  0.00    -0.270 OA
HETATM    3  N   UNL     1     -42.936 -53.965  12.988  1.00  0.00    -0.323 N 
HETATM    4  H   UNL     1     -42.686 -53.416  12.166  1.00  0.00     0.169 HD
ENDROOT
BRANCH   3   5
HETATM    5  C   UNL     1     -44.272 -53.900  13.441  1.00  0.00     0.059 A 
HETATM    6  C   UNL     1     -44.978 -55.066  13.727  1.00  0.00     0.048 A 
HETATM    7  C   UNL     1     -46.264 -54.952  14.213  1.00  0.00     0.090 A 
HETATM    8  N   UNL     1     -46.868 -53.770  14.456  1.00  0.00    -0.368 N 
HETATM    9  C   UNL     1     -46.174 -52.635  14.180  1.00  0.00     0.029 A 
ATOM     10  HN  UNL     1     -47.815 -53.731  14.833  1.00  0.00     0.165 HD
HETATM   11  C   UNL     1     -46.845 -51.352  14.574  1.00  0.00     0.070 C 
HETATM   12  C   UNL     1     -44.889 -52.654  13.630  1.00  0.00     0.083 A 
HETATM   13 CL   UNL     1     -44.029 -51.193  13.282  1.00  0.00    -0.080 Cl
ENDBRANCH   3   5
BRANCH   1  14
HETATM   14  C   UNL     1     -40.509 -54.149  13.103  1.00  0.00     0.217 C 
HETATM   15  C   UNL     1     -39.263 -54.115  13.981  1.00  0.00     0.022 C 
HETATM   16  C   UNL     1     -39.220 -55.019  15.202  1.00  0.00     0.013 C 
HETATM   17  C   UNL     1     -39.135 -52.644  14.321  1.00  0.00     0.033 C 
HETATM   18  C   UNL     1     -39.724 -51.947  13.111  1.00  0.00     0.169 C 
HETATM   19  O   UNL     1     -40.454 -52.919  12.348  1.00  0.00    -0.376 OA
ENDBRANCH   1  14
TORSDOF 2
ENDMDL
MODEL 2
REMARK VINA RESULT:      -5.9      2.429      5.896
REMARK  2 active torsions:
REMARK  status: ('A' for Active; 'I' for Inactive)
REMARK    1  A    between atoms: C_6  and  C_7 
REMARK       I    between atoms: C_7  and  N_9 
REMARK    2  A    between atoms: N_9  and  C_10 
ROOT
HETATM    1  C   UNL     1     -45.215 -54.109  13.918  1.00  0.00     0.251 C 
HETATM    2  O   UNL     1     -45.233 -54.805  12.906  1.00  0.00    -0.270 OA
HETATM    3  N   UNL     1     -44.102 -53.432  14.392  1.00  0.00    -0.323 N 
HETATM    4  H   UNL     1     -44.316 -52.673  15.036  1.00  0.00     0.169 HD
ENDROOT
BRANCH   3   5
HETATM    5  C   UNL     1     -42.880 -53.372  13.686  1.00  0.00     0.059 A 
HETATM    6  C   UNL     1     -42.745 -52.541  12.577  1.00  0.00     0.048 A 
HETATM    7  C   UNL     1     -41.519 -52.479  11.949  1.00  0.00     0.090 A 
HETATM    8  N   UNL     1     -40.431 -53.158  12.368  1.00  0.00    -0.368 N 
HETATM    9  C   UNL     1     -40.565 -53.964  13.454  1.00  0.00     0.029 A 
ATOM     10  HN  UNL     1     -39.537 -53.069  11.885  1.00  0.00     0.165 HD
HETATM   11  C   UNL     1     -39.302 -54.606  13.947  1.00  0.00     0.070 C 
HETATM   12  C   UNL     1     -41.784 -54.134  14.118  1.00  0.00     0.083 A 
HETATM   13 CL   UNL     1     -41.930 -55.173  15.493  1.00  0.00    -0.080 Cl
ENDBRANCH   3   5
BRANCH   1  14
HETATM   14  C   UNL     1     -46.451 -53.916  14.819  1.00  0.00     0.217 C 
HETATM   15  C   UNL     1     -46.855 -52.482  15.144  1.00  0.00     0.022 C 
HETATM   16  C   UNL     1     -46.751 -51.439  14.044  1.00  0.00     0.013 C 
HETATM   17  C   UNL     1     -46.001 -52.163  16.355  1.00  0.00     0.033 C 
HETATM   18  C   UNL     1     -45.831 -53.505  17.036  1.00  0.00     0.169 C 
HETATM   19  O   UNL     1     -46.219 -54.528  16.106  1.00  0.00    -0.376 OA
ENDBRANCH   1  14
TORSDOF 2
ENDMDL
MODEL 3
REMARK VINA RESULT:      -5.9      2.571      5.877
REMARK  2 active torsions:
REMARK  status: ('A' for Active; 'I' for Inactive)
REMARK    1  A    between atoms: C_6  and  C_7 
REMARK       I    between atoms: C_7  and  N_9 
REMARK    2  A    between atoms: N_9  and  C_10 
ROOT
HETATM    1  C   UNL     1     -43.715 -52.524  13.291  1.00  0.00     0.251 C 
HETATM    2  O   UNL     1     -43.229 -52.869  14.365  1.00  0.00    -0.270 OA
HETATM    3  N   UNL     1     -43.158 -51.584  12.437  1.00  0.00    -0.323 N 
HETATM    4  H   UNL     1     -43.497 -51.636  11.478  1.00  0.00     0.169 HD
ENDROOT
BRANCH   3   5
HETATM    5  C   UNL     1     -41.891 -50.999  12.657  1.00  0.00     0.059 A 
HETATM    6  C   UNL     1     -40.736 -51.620  12.188  1.00  0.00     0.048 A 
HETATM    7  C   UNL     1     -39.526 -50.988  12.383  1.00  0.00     0.090 A 
HETATM    8  N   UNL     1     -39.401 -49.785  12.980  1.00  0.00    -0.368 N 
HETATM    9  C   UNL     1     -40.531 -49.180  13.433  1.00  0.00     0.029 A 
ATOM     10  HN  UNL     1     -38.487 -49.344  13.089  1.00  0.00     0.165 HD
HETATM   11  C   UNL     1     -40.351 -47.797  13.985  1.00  0.00     0.070 C 
HETATM   12  C   UNL     1     -41.793 -49.773  13.331  1.00  0.00     0.083 A 
HETATM   13 CL   UNL     1     -43.215 -48.985  13.922  1.00  0.00    -0.080 Cl
ENDBRANCH   3   5
BRANCH   1  14
HETATM   14  C   UNL     1     -45.047 -53.089  12.759  1.00  0.00     0.217 C 
HETATM   15  C   UNL     1     -46.300 -52.798  13.579  1.00  0.00     0.022 C 
HETATM   16  C   UNL     1     -46.444 -51.421  14.206  1.00  0.00     0.013 C 
HETATM   17  C   UNL     1     -46.300 -53.922  14.595  1.00  0.00     0.033 C 
HETATM   18  C   UNL     1     -45.632 -55.066  13.861  1.00  0.00     0.169 C 
HETATM   19  O   UNL     1     -44.979 -54.530  12.700  1.00  0.00    -0.376 OA
ENDBRANCH   1  14
TORSDOF 2
ENDMDL
MODEL 4
REMARK VINA RESULT:      -5.7      2.199      5.547
REMARK  2 active torsions:
REMARK  status: ('A' for Active; 'I' for Inactive)
REMARK    1  A    between atoms: C_6  and  C_7 
REMARK       I    between atoms: C_7  and  N_9 
REMARK    2  A    between atoms: N_9  and  C_10 
ROOT
HETATM    1  C   UNL     1     -45.106 -53.962  13.880  1.00  0.00     0.251 C 
HETATM    2  O   UNL     1     -45.157 -54.459  12.757  1.00  0.00    -0.270 OA
HETATM    3  N   UNL     1     -43.970 -53.405  14.446  1.00  0.00    -0.323 N 
HETATM    4  H   UNL     1     -44.157 -52.775  15.225  1.00  0.00     0.169 HD
ENDROOT
BRANCH   3   5
HETATM    5  C   UNL     1     -42.760 -53.238  13.738  1.00  0.00     0.059 A 
HETATM    6  C   UNL     1     -41.895 -54.314  13.554  1.00  0.00     0.048 A 
HETATM    7  C   UNL     1     -40.749 -54.115  12.815  1.00  0.00     0.090 A 
HETATM    8  N   UNL     1     -40.430 -52.940  12.234  1.00  0.00    -0.368 N 
HETATM    9  C   UNL     1     -41.278 -51.894  12.412  1.00  0.00     0.029 A 
ATOM     10  HN  UNL     1     -39.579 -52.841  11.680  1.00  0.00     0.165 HD
HETATM   11  C   UNL     1     -40.938 -50.645  11.653  1.00  0.00     0.070 C 
HETATM   12  C   UNL     1     -42.434 -51.987  13.194  1.00  0.00     0.083 A 
HETATM   13 CL   UNL     1     -43.494 -50.638  13.411  1.00  0.00    -0.080 Cl
ENDBRANCH   3   5
BRANCH   1  14
HETATM   14  C   UNL     1     -46.322 -53.918  14.827  1.00  0.00     0.217 C 
HETATM   15  C   UNL     1     -46.827 -52.539  15.242  1.00  0.00     0.022 C 
HETATM   16  C   UNL     1     -46.843 -51.436  14.197  1.00  0.00     0.013 C 
HETATM   17  C   UNL     1     -45.959 -52.216  16.442  1.00  0.00     0.033 C 
HETATM   18  C   UNL     1     -45.660 -53.573  17.043  1.00  0.00     0.169 C 
HETATM   19  O   UNL     1     -45.998 -54.575  16.071  1.00  0.00    -0.376 OA
ENDBRANCH   1  14
TORSDOF 2
ENDMDL
MODEL 5
REMARK VINA RESULT:      -5.7      2.812      6.167
REMARK  2 active torsions:
REMARK  status: ('A' for Active; 'I' for Inactive)
REMARK    1  A    between atoms: C_6  and  C_7 
REMARK       I    between atoms: C_7  and  N_9 
REMARK    2  A    between atoms: N_9  and  C_10 
ROOT
HETATM    1  C   UNL     1     -43.905 -52.050  13.399  1.00  0.00     0.251 C 
HETATM    2  O   UNL     1     -43.489 -52.273  14.533  1.00  0.00    -0.270 OA
HETATM    3  N   UNL     1     -43.352 -51.132  12.520  1.00  0.00    -0.323 N 
HETATM    4  H   UNL     1     -43.602 -51.283  11.545  1.00  0.00     0.169 HD
ENDROOT
BRANCH   3   5
HETATM    5  C   UNL     1     -42.158 -50.429  12.793  1.00  0.00     0.059 A 
HETATM    6  C   UNL     1     -42.202 -49.144  13.329  1.00  0.00     0.048 A 
HETATM    7  C   UNL     1     -41.011 -48.515  13.624  1.00  0.00     0.090 A 
HETATM    8  N   UNL     1     -39.802 -49.087  13.449  1.00  0.00    -0.368 N 
HETATM    9  C   UNL     1     -39.763 -50.343  12.931  1.00  0.00     0.029 A 
ATOM     10  HN  UNL     1     -38.945 -48.593  13.698  1.00  0.00     0.165 HD
HETATM   11  C   UNL     1     -38.405 -50.976  12.863  1.00  0.00     0.070 C 
HETATM   12  C   UNL     1     -40.917 -51.034  12.547  1.00  0.00     0.083 A 
HETATM   13 CL   UNL     1     -40.840 -52.629  11.882  1.00  0.00    -0.080 Cl
ENDBRANCH   3   5
BRANCH   1  14
HETATM   14  C   UNL     1     -45.139 -52.763  12.809  1.00  0.00     0.217 C 
HETATM   15  C   UNL     1     -46.426 -52.712  13.627  1.00  0.00     0.022 C 
HETATM   16  C   UNL     1     -46.771 -51.417  14.343  1.00  0.00     0.013 C 
HETATM   17  C   UNL     1     -46.270 -53.892  14.565  1.00  0.00     0.033 C 
HETATM   18  C   UNL     1     -45.439 -54.875  13.767  1.00  0.00     0.169 C 
HETATM   19  O   UNL     1     -44.863 -54.172  12.655  1.00  0.00    -0.376 OA
ENDBRANCH   1  14
TORSDOF 2
ENDMDL
MODEL 6
REMARK VINA RESULT:      -5.6      2.792      4.092
REMARK  2 active torsions:
REMARK  status: ('A' for Active; 'I' for Inactive)
REMARK    1  A    between atoms: C_6  and  C_7 
REMARK       I    between atoms: C_7  and  N_9 
REMARK    2  A    between atoms: N_9  and  C_10 
ROOT
HETATM    1  C   UNL     1     -41.495 -50.735  12.191  1.00  0.00     0.251 C 
HETATM    2  O   UNL     1     -41.967 -50.141  13.157  1.00  0.00    -0.270 OA
HETATM    3  N   UNL     1     -41.687 -52.080  11.919  1.00  0.00    -0.323 N 
HETATM    4  H   UNL     1     -41.502 -52.343  10.952  1.00  0.00     0.169 HD
ENDROOT
BRANCH   3   5
HETATM    5  C   UNL     1     -42.559 -52.900  12.669  1.00  0.00     0.059 A 
HETATM    6  C   UNL     1     -43.891 -53.045  12.291  1.00  0.00     0.048 A 
HETATM    7  C   UNL     1     -44.692 -53.895  13.025  1.00  0.00     0.090 A 
HETATM    8  N   UNL     1     -44.250 -54.616  14.075  1.00  0.00    -0.368 N 
HETATM    9  C   UNL     1     -42.948 -54.476  14.438  1.00  0.00     0.029 A 
ATOM     10  HN  UNL     1     -44.873 -55.247  14.580  1.00  0.00     0.165 HD
HETATM   11  C   UNL     1     -42.477 -55.383  15.536  1.00  0.00     0.070 C 
HETATM   12  C   UNL     1     -42.077 -53.594  13.789  1.00  0.00     0.083 A 
HETATM   13 CL   UNL     1     -40.426 -53.428  14.275  1.00  0.00    -0.080 Cl
ENDBRANCH   3   5
BRANCH   1  14
HETATM   14  C   UNL     1     -40.588 -50.046  11.151  1.00  0.00     0.217 C 
HETATM   15  C   UNL     1     -39.176 -49.679  11.597  1.00  0.00     0.022 C 
HETATM   16  C   UNL     1     -38.428 -50.657  12.487  1.00  0.00     0.013 C 
HETATM   17  C   UNL     1     -39.373 -48.319  12.236  1.00  0.00     0.033 C 
HETATM   18  C   UNL     1     -40.539 -47.730  11.468  1.00  0.00     0.169 C 
HETATM   19  O   UNL     1     -41.176 -48.792  10.743  1.00  0.00    -0.376 OA
ENDBRANCH   1  14
TORSDOF 2
ENDMDL
MODEL 7
REMARK VINA RESULT:      -5.5      2.302      3.251
REMARK  2 active torsions:
REMARK  status: ('A' for Active; 'I' for Inactive)
REMARK    1  A    between atoms: C_6  and  C_7 
REMARK       I    between atoms: C_7  and  N_9 
REMARK    2  A    between atoms: N_9  and  C_10 
ROOT
HETATM    1  C   UNL     1     -40.470 -51.471  12.967  1.00  0.00     0.251 C 
HETATM    2  O   UNL     1     -40.676 -51.379  11.759  1.00  0.00    -0.270 OA
HETATM    3  N   UNL     1     -41.398 -51.916  13.895  1.00  0.00    -0.323 N 
HETATM    4  H   UNL     1     -40.993 -52.224  14.778  1.00  0.00     0.169 HD
ENDROOT
BRANCH   3   5
HETATM    5  C   UNL     1     -42.661 -52.434  13.534  1.00  0.00     0.059 A 
HETATM    6  C   UNL     1     -42.804 -53.780  13.205  1.00  0.00     0.048 A 
HETATM    7  C   UNL     1     -44.065 -54.252  12.905  1.00  0.00     0.090 A 
HETATM    8  N   UNL     1     -45.176 -53.487  12.941  1.00  0.00    -0.368 N 
HETATM    9  C   UNL     1     -45.033 -52.175  13.267  1.00  0.00     0.029 A 
ATOM     10  HN  UNL     1     -46.093 -53.881  12.729  1.00  0.00     0.165 HD
HETATM   11  C   UNL     1     -46.308 -51.397  13.403  1.00  0.00     0.070 C 
HETATM   12  C   UNL     1     -43.787 -51.597  13.528  1.00  0.00     0.083 A 
HETATM   13 CL   UNL     1     -43.631 -49.923  13.934  1.00  0.00    -0.080 Cl
ENDBRANCH   3   5
BRANCH   1  14
HETATM   14  C   UNL     1     -39.131 -51.069  13.617  1.00  0.00     0.217 C 
HETATM   15  C   UNL     1     -38.815 -49.578  13.687  1.00  0.00     0.022 C 
HETATM   16  C   UNL     1     -39.948 -48.619  14.012  1.00  0.00     0.013 C 
HETATM   17  C   UNL     1     -38.171 -49.311  12.342  1.00  0.00     0.033 C 
HETATM   18  C   UNL     1     -37.501 -50.626  12.000  1.00  0.00     0.169 C 
HETATM   19  O   UNL     1     -38.034 -51.637  12.869  1.00  0.00    -0.376 OA
ENDBRANCH   1  14
TORSDOF 2
ENDMDL
MODEL 8
REMARK VINA RESULT:      -5.4      2.465      5.888
REMARK  2 active torsions:
REMARK  status: ('A' for Active; 'I' for Inactive)
REMARK    1  A    between atoms: C_6  and  C_7 
REMARK       I    between atoms: C_7  and  N_9 
REMARK    2  A    between atoms: N_9  and  C_10 
ROOT
HETATM    1  C   UNL     1     -44.570 -53.505  15.439  1.00  0.00     0.251 C 
HETATM    2  O   UNL     1     -44.070 -52.570  16.058  1.00  0.00    -0.270 OA
HETATM    3  N   UNL     1     -43.886 -54.639  15.030  1.00  0.00    -0.323 N 
HETATM    4  H   UNL     1     -44.484 -55.435  14.816  1.00  0.00     0.169 HD
ENDROOT
BRANCH   3   5
HETATM    5  C   UNL     1     -42.546 -54.901  15.391  1.00  0.00     0.059 A 
HETATM    6  C   UNL     1     -42.255 -55.700  16.495  1.00  0.00     0.048 A 
HETATM    7  C   UNL     1     -40.933 -55.968  16.780  1.00  0.00     0.090 A 
HETATM    8  N   UNL     1     -39.903 -55.522  16.032  1.00  0.00    -0.368 N 
HETATM    9  C   UNL     1     -40.191 -54.747  14.954  1.00  0.00     0.029 A 
ATOM     10  HN  UNL     1     -38.939 -55.759  16.269  1.00  0.00     0.165 HD
HETATM   11  C   UNL     1     -39.021 -54.372  14.092  1.00  0.00     0.070 C 
HETATM   12  C   UNL     1     -41.497 -54.375  14.622  1.00  0.00     0.083 A 
HETATM   13 CL   UNL     1     -41.836 -53.381  13.248  1.00  0.00    -0.080 Cl
ENDBRANCH   3   5
BRANCH   1  14
HETATM   14  C   UNL     1     -46.051 -53.522  15.008  1.00  0.00     0.217 C 
HETATM   15  C   UNL     1     -46.417 -52.736  13.753  1.00  0.00     0.022 C 
HETATM   16  C   UNL     1     -45.453 -52.769  12.579  1.00  0.00     0.013 C 
HETATM   17  C   UNL     1     -46.654 -51.340  14.294  1.00  0.00     0.033 C 
HETATM   18  C   UNL     1     -47.159 -51.583  15.701  1.00  0.00     0.169 C 
HETATM   19  O   UNL     1     -46.870 -52.946  16.049  1.00  0.00    -0.376 OA
ENDBRANCH   1  14
TORSDOF 2
ENDMDL
MODEL 9
REMARK VINA RESULT:      -5.4      4.124      6.056
REMARK  2 active torsions:
REMARK  status: ('A' for Active; 'I' for Inactive)
REMARK    1  A    between atoms: C_6  and  C_7 
REMARK       I    between atoms: C_7  and  N_9 
REMARK    2  A    between atoms: N_9  and  C_10 
ROOT
HETATM    1  C   UNL     1     -41.765 -49.424  11.700  1.00  0.00     0.251 C 
HETATM    2  O   UNL     1     -42.387 -49.187  12.732  1.00  0.00    -0.270 OA
HETATM    3  N   UNL     1     -41.144 -50.629  11.410  1.00  0.00    -0.323 N 
HETATM    4  H   UNL     1     -40.948 -50.772  10.421  1.00  0.00     0.169 HD
ENDROOT
BRANCH   3   5
HETATM    5  C   UNL     1     -41.262 -51.773  12.230  1.00  0.00     0.059 A 
HETATM    6  C   UNL     1     -42.437 -52.520  12.233  1.00  0.00     0.048 A 
HETATM    7  C   UNL     1     -42.489 -53.656  13.013  1.00  0.00     0.090 A 
HETATM    8  N   UNL     1     -41.453 -54.101  13.754  1.00  0.00    -0.368 N 
HETATM    9  C   UNL     1     -40.307 -53.372  13.744  1.00  0.00     0.029 A 
ATOM     10  HN  UNL     1     -41.528 -54.957  14.303  1.00  0.00     0.165 HD
HETATM   11  C   UNL     1     -39.151 -53.968  14.491  1.00  0.00     0.070 C 
HETATM   12  C   UNL     1     -40.183 -52.176  13.030  1.00  0.00     0.083 A 
HETATM   13 CL   UNL     1     -38.714 -51.261  13.041  1.00  0.00    -0.080 Cl
ENDBRANCH   3   5
BRANCH   1  14
HETATM   14  C   UNL     1     -41.573 -48.377  10.584  1.00  0.00     0.217 C 
HETATM   15  C   UNL     1     -40.904 -47.063  10.974  1.00  0.00     0.022 C 
HETATM   16  C   UNL     1     -39.744 -47.110  11.954  1.00  0.00     0.013 C 
HETATM   17  C   UNL     1     -42.071 -46.231  11.468  1.00  0.00     0.033 C 
HETATM   18  C   UNL     1     -43.243 -46.743  10.655  1.00  0.00     0.169 C 
HETATM   19  O   UNL     1     -42.857 -47.987  10.052  1.00  0.00    -0.376 OA
ENDBRANCH   1  14
TORSDOF 2
ENDMDL
