MODEL 1
REMARK VINA RESULT:      -6.3      0.000      0.000
REMARK  4 active torsions:
REMARK  status: ('A' for Active; 'I' for Inactive)
REMARK    1  A    between atoms: O_1  and  C_2 
REMARK    2  A    between atoms: C_2  and  C_3 
REMARK    3  A    between atoms: C_3  and  N_4 
REMARK    4  A    between atoms: N_11  and  C_12 
ROOT
HETATM    1  N   UNL     1     -41.743 -52.686  13.058  1.00  0.00    -0.262 N 
HETATM    2  C   UNL     1     -41.349 -53.736  13.877  1.00  0.00     0.273 C 
HETATM    3  O   UNL     1     -42.118 -54.615  14.268  1.00  0.00    -0.266 OA
HETATM    4  C   UNL     1     -39.928 -53.750  14.288  1.00  0.00     0.128 C 
HETATM    5  C   UNL     1     -39.402 -54.859  15.000  1.00  0.00     0.106 C 
HETATM    6  N   UNL     1     -38.910 -55.736  15.579  1.00  0.00    -0.191 NA
HETATM    7  C   UNL     1     -39.169 -52.692  13.985  1.00  0.00     0.124 C 
HETATM    8  N   UNL     1     -39.658 -51.604  13.301  1.00  0.00    -0.303 N 
HETATM    9  C   UNL     1     -40.953 -51.575  12.763  1.00  0.00     0.332 C 
HETATM   10  O   UNL     1     -41.360 -50.641  12.073  1.00  0.00    -0.246 OA
ENDROOT
BRANCH   1  11
HETATM   11  C   UNL     1     -43.087 -52.747  12.471  1.00  0.00     0.175 C 
BRANCH  11  12
HETATM   12  C   UNL     1     -44.108 -51.811  13.184  1.00  0.00     0.074 C 
HETATM   13  C   UNL     1     -45.543 -52.325  12.934  1.00  0.00     0.039 C 
HETATM   14  C   UNL     1     -46.601 -51.520  13.692  1.00  0.00     0.003 C 
HETATM   15  C   UNL     1     -46.293 -51.452  15.184  1.00  0.00     0.000 C 
HETATM   16  C   UNL     1     -44.899 -50.894  15.433  1.00  0.00     0.003 C 
HETATM   17  C   UNL     1     -43.835 -51.707  14.695  1.00  0.00     0.039 C 
BRANCH  12  18
HETATM   18  O   UNL     1     -44.012 -50.485  12.642  1.00  0.00    -0.388 OA
HETATM   19  H   UNL     1     -43.407 -50.506  11.875  1.00  0.00     0.210 HD
ENDBRANCH  12  18
ENDBRANCH  11  12
ENDBRANCH   1  11
BRANCH   8  20
HETATM   20  C   UNL     1     -38.750 -50.509  13.037  1.00  0.00     0.094 A 
HETATM   21  C   UNL     1     -37.794 -50.512  11.867  1.00  0.00     0.028 A 
HETATM   22  C   UNL     1     -37.263 -50.657  13.258  1.00  0.00     0.028 A 
ENDBRANCH   8  20
TORSDOF 4
ENDMDL
MODEL 2
REMARK VINA RESULT:      -6.0      1.483      3.579
REMARK  4 active torsions:
REMARK  status: ('A' for Active; 'I' for Inactive)
REMARK    1  A    between atoms: O_1  and  C_2 
REMARK    2  A    between atoms: C_2  and  C_3 
REMARK    3  A    between atoms: C_3  and  N_4 
REMARK    4  A    between atoms: N_11  and  C_12 
ROOT
HETATM    1  N   UNL     1     -42.254 -53.848  13.440  1.00  0.00    -0.262 N 
HETATM    2  C   UNL     1     -41.192 -53.092  12.958  1.00  0.00     0.273 C 
HETATM    3  O   UNL     1     -41.216 -52.501  11.879  1.00  0.00    -0.266 OA
HETATM    4  C   UNL     1     -39.986 -53.036  13.813  1.00  0.00     0.128 C 
HETATM    5  C   UNL     1     -38.912 -52.174  13.476  1.00  0.00     0.106 C 
HETATM    6  N   UNL     1     -38.001 -51.486  13.258  1.00  0.00    -0.191 NA
HETATM    7  C   UNL     1     -39.935 -53.826  14.892  1.00  0.00     0.124 C 
HETATM    8  N   UNL     1     -40.961 -54.674  15.235  1.00  0.00    -0.303 N 
HETATM    9  C   UNL     1     -42.186 -54.685  14.553  1.00  0.00     0.332 C 
HETATM   10  O   UNL     1     -43.137 -55.378  14.916  1.00  0.00    -0.246 OA
ENDROOT
BRANCH   1  11
HETATM   11  C   UNL     1     -43.530 -53.765  12.720  1.00  0.00     0.175 C 
BRANCH  11  12
HETATM   12  C   UNL     1     -44.376 -52.518  13.116  1.00  0.00     0.074 C 
HETATM   13  C   UNL     1     -45.820 -52.686  12.598  1.00  0.00     0.039 C 
HETATM   14  C   UNL     1     -46.745 -51.550  13.041  1.00  0.00     0.003 C 
HETATM   15  C   UNL     1     -46.721 -51.364  14.555  1.00  0.00     0.000 C 
HETATM   16  C   UNL     1     -45.301 -51.142  15.059  1.00  0.00     0.003 C 
HETATM   17  C   UNL     1     -44.378 -52.286  14.638  1.00  0.00     0.039 C 
BRANCH  12  18
HETATM   18  O   UNL     1     -43.821 -51.342  12.507  1.00  0.00    -0.388 OA
HETATM   19  H   UNL     1     -44.527 -50.888  12.008  1.00  0.00     0.210 HD
ENDBRANCH  12  18
ENDBRANCH  11  12
ENDBRANCH   1  11
BRANCH   8  20
HETATM   20  C   UNL     1     -40.793 -55.492  16.416  1.00  0.00     0.094 A 
HETATM   21  C   UNL     1     -41.005 -54.953  17.813  1.00  0.00     0.028 A 
HETATM   22  C   UNL     1     -39.622 -55.287  17.349  1.00  0.00     0.028 A 
ENDBRANCH   8  20
TORSDOF 4
ENDMDL
MODEL 3
REMARK VINA RESULT:      -5.8      3.800      4.719
REMARK  4 active torsions:
REMARK  status: ('A' for Active; 'I' for Inactive)
REMARK    1  A    between atoms: O_1  and  C_2 
REMARK    2  A    between atoms: C_2  and  C_3 
REMARK    3  A    between atoms: C_3  and  N_4 
REMARK    4  A    between atoms: N_11  and  C_12 
ROOT
HETATM    1  N   UNL     1     -41.647 -48.852  12.442  1.00  0.00    -0.262 N 
HETATM    2  C   UNL     1     -42.239 -50.076  12.726  1.00  0.00     0.273 C 
HETATM    3  O   UNL     1     -43.432 -50.203  13.002  1.00  0.00    -0.266 OA
HETATM    4  C   UNL     1     -41.349 -51.257  12.699  1.00  0.00     0.128 C 
HETATM    5  C   UNL     1     -41.890 -52.562  12.831  1.00  0.00     0.106 C 
HETATM    6  N   UNL     1     -42.271 -53.655  12.929  1.00  0.00    -0.191 NA
HETATM    7  C   UNL     1     -40.033 -51.058  12.565  1.00  0.00     0.124 C 
HETATM    8  N   UNL     1     -39.485 -49.803  12.442  1.00  0.00    -0.303 N 
HETATM    9  C   UNL     1     -40.272 -48.649  12.324  1.00  0.00     0.332 C 
HETATM   10  O   UNL     1     -39.785 -47.536  12.122  1.00  0.00    -0.246 OA
ENDROOT
BRANCH   1  11
HETATM   11  C   UNL     1     -42.529 -47.693  12.264  1.00  0.00     0.175 C 
BRANCH  11  12
HETATM   12  C   UNL     1     -42.945 -47.463  10.780  1.00  0.00     0.074 C 
HETATM   13  C   UNL     1     -44.426 -47.854  10.591  1.00  0.00     0.039 C 
HETATM   14  C   UNL     1     -44.943 -47.554   9.182  1.00  0.00     0.003 C 
HETATM   15  C   UNL     1     -44.704 -46.099   8.793  1.00  0.00     0.000 C 
HETATM   16  C   UNL     1     -43.233 -45.729   8.927  1.00  0.00     0.003 C 
HETATM   17  C   UNL     1     -42.717 -46.006  10.339  1.00  0.00     0.039 C 
BRANCH  12  18
HETATM   18  O   UNL     1     -42.154 -48.297   9.920  1.00  0.00    -0.388 OA
HETATM   19  H   UNL     1     -42.079 -49.181  10.327  1.00  0.00     0.210 HD
ENDBRANCH  12  18
ENDBRANCH  11  12
ENDBRANCH   1  11
BRANCH   8  20
HETATM   20  C   UNL     1     -38.047 -49.705  12.314  1.00  0.00     0.094 A 
HETATM   21  C   UNL     1     -37.328 -49.985  11.014  1.00  0.00     0.028 A 
HETATM   22  C   UNL     1     -37.191 -50.939  12.159  1.00  0.00     0.028 A 
ENDBRANCH   8  20
TORSDOF 4
ENDMDL
MODEL 4
REMARK VINA RESULT:      -5.6      1.805      5.415
REMARK  4 active torsions:
REMARK  status: ('A' for Active; 'I' for Inactive)
REMARK    1  A    between atoms: O_1  and  C_2 
REMARK    2  A    between atoms: C_2  and  C_3 
REMARK    3  A    between atoms: C_3  and  N_4 
REMARK    4  A    between atoms: N_11  and  C_12 
ROOT
HETATM    1  N   UNL     1     -41.975 -52.486  13.028  1.00  0.00    -0.262 N 
HETATM    2  C   UNL     1     -41.868 -53.743  13.608  1.00  0.00     0.273 C 
HETATM    3  O   UNL     1     -40.984 -54.549  13.316  1.00  0.00    -0.266 OA
HETATM    4  C   UNL     1     -42.898 -54.095  14.609  1.00  0.00     0.128 C 
HETATM    5  C   UNL     1     -42.786 -55.294  15.358  1.00  0.00     0.106 C 
HETATM    6  N   UNL     1     -42.749 -56.257  16.007  1.00  0.00    -0.191 NA
HETATM    7  C   UNL     1     -43.934 -53.265  14.772  1.00  0.00     0.124 C 
HETATM    8  N   UNL     1     -44.068 -52.100  14.053  1.00  0.00    -0.303 N 
HETATM    9  C   UNL     1     -43.069 -51.634  13.186  1.00  0.00     0.332 C 
HETATM   10  O   UNL     1     -43.147 -50.548  12.613  1.00  0.00    -0.246 OA
ENDROOT
BRANCH   1  11
HETATM   11  C   UNL     1     -40.866 -52.027  12.185  1.00  0.00     0.175 C 
BRANCH  11  12
HETATM   12  C   UNL     1     -39.667 -51.463  13.004  1.00  0.00     0.074 C 
HETATM   13  C   UNL     1     -38.907 -50.419  12.158  1.00  0.00     0.039 C 
HETATM   14  C   UNL     1     -37.777 -49.738  12.933  1.00  0.00     0.003 C 
HETATM   15  C   UNL     1     -38.277 -49.129  14.239  1.00  0.00     0.000 C 
HETATM   16  C   UNL     1     -38.979 -50.172  15.098  1.00  0.00     0.003 C 
HETATM   17  C   UNL     1     -40.123 -50.841  14.336  1.00  0.00     0.039 C 
BRANCH  12  18
HETATM   18  O   UNL     1     -38.754 -52.526  13.321  1.00  0.00    -0.388 OA
HETATM   19  H   UNL     1     -38.830 -53.216  12.635  1.00  0.00     0.210 HD
ENDBRANCH  12  18
ENDBRANCH  11  12
ENDBRANCH   1  11
BRANCH   8  20
HETATM   20  C   UNL     1     -45.236 -51.284  14.303  1.00  0.00     0.094 A 
HETATM   21  C   UNL     1     -46.517 -51.853  14.868  1.00  0.00     0.028 A 
HETATM   22  C   UNL     1     -46.471 -51.403  13.441  1.00  0.00     0.028 A 
ENDBRANCH   8  20
TORSDOF 4
ENDMDL
MODEL 5
REMARK VINA RESULT:      -5.5      2.541      3.582
REMARK  4 active torsions:
REMARK  status: ('A' for Active; 'I' for Inactive)
REMARK    1  A    between atoms: O_1  and  C_2 
REMARK    2  A    between atoms: C_2  and  C_3 
REMARK    3  A    between atoms: C_3  and  N_4 
REMARK    4  A    between atoms: N_11  and  C_12 
ROOT
HETATM    1  N   UNL     1     -41.420 -50.073  13.931  1.00  0.00    -0.262 N 
HETATM    2  C   UNL     1     -40.221 -50.764  13.806  1.00  0.00     0.273 C 
HETATM    3  O   UNL     1     -39.983 -51.818  14.397  1.00  0.00    -0.266 OA
HETATM    4  C   UNL     1     -39.203 -50.157  12.921  1.00  0.00     0.128 C 
HETATM    5  C   UNL     1     -38.011 -50.862  12.617  1.00  0.00     0.106 C 
HETATM    6  N   UNL     1     -37.017 -51.388  12.326  1.00  0.00    -0.191 NA
HETATM    7  C   UNL     1     -39.434 -48.933  12.435  1.00  0.00     0.124 C 
HETATM    8  N   UNL     1     -40.579 -48.228  12.721  1.00  0.00    -0.303 N 
HETATM    9  C   UNL     1     -41.645 -48.787  13.439  1.00  0.00     0.332 C 
HETATM   10  O   UNL     1     -42.707 -48.190  13.617  1.00  0.00    -0.246 OA
ENDROOT
BRANCH   1  11
HETATM   11  C   UNL     1     -42.520 -50.740  14.637  1.00  0.00     0.175 C 
BRANCH  11  12
HETATM   12  C   UNL     1     -43.524 -51.446  13.677  1.00  0.00     0.074 C 
HETATM   13  C   UNL     1     -43.281 -52.971  13.704  1.00  0.00     0.039 C 
HETATM   14  C   UNL     1     -44.300 -53.749  12.869  1.00  0.00     0.003 C 
HETATM   15  C   UNL     1     -45.731 -53.412  13.272  1.00  0.00     0.000 C 
HETATM   16  C   UNL     1     -45.988 -51.913  13.192  1.00  0.00     0.003 C 
HETATM   17  C   UNL     1     -44.985 -51.133  14.043  1.00  0.00     0.039 C 
BRANCH  12  18
HETATM   18  O   UNL     1     -43.314 -50.988  12.333  1.00  0.00    -0.388 OA
HETATM   19  H   UNL     1     -42.953 -50.082  12.366  1.00  0.00     0.210 HD
ENDBRANCH  12  18
ENDBRANCH  11  12
ENDBRANCH   1  11
BRANCH   8  20
HETATM   20  C   UNL     1     -40.717 -46.906  12.150  1.00  0.00     0.094 A 
HETATM   21  C   UNL     1     -41.209 -46.679  10.739  1.00  0.00     0.028 A 
HETATM   22  C   UNL     1     -39.775 -46.416  11.076  1.00  0.00     0.028 A 
ENDBRANCH   8  20
TORSDOF 4
ENDMDL
MODEL 6
REMARK VINA RESULT:      -5.5      4.890      7.919
REMARK  4 active torsions:
REMARK  status: ('A' for Active; 'I' for Inactive)
REMARK    1  A    between atoms: O_1  and  C_2 
REMARK    2  A    between atoms: C_2  and  C_3 
REMARK    3  A    between atoms: C_3  and  N_4 
REMARK    4  A    between atoms: N_11  and  C_12 
ROOT
HETATM    1  N   UNL     1     -41.379 -47.405  12.643  1.00  0.00    -0.262 N 
HETATM    2  C   UNL     1     -40.966 -46.079  12.667  1.00  0.00     0.273 C 
HETATM    3  O   UNL     1     -40.270 -45.603  13.564  1.00  0.00    -0.266 OA
HETATM    4  C   UNL     1     -41.422 -45.229  11.545  1.00  0.00     0.128 C 
HETATM    5  C   UNL     1     -40.931 -43.906  11.407  1.00  0.00     0.106 C 
HETATM    6  N   UNL     1     -40.564 -42.817  11.236  1.00  0.00    -0.191 NA
HETATM    7  C   UNL     1     -42.312 -45.736  10.686  1.00  0.00     0.124 C 
HETATM    8  N   UNL     1     -42.807 -47.014  10.803  1.00  0.00    -0.303 N 
HETATM    9  C   UNL     1     -42.324 -47.921  11.756  1.00  0.00     0.332 C 
HETATM   10  O   UNL     1     -42.700 -49.093  11.803  1.00  0.00    -0.246 OA
ENDROOT
BRANCH   1  11
HETATM   11  C   UNL     1     -40.786 -48.321  13.624  1.00  0.00     0.175 C 
BRANCH  11  12
HETATM   12  C   UNL     1     -39.334 -48.750  13.262  1.00  0.00     0.074 C 
HETATM   13  C   UNL     1     -38.928 -49.973  14.111  1.00  0.00     0.039 C 
HETATM   14  C   UNL     1     -37.550 -50.525  13.736  1.00  0.00     0.003 C 
HETATM   15  C   UNL     1     -37.455 -50.833  12.246  1.00  0.00     0.000 C 
HETATM   16  C   UNL     1     -37.801 -49.611  11.407  1.00  0.00     0.003 C 
HETATM   17  C   UNL     1     -39.186 -49.069  11.763  1.00  0.00     0.039 C 
BRANCH  12  18
HETATM   18  O   UNL     1     -38.423 -47.681  13.561  1.00  0.00    -0.388 OA
HETATM   19  H   UNL     1     -38.620 -46.930  12.969  1.00  0.00     0.210 HD
ENDBRANCH  12  18
ENDBRANCH  11  12
ENDBRANCH   1  11
BRANCH   8  20
HETATM   20  C   UNL     1     -43.775 -47.454   9.823  1.00  0.00     0.094 A 
HETATM   21  C   UNL     1     -43.454 -47.544   8.348  1.00  0.00     0.028 A 
HETATM   22  C   UNL     1     -44.389 -46.485   8.840  1.00  0.00     0.028 A 
ENDBRANCH   8  20
TORSDOF 4
ENDMDL
MODEL 7
REMARK VINA RESULT:      -5.3      4.679      6.514
REMARK  4 active torsions:
REMARK  status: ('A' for Active; 'I' for Inactive)
REMARK    1  A    between atoms: O_1  and  C_2 
REMARK    2  A    between atoms: C_2  and  C_3 
REMARK    3  A    between atoms: C_3  and  N_4 
REMARK    4  A    between atoms: N_11  and  C_12 
ROOT
HETATM    1  N   UNL     1     -40.804 -48.067  11.215  1.00  0.00    -0.262 N 
HETATM    2  C   UNL     1     -41.736 -47.483  10.366  1.00  0.00     0.273 C 
HETATM    3  O   UNL     1     -42.380 -48.118   9.530  1.00  0.00    -0.266 OA
HETATM    4  C   UNL     1     -41.920 -46.022  10.499  1.00  0.00     0.128 C 
HETATM    5  C   UNL     1     -42.952 -45.364   9.780  1.00  0.00     0.106 C 
HETATM    6  N   UNL     1     -43.779 -44.768   9.224  1.00  0.00    -0.191 NA
HETATM    7  C   UNL     1     -41.084 -45.346  11.295  1.00  0.00     0.124 C 
HETATM    8  N   UNL     1     -40.074 -45.961  11.996  1.00  0.00    -0.303 N 
HETATM    9  C   UNL     1     -39.921 -47.354  12.027  1.00  0.00     0.332 C 
HETATM   10  O   UNL     1     -39.074 -47.910  12.726  1.00  0.00    -0.246 OA
ENDROOT
BRANCH   1  11
HETATM   11  C   UNL     1     -40.738 -49.532  11.251  1.00  0.00     0.175 C 
BRANCH  11  12
HETATM   12  C   UNL     1     -41.481 -50.147  12.474  1.00  0.00     0.074 C 
HETATM   13  C   UNL     1     -42.716 -49.287  12.816  1.00  0.00     0.039 C 
HETATM   14  C   UNL     1     -43.563 -49.887  13.942  1.00  0.00     0.003 C 
HETATM   15  C   UNL     1     -43.962 -51.327  13.638  1.00  0.00     0.000 C 
HETATM   16  C   UNL     1     -42.739 -52.189  13.355  1.00  0.00     0.003 C 
HETATM   17  C   UNL     1     -41.901 -51.606  12.217  1.00  0.00     0.039 C 
BRANCH  12  18
HETATM   18  O   UNL     1     -40.613 -50.150  13.618  1.00  0.00    -0.388 OA
HETATM   19  H   UNL     1     -40.828 -50.926  14.170  1.00  0.00     0.210 HD
ENDBRANCH  12  18
ENDBRANCH  11  12
ENDBRANCH   1  11
BRANCH   8  20
HETATM   20  C   UNL     1     -39.222 -45.130  12.818  1.00  0.00     0.094 A 
HETATM   21  C   UNL     1     -39.688 -44.532  14.126  1.00  0.00     0.028 A 
HETATM   22  C   UNL     1     -39.464 -43.644  12.942  1.00  0.00     0.028 A 
ENDBRANCH   8  20
TORSDOF 4
ENDMDL
MODEL 8
REMARK VINA RESULT:      -5.3      2.707      5.067
REMARK  4 active torsions:
REMARK  status: ('A' for Active; 'I' for Inactive)
REMARK    1  A    between atoms: O_1  and  C_2 
REMARK    2  A    between atoms: C_2  and  C_3 
REMARK    3  A    between atoms: C_3  and  N_4 
REMARK    4  A    between atoms: N_11  and  C_12 
ROOT
HETATM    1  N   UNL     1     -42.202 -51.012  13.623  1.00  0.00    -0.262 N 
HETATM    2  C   UNL     1     -41.048 -51.784  13.666  1.00  0.00     0.273 C 
HETATM    3  O   UNL     1     -39.915 -51.305  13.688  1.00  0.00    -0.266 OA
HETATM    4  C   UNL     1     -41.240 -53.251  13.667  1.00  0.00     0.128 C 
HETATM    5  C   UNL     1     -40.131 -54.115  13.857  1.00  0.00     0.106 C 
HETATM    6  N   UNL     1     -39.267 -54.875  14.012  1.00  0.00    -0.191 NA
HETATM    7  C   UNL     1     -42.473 -53.730  13.471  1.00  0.00     0.124 C 
HETATM    8  N   UNL     1     -43.561 -52.912  13.278  1.00  0.00    -0.303 N 
HETATM    9  C   UNL     1     -43.483 -51.518  13.397  1.00  0.00     0.332 C 
HETATM   10  O   UNL     1     -44.473 -50.791  13.315  1.00  0.00    -0.246 OA
ENDROOT
BRANCH   1  11
HETATM   11  C   UNL     1     -42.062 -49.565  13.820  1.00  0.00     0.175 C 
BRANCH  11  12
HETATM   12  C   UNL     1     -41.918 -48.776  12.485  1.00  0.00     0.074 C 
HETATM   13  C   UNL     1     -43.022 -47.702  12.396  1.00  0.00     0.039 C 
HETATM   14  C   UNL     1     -42.884 -46.810  11.160  1.00  0.00     0.003 C 
HETATM   15  C   UNL     1     -41.497 -46.182  11.072  1.00  0.00     0.000 C 
HETATM   16  C   UNL     1     -40.408 -47.246  11.104  1.00  0.00     0.003 C 
HETATM   17  C   UNL     1     -40.529 -48.127  12.348  1.00  0.00     0.039 C 
BRANCH  12  18
HETATM   18  O   UNL     1     -42.080 -49.671  11.373  1.00  0.00    -0.388 OA
HETATM   19  H   UNL     1     -42.111 -50.586  11.712  1.00  0.00     0.210 HD
ENDBRANCH  12  18
ENDBRANCH  11  12
ENDBRANCH   1  11
BRANCH   8  20
HETATM   20  C   UNL     1     -44.847 -53.541  13.063  1.00  0.00     0.094 A 
HETATM   21  C   UNL     1     -45.852 -53.734  14.175  1.00  0.00     0.028 A 
HETATM   22  C   UNL     1     -45.142 -54.920  13.602  1.00  0.00     0.028 A 
ENDBRANCH   8  20
TORSDOF 4
ENDMDL
MODEL 9
REMARK VINA RESULT:      -5.2      2.441      4.440
REMARK  4 active torsions:
REMARK  status: ('A' for Active; 'I' for Inactive)
REMARK    1  A    between atoms: O_1  and  C_2 
REMARK    2  A    between atoms: C_2  and  C_3 
REMARK    3  A    between atoms: C_3  and  N_4 
REMARK    4  A    between atoms: N_11  and  C_12 
ROOT
HETATM    1  N   UNL     1     -40.113 -50.940  12.353  1.00  0.00    -0.262 N 
HETATM    2  C   UNL     1     -40.558 -49.661  12.046  1.00  0.00     0.273 C 
HETATM    3  O   UNL     1     -41.407 -49.429  11.184  1.00  0.00    -0.266 OA
HETATM    4  C   UNL     1     -39.943 -48.551  12.806  1.00  0.00     0.128 C 
HETATM    5  C   UNL     1     -40.438 -47.229  12.666  1.00  0.00     0.106 C 
HETATM    6  N   UNL     1     -40.799 -46.128  12.600  1.00  0.00    -0.191 NA
HETATM    7  C   UNL     1     -38.909 -48.827  13.608  1.00  0.00     0.124 C 
HETATM    8  N   UNL     1     -38.407 -50.099  13.755  1.00  0.00    -0.303 N 
HETATM    9  C   UNL     1     -39.019 -51.219  13.174  1.00  0.00     0.332 C 
HETATM   10  O   UNL     1     -38.626 -52.367  13.380  1.00  0.00    -0.246 OA
ENDROOT
BRANCH   1  11
HETATM   11  C   UNL     1     -40.837 -52.073  11.767  1.00  0.00     0.175 C 
BRANCH  11  12
HETATM   12  C   UNL     1     -41.979 -52.608  12.680  1.00  0.00     0.074 C 
HETATM   13  C   UNL     1     -41.591 -53.994  13.237  1.00  0.00     0.039 C 
HETATM   14  C   UNL     1     -42.616 -54.542  14.233  1.00  0.00     0.003 C 
HETATM   15  C   UNL     1     -42.889 -53.552  15.360  1.00  0.00     0.000 C 
HETATM   16  C   UNL     1     -43.326 -52.200  14.812  1.00  0.00     0.003 C 
HETATM   17  C   UNL     1     -42.294 -51.638  13.833  1.00  0.00     0.039 C 
BRANCH  12  18
HETATM   18  O   UNL     1     -43.183 -52.761  11.912  1.00  0.00    -0.388 OA
HETATM   19  H   UNL     1     -43.846 -53.221  12.462  1.00  0.00     0.210 HD
ENDBRANCH  12  18
ENDBRANCH  11  12
ENDBRANCH   1  11
BRANCH   8  20
HETATM   20  C   UNL     1     -37.278 -50.281  14.640  1.00  0.00     0.094 A 
HETATM   21  C   UNL     1     -37.434 -50.421  16.137  1.00  0.00     0.028 A 
HETATM   22  C   UNL     1     -36.827 -49.177  15.568  1.00  0.00     0.028 A 
ENDBRANCH   8  20
TORSDOF 4
ENDMDL
