MODEL 1
REMARK VINA RESULT:      -6.5      0.000      0.000
REMARK  5 active torsions:
REMARK  status: ('A' for Active; 'I' for Inactive)
REMARK    1  A    between atoms: C_2  and  C_3 
REMARK       I    between atoms: C_2  and  N_15 
REMARK    2  A    between atoms: C_3  and  N_4 
REMARK    3  A    between atoms: N_15  and  C_16 
REMARK    4  A    between atoms: C_16  and  C_17 
REMARK    5  A    between atoms: C_17  and  C_18 
ROOT
HETATM    1  O   UNL     1     -41.158 -52.538  15.293  1.00  0.00    -0.272 OA
HETATM    2  C   UNL     1     -41.083 -53.131  14.219  1.00  0.00     0.236 C 
HETATM    3  N   UNL     1     -40.371 -52.628  13.144  1.00  0.00    -0.359 N 
HETATM    4  H   UNL     1     -40.538 -53.027  12.224  1.00  0.00     0.162 HD
ENDROOT
BRANCH   2   5
HETATM    5  C   UNL     1     -41.876 -54.414  13.935  1.00  0.00     0.237 C 
BRANCH   5   6
HETATM    6  N   UNL     1     -43.277 -54.041  13.916  1.00  0.00    -0.279 N 
HETATM    7  C   UNL     1     -43.852 -53.297  12.930  1.00  0.00     0.232 C 
HETATM    8  O   UNL     1     -43.267 -52.683  12.051  1.00  0.00    -0.272 OA
HETATM    9  C   UNL     1     -45.356 -53.396  13.075  1.00  0.00     0.095 C 
HETATM   10  C   UNL     1     -46.079 -52.091  12.756  1.00  0.00     0.041 C 
HETATM   11  C   UNL     1     -45.557 -54.047  14.448  1.00  0.00     0.095 C 
HETATM   12  C   UNL     1     -46.754 -51.421  13.906  1.00  0.00    -0.030 C 
HETATM   13  C   UNL     1     -46.889 -51.961  15.120  1.00  0.00    -0.030 C 
HETATM   14  C   UNL     1     -46.385 -53.312  15.502  1.00  0.00     0.041 C 
HETATM   15  C   UNL     1     -44.151 -54.358  14.910  1.00  0.00     0.232 C 
HETATM   16  O   UNL     1     -43.852 -54.864  15.982  1.00  0.00    -0.272 OA
ENDBRANCH   5   6
ENDBRANCH   2   5
BRANCH   3  17
HETATM   17  C   UNL     1     -39.689 -51.346  13.248  1.00  0.00     0.128 C 
BRANCH  17  18
HETATM   18  C   UNL     1     -39.649 -50.578  11.924  1.00  0.00     0.076 C 
BRANCH  18  19
HETATM   19  C   UNL     1     -40.857 -49.690  11.753  1.00  0.00     0.010 A 
HETATM   20  C   UNL     1     -41.806 -49.580  12.767  1.00  0.00     0.025 A 
HETATM   21  C   UNL     1     -42.918 -48.760  12.566  1.00  0.00     0.003 A 
HETATM   22  C   UNL     1     -43.052 -48.077  11.366  1.00  0.00     0.017 A 
HETATM   23  C   UNL     1     -42.064 -48.245  10.409  1.00  0.00     0.088 A 
HETATM   24  N   UNL     1     -40.978 -49.032  10.575  1.00  0.00    -0.369 N 
ATOM     25  HN  UNL     1     -40.276 -49.127   9.842  1.00  0.00     0.165 HD
ENDBRANCH  18  19
ENDBRANCH  17  18
ENDBRANCH   3  17
TORSDOF 5
ENDMDL
MODEL 2
REMARK VINA RESULT:      -6.5      2.075      2.596
REMARK  5 active torsions:
REMARK  status: ('A' for Active; 'I' for Inactive)
REMARK    1  A    between atoms: C_2  and  C_3 
REMARK       I    between atoms: C_2  and  N_15 
REMARK    2  A    between atoms: C_3  and  N_4 
REMARK    3  A    between atoms: N_15  and  C_16 
REMARK    4  A    between atoms: C_16  and  C_17 
REMARK    5  A    between atoms: C_17  and  C_18 
ROOT
HETATM    1  O   UNL     1     -41.144 -54.047  15.843  1.00  0.00    -0.272 OA
HETATM    2  C   UNL     1     -41.149 -53.566  14.713  1.00  0.00     0.236 C 
HETATM    3  N   UNL     1     -40.685 -52.289  14.449  1.00  0.00    -0.359 N 
HETATM    4  H   UNL     1     -40.930 -51.859  13.562  1.00  0.00     0.162 HD
ENDROOT
BRANCH   2   5
HETATM    5  C   UNL     1     -41.788 -54.288  13.518  1.00  0.00     0.237 C 
BRANCH   5   6
HETATM    6  N   UNL     1     -43.185 -53.901  13.497  1.00  0.00    -0.279 N 
HETATM    7  C   UNL     1     -43.652 -52.771  12.896  1.00  0.00     0.232 C 
HETATM    8  O   UNL     1     -42.978 -51.845  12.472  1.00  0.00    -0.272 OA
HETATM    9  C   UNL     1     -45.158 -52.876  12.792  1.00  0.00     0.095 C 
HETATM   10  C   UNL     1     -45.871 -51.545  13.015  1.00  0.00     0.041 C 
HETATM   11  C   UNL     1     -45.512 -54.072  13.682  1.00  0.00     0.095 C 
HETATM   12  C   UNL     1     -46.702 -51.449  14.251  1.00  0.00    -0.030 C 
HETATM   13  C   UNL     1     -46.974 -52.476  15.058  1.00  0.00    -0.030 C 
HETATM   14  C   UNL     1     -46.486 -53.870  14.843  1.00  0.00     0.041 C 
HETATM   15  C   UNL     1     -44.168 -54.605  14.121  1.00  0.00     0.232 C 
HETATM   16  O   UNL     1     -43.991 -55.554  14.873  1.00  0.00    -0.272 OA
ENDBRANCH   5   6
ENDBRANCH   2   5
BRANCH   3  17
HETATM   17  C   UNL     1     -40.181 -51.453  15.529  1.00  0.00     0.128 C 
BRANCH  17  18
HETATM   18  C   UNL     1     -38.706 -51.078  15.360  1.00  0.00     0.076 C 
BRANCH  18  19
HETATM   19  C   UNL     1     -38.419 -50.534  13.981  1.00  0.00     0.010 A 
HETATM   20  C   UNL     1     -37.552 -51.203  13.120  1.00  0.00     0.025 A 
HETATM   21  C   UNL     1     -37.300 -50.661  11.859  1.00  0.00     0.003 A 
HETATM   22  C   UNL     1     -37.918 -49.474  11.493  1.00  0.00     0.017 A 
HETATM   23  C   UNL     1     -38.763 -48.872  12.410  1.00  0.00     0.088 A 
HETATM   24  N   UNL     1     -39.025 -49.372  13.638  1.00  0.00    -0.369 N 
ATOM     25  HN  UNL     1     -39.654 -48.893  14.282  1.00  0.00     0.165 HD
ENDBRANCH  18  19
ENDBRANCH  17  18
ENDBRANCH   3  17
TORSDOF 5
ENDMDL
MODEL 3
REMARK VINA RESULT:      -6.4      1.740      3.090
REMARK  5 active torsions:
REMARK  status: ('A' for Active; 'I' for Inactive)
REMARK    1  A    between atoms: C_2  and  C_3 
REMARK       I    between atoms: C_2  and  N_15 
REMARK    2  A    between atoms: C_3  and  N_4 
REMARK    3  A    between atoms: N_15  and  C_16 
REMARK    4  A    between atoms: C_16  and  C_17 
REMARK    5  A    between atoms: C_17  and  C_18 
ROOT
HETATM    1  O   UNL     1     -41.999 -53.058  13.355  1.00  0.00    -0.272 OA
HETATM    2  C   UNL     1     -42.976 -52.609  12.760  1.00  0.00     0.236 C 
HETATM    3  N   UNL     1     -43.091 -51.270  12.432  1.00  0.00    -0.359 N 
HETATM    4  H   UNL     1     -44.005 -50.915  12.164  1.00  0.00     0.162 HD
ENDROOT
BRANCH   2   5
HETATM    5  C   UNL     1     -44.207 -53.468  12.442  1.00  0.00     0.237 C 
BRANCH   5   6
HETATM    6  N   UNL     1     -45.085 -53.378  13.593  1.00  0.00    -0.279 N 
HETATM    7  C   UNL     1     -45.998 -52.383  13.776  1.00  0.00     0.232 C 
HETATM    8  O   UNL     1     -46.081 -51.349  13.132  1.00  0.00    -0.272 OA
HETATM    9  C   UNL     1     -46.936 -52.798  14.889  1.00  0.00     0.095 C 
HETATM   10  C   UNL     1     -47.356 -51.637  15.786  1.00  0.00     0.041 C 
HETATM   11  C   UNL     1     -46.255 -54.020  15.516  1.00  0.00     0.095 C 
HETATM   12  C   UNL     1     -46.855 -51.684  17.191  1.00  0.00    -0.030 C 
HETATM   13  C   UNL     1     -46.217 -52.726  17.730  1.00  0.00    -0.030 C 
HETATM   14  C   UNL     1     -45.911 -53.994  17.005  1.00  0.00     0.041 C 
HETATM   15  C   UNL     1     -45.050 -54.254  14.633  1.00  0.00     0.232 C 
HETATM   16  O   UNL     1     -44.209 -55.127  14.797  1.00  0.00    -0.272 OA
ENDBRANCH   5   6
ENDBRANCH   2   5
BRANCH   3  17
HETATM   17  C   UNL     1     -42.046 -50.328  12.806  1.00  0.00     0.128 C 
BRANCH  17  18
HETATM   18  C   UNL     1     -41.130 -49.953  11.637  1.00  0.00     0.076 C 
BRANCH  18  19
HETATM   19  C   UNL     1     -39.688 -50.295  11.922  1.00  0.00     0.010 A 
HETATM   20  C   UNL     1     -39.335 -50.964  13.092  1.00  0.00     0.025 A 
HETATM   21  C   UNL     1     -37.989 -51.249  13.328  1.00  0.00     0.003 A 
HETATM   22  C   UNL     1     -37.038 -50.862  12.394  1.00  0.00     0.017 A 
HETATM   23  C   UNL     1     -37.474 -50.199  11.259  1.00  0.00     0.088 A 
HETATM   24  N   UNL     1     -38.769 -49.908  11.005  1.00  0.00    -0.369 N 
ATOM     25  HN  UNL     1     -39.044 -49.415  10.156  1.00  0.00     0.165 HD
ENDBRANCH  18  19
ENDBRANCH  17  18
ENDBRANCH   3  17
TORSDOF 5
ENDMDL
MODEL 4
REMARK VINA RESULT:      -6.4      2.280      2.958
REMARK  5 active torsions:
REMARK  status: ('A' for Active; 'I' for Inactive)
REMARK    1  A    between atoms: C_2  and  C_3 
REMARK       I    between atoms: C_2  and  N_15 
REMARK    2  A    between atoms: C_3  and  N_4 
REMARK    3  A    between atoms: N_15  and  C_16 
REMARK    4  A    between atoms: C_16  and  C_17 
REMARK    5  A    between atoms: C_17  and  C_18 
ROOT
HETATM    1  O   UNL     1     -39.998 -52.438  12.491  1.00  0.00    -0.272 OA
HETATM    2  C   UNL     1     -41.205 -52.240  12.367  1.00  0.00     0.236 C 
HETATM    3  N   UNL     1     -41.711 -51.073  11.822  1.00  0.00    -0.359 N 
HETATM    4  H   UNL     1     -42.695 -50.862  11.962  1.00  0.00     0.162 HD
ENDROOT
BRANCH   2   5
HETATM    5  C   UNL     1     -42.256 -53.212  12.921  1.00  0.00     0.237 C 
BRANCH   5   6
HETATM    6  N   UNL     1     -43.313 -52.399  13.491  1.00  0.00    -0.279 N 
HETATM    7  C   UNL     1     -43.168 -51.643  14.615  1.00  0.00     0.232 C 
HETATM    8  O   UNL     1     -42.232 -51.684  15.400  1.00  0.00    -0.272 OA
HETATM    9  C   UNL     1     -44.346 -50.698  14.707  1.00  0.00     0.095 C 
HETATM   10  C   UNL     1     -44.833 -50.479  16.137  1.00  0.00     0.041 C 
HETATM   11  C   UNL     1     -45.329 -51.222  13.654  1.00  0.00     0.095 C 
HETATM   12  C   UNL     1     -46.187 -51.020  16.456  1.00  0.00    -0.030 C 
HETATM   13  C   UNL     1     -47.029 -51.524  15.551  1.00  0.00    -0.030 C 
HETATM   14  C   UNL     1     -46.739 -51.620  14.090  1.00  0.00     0.041 C 
HETATM   15  C   UNL     1     -44.575 -52.348  12.985  1.00  0.00     0.232 C 
HETATM   16  O   UNL     1     -45.010 -53.062  12.093  1.00  0.00    -0.272 OA
ENDBRANCH   5   6
ENDBRANCH   2   5
BRANCH   3  17
HETATM   17  C   UNL     1     -40.812 -50.015  11.385  1.00  0.00     0.128 C 
BRANCH  17  18
HETATM   18  C   UNL     1     -41.549 -48.775  10.871  1.00  0.00     0.076 C 
BRANCH  18  19
HETATM   19  C   UNL     1     -40.864 -47.499  11.295  1.00  0.00     0.010 A 
HETATM   20  C   UNL     1     -40.530 -47.282  12.630  1.00  0.00     0.025 A 
HETATM   21  C   UNL     1     -39.910 -46.084  12.986  1.00  0.00     0.003 A 
HETATM   22  C   UNL     1     -39.643 -45.139  12.006  1.00  0.00     0.017 A 
HETATM   23  C   UNL     1     -40.010 -45.432  10.703  1.00  0.00     0.088 A 
HETATM   24  N   UNL     1     -40.612 -46.583  10.329  1.00  0.00    -0.369 N 
ATOM     25  HN  UNL     1     -40.867 -46.756   9.357  1.00  0.00     0.165 HD
ENDBRANCH  18  19
ENDBRANCH  17  18
ENDBRANCH   3  17
TORSDOF 5
ENDMDL
MODEL 5
REMARK VINA RESULT:      -6.3      1.737      2.706
REMARK  5 active torsions:
REMARK  status: ('A' for Active; 'I' for Inactive)
REMARK    1  A    between atoms: C_2  and  C_3 
REMARK       I    between atoms: C_2  and  N_15 
REMARK    2  A    between atoms: C_3  and  N_4 
REMARK    3  A    between atoms: N_15  and  C_16 
REMARK    4  A    between atoms: C_16  and  C_17 
REMARK    5  A    between atoms: C_17  and  C_18 
ROOT
HETATM    1  O   UNL     1     -40.736 -51.215  13.765  1.00  0.00    -0.272 OA
HETATM    2  C   UNL     1     -41.217 -51.703  12.745  1.00  0.00     0.236 C 
HETATM    3  N   UNL     1     -41.877 -50.939  11.798  1.00  0.00    -0.359 N 
HETATM    4  H   UNL     1     -42.453 -51.415  11.110  1.00  0.00     0.162 HD
ENDROOT
BRANCH   2   5
HETATM    5  C   UNL     1     -41.239 -53.218  12.493  1.00  0.00     0.237 C 
BRANCH   5   6
HETATM    6  N   UNL     1     -42.259 -53.768  13.365  1.00  0.00    -0.279 N 
HETATM    7  C   UNL     1     -43.584 -53.814  13.051  1.00  0.00     0.232 C 
HETATM    8  O   UNL     1     -44.127 -53.243  12.117  1.00  0.00    -0.272 OA
HETATM    9  C   UNL     1     -44.274 -54.738  14.031  1.00  0.00     0.095 C 
HETATM   10  C   UNL     1     -45.669 -54.263  14.427  1.00  0.00     0.041 C 
HETATM   11  C   UNL     1     -43.225 -54.973  15.124  1.00  0.00     0.095 C 
HETATM   12  C   UNL     1     -45.835 -53.837  15.848  1.00  0.00    -0.030 C 
HETATM   13  C   UNL     1     -44.907 -53.994  16.795  1.00  0.00    -0.030 C 
HETATM   14  C   UNL     1     -43.569 -54.616  16.570  1.00  0.00     0.041 C 
HETATM   15  C   UNL     1     -42.000 -54.252  14.610  1.00  0.00     0.232 C 
HETATM   16  O   UNL     1     -40.930 -54.165  15.196  1.00  0.00    -0.272 OA
ENDBRANCH   5   6
ENDBRANCH   2   5
BRANCH   3  17
HETATM   17  C   UNL     1     -42.041 -49.506  11.994  1.00  0.00     0.128 C 
BRANCH  17  18
HETATM   18  C   UNL     1     -41.215 -48.668  11.014  1.00  0.00     0.076 C 
BRANCH  18  19
HETATM   19  C   UNL     1     -42.079 -47.714  10.225  1.00  0.00     0.010 A 
HETATM   20  C   UNL     1     -42.223 -46.389  10.627  1.00  0.00     0.025 A 
HETATM   21  C   UNL     1     -43.042 -45.540   9.881  1.00  0.00     0.003 A 
HETATM   22  C   UNL     1     -43.691 -46.036   8.759  1.00  0.00     0.017 A 
HETATM   23  C   UNL     1     -43.496 -47.367   8.430  1.00  0.00     0.088 A 
HETATM   24  N   UNL     1     -42.710 -48.212   9.135  1.00  0.00    -0.369 N 
ATOM     25  HN  UNL     1     -42.597 -49.186   8.857  1.00  0.00     0.165 HD
ENDBRANCH  18  19
ENDBRANCH  17  18
ENDBRANCH   3  17
TORSDOF 5
ENDMDL
MODEL 6
REMARK VINA RESULT:      -6.2      1.795      2.517
REMARK  5 active torsions:
REMARK  status: ('A' for Active; 'I' for Inactive)
REMARK    1  A    between atoms: C_2  and  C_3 
REMARK       I    between atoms: C_2  and  N_15 
REMARK    2  A    between atoms: C_3  and  N_4 
REMARK    3  A    between atoms: N_15  and  C_16 
REMARK    4  A    between atoms: C_16  and  C_17 
REMARK    5  A    between atoms: C_17  and  C_18 
ROOT
HETATM    1  O   UNL     1     -41.820 -51.427  13.990  1.00  0.00    -0.272 OA
HETATM    2  C   UNL     1     -42.366 -51.580  12.900  1.00  0.00     0.236 C 
HETATM    3  N   UNL     1     -42.395 -50.585  11.939  1.00  0.00    -0.359 N 
HETATM    4  H   UNL     1     -43.053 -50.674  11.170  1.00  0.00     0.162 HD
ENDROOT
BRANCH   2   5
HETATM    5  C   UNL     1     -43.174 -52.841  12.559  1.00  0.00     0.237 C 
BRANCH   5   6
HETATM    6  N   UNL     1     -44.282 -52.888  13.492  1.00  0.00    -0.279 N 
HETATM    7  C   UNL     1     -45.303 -51.986  13.506  1.00  0.00     0.232 C 
HETATM    8  O   UNL     1     -45.343 -50.928  12.897  1.00  0.00    -0.272 OA
HETATM    9  C   UNL     1     -46.415 -52.540  14.372  1.00  0.00     0.095 C 
HETATM   10  C   UNL     1     -47.125 -51.470  15.196  1.00  0.00     0.041 C 
HETATM   11  C   UNL     1     -45.772 -53.732  15.089  1.00  0.00     0.095 C 
HETATM   12  C   UNL     1     -46.936 -51.552  16.675  1.00  0.00    -0.030 C 
HETATM   13  C   UNL     1     -46.333 -52.564  17.302  1.00  0.00    -0.030 C 
HETATM   14  C   UNL     1     -45.760 -53.760  16.616  1.00  0.00     0.041 C 
HETATM   15  C   UNL     1     -44.389 -53.815  14.483  1.00  0.00     0.232 C 
HETATM   16  O   UNL     1     -43.525 -54.621  14.795  1.00  0.00    -0.272 OA
ENDBRANCH   5   6
ENDBRANCH   2   5
BRANCH   3  17
HETATM   17  C   UNL     1     -41.780 -49.292  12.201  1.00  0.00     0.128 C 
BRANCH  17  18
HETATM   18  C   UNL     1     -41.105 -48.686  10.967  1.00  0.00     0.076 C 
BRANCH  18  19
HETATM   19  C   UNL     1     -42.029 -47.752  10.224  1.00  0.00     0.010 A 
HETATM   20  C   UNL     1     -42.249 -46.456  10.686  1.00  0.00     0.025 A 
HETATM   21  C   UNL     1     -43.122 -45.626   9.980  1.00  0.00     0.003 A 
HETATM   22  C   UNL     1     -43.747 -46.109   8.839  1.00  0.00     0.017 A 
HETATM   23  C   UNL     1     -43.475 -47.411   8.451  1.00  0.00     0.088 A 
HETATM   24  N   UNL     1     -42.636 -48.237   9.115  1.00  0.00    -0.369 N 
ATOM     25  HN  UNL     1     -42.467 -49.190   8.793  1.00  0.00     0.165 HD
ENDBRANCH  18  19
ENDBRANCH  17  18
ENDBRANCH   3  17
TORSDOF 5
ENDMDL
MODEL 7
REMARK VINA RESULT:      -6.2      2.000      6.198
REMARK  5 active torsions:
REMARK  status: ('A' for Active; 'I' for Inactive)
REMARK    1  A    between atoms: C_2  and  C_3 
REMARK       I    between atoms: C_2  and  N_15 
REMARK    2  A    between atoms: C_3  and  N_4 
REMARK    3  A    between atoms: N_15  and  C_16 
REMARK    4  A    between atoms: C_16  and  C_17 
REMARK    5  A    between atoms: C_17  and  C_18 
ROOT
HETATM    1  O   UNL     1     -42.721 -54.129  14.860  1.00  0.00    -0.272 OA
HETATM    2  C   UNL     1     -42.405 -54.145  13.673  1.00  0.00     0.236 C 
HETATM    3  N   UNL     1     -43.345 -54.173  12.657  1.00  0.00    -0.359 N 
HETATM    4  H   UNL     1     -43.038 -54.425  11.722  1.00  0.00     0.162 HD
ENDROOT
BRANCH   2   5
HETATM    5  C   UNL     1     -40.945 -54.262  13.215  1.00  0.00     0.237 C 
BRANCH   5   6
HETATM    6  N   UNL     1     -40.398 -52.919  13.220  1.00  0.00    -0.279 N 
HETATM    7  C   UNL     1     -40.748 -51.953  12.325  1.00  0.00     0.232 C 
HETATM    8  O   UNL     1     -41.395 -52.114  11.302  1.00  0.00    -0.272 OA
HETATM    9  C   UNL     1     -40.241 -50.623  12.840  1.00  0.00     0.095 C 
HETATM   10  C   UNL     1     -39.734 -49.703  11.732  1.00  0.00     0.041 C 
HETATM   11  C   UNL     1     -39.299 -51.001  13.988  1.00  0.00     0.095 C 
HETATM   12  C   UNL     1     -38.268 -49.425  11.734  1.00  0.00    -0.030 C 
HETATM   13  C   UNL     1     -37.432 -49.795  12.707  1.00  0.00    -0.030 C 
HETATM   14  C   UNL     1     -37.843 -50.539  13.934  1.00  0.00     0.041 C 
HETATM   15  C   UNL     1     -39.442 -52.502  14.093  1.00  0.00     0.232 C 
HETATM   16  O   UNL     1     -38.835 -53.220  14.876  1.00  0.00    -0.272 OA
ENDBRANCH   5   6
ENDBRANCH   2   5
BRANCH   3  17
HETATM   17  C   UNL     1     -44.766 -54.204  12.971  1.00  0.00     0.128 C 
BRANCH  17  18
HETATM   18  C   UNL     1     -45.390 -52.809  13.065  1.00  0.00     0.076 C 
BRANCH  18  19
HETATM   19  C   UNL     1     -45.943 -52.533  14.443  1.00  0.00     0.010 A 
HETATM   20  C   UNL     1     -46.791 -51.451  14.664  1.00  0.00     0.025 A 
HETATM   21  C   UNL     1     -47.270 -51.219  15.954  1.00  0.00     0.003 A 
HETATM   22  C   UNL     1     -46.892 -52.070  16.983  1.00  0.00     0.017 A 
HETATM   23  C   UNL     1     -46.042 -53.121  16.678  1.00  0.00     0.088 A 
HETATM   24  N   UNL     1     -45.562 -53.368  15.439  1.00  0.00    -0.369 N 
ATOM     25  HN  UNL     1     -44.936 -54.154  15.260  1.00  0.00     0.165 HD
ENDBRANCH  18  19
ENDBRANCH  17  18
ENDBRANCH   3  17
TORSDOF 5
ENDMDL
MODEL 8
REMARK VINA RESULT:      -6.1      2.193      2.809
REMARK  5 active torsions:
REMARK  status: ('A' for Active; 'I' for Inactive)
REMARK    1  A    between atoms: C_2  and  C_3 
REMARK       I    between atoms: C_2  and  N_15 
REMARK    2  A    between atoms: C_3  and  N_4 
REMARK    3  A    between atoms: N_15  and  C_16 
REMARK    4  A    between atoms: C_16  and  C_17 
REMARK    5  A    between atoms: C_17  and  C_18 
ROOT
HETATM    1  O   UNL     1     -39.888 -51.891  12.401  1.00  0.00    -0.272 OA
HETATM    2  C   UNL     1     -40.762 -51.276  13.009  1.00  0.00     0.236 C 
HETATM    3  N   UNL     1     -41.186 -50.017  12.623  1.00  0.00    -0.359 N 
HETATM    4  H   UNL     1     -41.724 -49.464  13.284  1.00  0.00     0.162 HD
ENDROOT
BRANCH   2   5
HETATM    5  C   UNL     1     -41.366 -51.796  14.321  1.00  0.00     0.237 C 
BRANCH   5   6
HETATM    6  N   UNL     1     -42.685 -52.304  13.998  1.00  0.00    -0.279 N 
HETATM    7  C   UNL     1     -43.811 -51.536  13.972  1.00  0.00     0.232 C 
HETATM    8  O   UNL     1     -43.918 -50.394  14.394  1.00  0.00    -0.272 OA
HETATM    9  C   UNL     1     -44.906 -52.320  13.282  1.00  0.00     0.095 C 
HETATM   10  C   UNL     1     -46.284 -52.102  13.901  1.00  0.00     0.041 C 
HETATM   11  C   UNL     1     -44.345 -53.743  13.189  1.00  0.00     0.095 C 
HETATM   12  C   UNL     1     -46.887 -53.283  14.586  1.00  0.00    -0.030 C 
HETATM   13  C   UNL     1     -46.377 -54.516  14.550  1.00  0.00    -0.030 C 
HETATM   14  C   UNL     1     -45.130 -54.892  13.821  1.00  0.00     0.041 C 
HETATM   15  C   UNL     1     -42.941 -53.614  13.733  1.00  0.00     0.232 C 
HETATM   16  O   UNL     1     -42.142 -54.531  13.863  1.00  0.00    -0.272 OA
ENDBRANCH   5   6
ENDBRANCH   2   5
BRANCH   3  17
HETATM   17  C   UNL     1     -40.587 -49.361  11.470  1.00  0.00     0.128 C 
BRANCH  17  18
HETATM   18  C   UNL     1     -41.571 -48.470  10.707  1.00  0.00     0.076 C 
BRANCH  18  19
HETATM   19  C   UNL     1     -41.258 -47.004  10.887  1.00  0.00     0.010 A 
HETATM   20  C   UNL     1     -42.160 -46.160  11.530  1.00  0.00     0.025 A 
HETATM   21  C   UNL     1     -41.842 -44.808  11.665  1.00  0.00     0.003 A 
HETATM   22  C   UNL     1     -40.639 -44.338  11.157  1.00  0.00     0.017 A 
HETATM   23  C   UNL     1     -39.801 -45.244  10.529  1.00  0.00     0.088 A 
HETATM   24  N   UNL     1     -40.083 -46.558  10.383  1.00  0.00    -0.369 N 
ATOM     25  HN  UNL     1     -39.436 -47.189   9.910  1.00  0.00     0.165 HD
ENDBRANCH  18  19
ENDBRANCH  17  18
ENDBRANCH   3  17
TORSDOF 5
ENDMDL
MODEL 9
REMARK VINA RESULT:      -6.0      2.321      3.333
REMARK  5 active torsions:
REMARK  status: ('A' for Active; 'I' for Inactive)
REMARK    1  A    between atoms: C_2  and  C_3 
REMARK       I    between atoms: C_2  and  N_15 
REMARK    2  A    between atoms: C_3  and  N_4 
REMARK    3  A    between atoms: N_15  and  C_16 
REMARK    4  A    between atoms: C_16  and  C_17 
REMARK    5  A    between atoms: C_17  and  C_18 
ROOT
HETATM    1  O   UNL     1     -41.091 -52.561  15.280  1.00  0.00    -0.272 OA
HETATM    2  C   UNL     1     -40.884 -53.065  14.178  1.00  0.00     0.236 C 
HETATM    3  N   UNL     1     -40.140 -52.427  13.201  1.00  0.00    -0.359 N 
HETATM    4  H   UNL     1     -40.202 -52.770  12.246  1.00  0.00     0.162 HD
ENDROOT
BRANCH   2   5
HETATM    5  C   UNL     1     -41.538 -54.384  13.745  1.00  0.00     0.237 C 
BRANCH   5   6
HETATM    6  N   UNL     1     -42.966 -54.136  13.675  1.00  0.00    -0.279 N 
HETATM    7  C   UNL     1     -43.547 -53.291  12.779  1.00  0.00     0.232 C 
HETATM    8  O   UNL     1     -42.970 -52.491  12.058  1.00  0.00    -0.272 OA
HETATM    9  C   UNL     1     -45.040 -53.544  12.786  1.00  0.00     0.095 C 
HETATM   10  C   UNL     1     -45.866 -52.271  12.624  1.00  0.00     0.041 C 
HETATM   11  C   UNL     1     -45.263 -54.428  14.018  1.00  0.00     0.095 C 
HETATM   12  C   UNL     1     -46.676 -51.863  13.809  1.00  0.00    -0.030 C 
HETATM   13  C   UNL     1     -46.834 -52.606  14.906  1.00  0.00    -0.030 C 
HETATM   14  C   UNL     1     -46.225 -53.954  15.106  1.00  0.00     0.041 C 
HETATM   15  C   UNL     1     -43.865 -54.688  14.533  1.00  0.00     0.232 C 
HETATM   16  O   UNL     1     -43.586 -55.338  15.531  1.00  0.00    -0.272 OA
ENDBRANCH   5   6
ENDBRANCH   2   5
BRANCH   3  17
HETATM   17  C   UNL     1     -39.582 -51.106  13.447  1.00  0.00     0.128 C 
BRANCH  17  18
HETATM   18  C   UNL     1     -38.051 -51.090  13.442  1.00  0.00     0.076 C 
BRANCH  18  19
HETATM   19  C   UNL     1     -37.498 -49.939  14.248  1.00  0.00     0.010 A 
HETATM   20  C   UNL     1     -37.675 -48.625  13.820  1.00  0.00     0.025 A 
HETATM   21  C   UNL     1     -37.137 -47.588  14.583  1.00  0.00     0.003 A 
HETATM   22  C   UNL     1     -36.443 -47.888  15.746  1.00  0.00     0.017 A 
HETATM   23  C   UNL     1     -36.311 -49.222  16.098  1.00  0.00     0.088 A 
HETATM   24  N   UNL     1     -36.819 -50.246  15.378  1.00  0.00    -0.369 N 
ATOM     25  HN  UNL     1     -36.695 -51.214  15.674  1.00  0.00     0.165 HD
ENDBRANCH  18  19
ENDBRANCH  17  18
ENDBRANCH   3  17
TORSDOF 5
ENDMDL
