MODEL 1
REMARK VINA RESULT:      -5.6      0.000      0.000
REMARK  5 active torsions:
REMARK  status: ('A' for Active; 'I' for Inactive)
REMARK    1  A    between atoms: C_2  and  N_3 
REMARK    2  A    between atoms: C_2  and  C_9 
REMARK    3  A    between atoms: N_3  and  C_4 
REMARK    4  A    between atoms: C_4  and  C_6 
REMARK       I    between atoms: C_6  and  N_8 
REMARK    5  A    between atoms: C_9  and  N_11 
ROOT
HETATM    1  C   UNL     1     -43.126 -55.105  15.150  1.00  0.00     0.045 C 
HETATM    2  C   UNL     1     -43.330 -54.176  13.943  1.00  0.00     0.241 C 
ENDROOT
BRANCH   2   3
HETATM    3  N   UNL     1     -42.141 -54.196  13.055  1.00  0.00     0.103 N 
HETATM    4  H   UNL     1     -42.413 -53.786  12.156  1.00  0.00     0.317 HD
BRANCH   3   5
HETATM    5  C   UNL     1     -40.913 -53.476  13.493  1.00  0.00     0.307 C 
HETATM    6  C   UNL     1     -39.691 -54.352  13.748  1.00  0.00     0.053 C 
BRANCH   5   7
HETATM    7  C   UNL     1     -40.511 -52.479  12.382  1.00  0.00     0.248 C 
HETATM    8  O   UNL     1     -39.539 -51.735  12.458  1.00  0.00    -0.271 OA
HETATM    9  N   UNL     1     -41.280 -52.531  11.259  1.00  0.00    -0.368 N 
HETATM   10  H   UNL     1     -42.068 -53.166  11.215  1.00  0.00     0.159 HD
HETATM   11  H   UNL     1     -41.048 -51.942  10.468  1.00  0.00     0.159 HD
ENDBRANCH   5   7
ENDBRANCH   3   5
ENDBRANCH   2   3
BRANCH   2  12
HETATM   12  C   UNL     1     -44.723 -54.339  13.246  1.00  0.00     0.136 C 
HETATM   13  C   UNL     1     -45.554 -55.509  13.795  1.00  0.00     0.036 C 
BRANCH  12  14
HETATM   14  N   UNL     1     -45.542 -53.123  13.274  1.00  0.00    -0.297 N 
HETATM   15  C   UNL     1     -45.972 -52.404  14.357  1.00  0.00     0.112 A 
HETATM   16  C   UNL     1     -46.707 -51.354  13.857  1.00  0.00     0.037 A 
HETATM   17  C   UNL     1     -46.693 -51.540  12.466  1.00  0.00     0.108 A 
HETATM   18  N   UNL     1     -46.001 -52.623  12.104  1.00  0.00    -0.310 N 
ATOM     19  HN  UNL     1     -45.853 -52.989  11.163  1.00  0.00     0.186 HD
ENDBRANCH  12  14
ENDBRANCH   2  12
TORSDOF 5
ENDMDL
MODEL 2
REMARK VINA RESULT:      -5.3      6.303      8.397
REMARK  5 active torsions:
REMARK  status: ('A' for Active; 'I' for Inactive)
REMARK    1  A    between atoms: C_2  and  N_3 
REMARK    2  A    between atoms: C_2  and  C_9 
REMARK    3  A    between atoms: N_3  and  C_4 
REMARK    4  A    between atoms: C_4  and  C_6 
REMARK       I    between atoms: C_6  and  N_8 
REMARK    5  A    between atoms: C_9  and  N_11 
ROOT
HETATM    1  C   UNL     1     -43.121 -48.550  11.951  1.00  0.00     0.045 C 
HETATM    2  C   UNL     1     -41.839 -48.479  11.107  1.00  0.00     0.241 C 
ENDROOT
BRANCH   2   3
HETATM    3  N   UNL     1     -42.142 -48.024   9.726  1.00  0.00     0.103 N 
HETATM    4  H   UNL     1     -42.090 -48.839   9.108  1.00  0.00     0.317 HD
BRANCH   3   5
HETATM    5  C   UNL     1     -43.458 -47.376   9.462  1.00  0.00     0.307 C 
HETATM    6  C   UNL     1     -43.436 -45.853   9.373  1.00  0.00     0.053 C 
BRANCH   5   7
HETATM    7  C   UNL     1     -43.986 -47.885   8.101  1.00  0.00     0.248 C 
HETATM    8  O   UNL     1     -43.257 -48.232   7.178  1.00  0.00    -0.271 OA
HETATM    9  N   UNL     1     -45.341 -47.992   8.016  1.00  0.00    -0.368 N 
HETATM   10  H   UNL     1     -45.921 -47.714   8.799  1.00  0.00     0.159 HD
HETATM   11  H   UNL     1     -45.759 -48.364   7.172  1.00  0.00     0.159 HD
ENDBRANCH   5   7
ENDBRANCH   3   5
ENDBRANCH   2   3
BRANCH   2  12
HETATM   12  C   UNL     1     -40.644 -47.769  11.827  1.00  0.00     0.136 C 
HETATM   13  C   UNL     1     -39.317 -48.536  11.720  1.00  0.00     0.036 C 
BRANCH  12  14
HETATM   14  N   UNL     1     -40.428 -46.386  11.388  1.00  0.00    -0.297 N 
HETATM   15  C   UNL     1     -40.955 -45.232  11.902  1.00  0.00     0.112 A 
HETATM   16  C   UNL     1     -40.449 -44.204  11.143  1.00  0.00     0.037 A 
HETATM   17  C   UNL     1     -39.651 -44.835  10.175  1.00  0.00     0.108 A 
HETATM   18  N   UNL     1     -39.647 -46.163  10.306  1.00  0.00    -0.310 N 
ATOM     19  HN  UNL     1     -39.168 -46.851   9.726  1.00  0.00     0.186 HD
ENDBRANCH  12  14
ENDBRANCH   2  12
TORSDOF 5
ENDMDL
MODEL 3
REMARK VINA RESULT:      -5.3      5.942      8.047
REMARK  5 active torsions:
REMARK  status: ('A' for Active; 'I' for Inactive)
REMARK    1  A    between atoms: C_2  and  N_3 
REMARK    2  A    between atoms: C_2  and  C_9 
REMARK    3  A    between atoms: N_3  and  C_4 
REMARK    4  A    between atoms: C_4  and  C_6 
REMARK       I    between atoms: C_6  and  N_8 
REMARK    5  A    between atoms: C_9  and  N_11 
ROOT
HETATM    1  C   UNL     1     -42.486 -48.724  12.080  1.00  0.00     0.045 C 
HETATM    2  C   UNL     1     -41.328 -48.750  11.071  1.00  0.00     0.241 C 
ENDROOT
BRANCH   2   3
HETATM    3  N   UNL     1     -41.787 -48.304   9.731  1.00  0.00     0.103 N 
HETATM    4  H   UNL     1     -41.955 -49.140   9.162  1.00  0.00     0.317 HD
BRANCH   3   5
HETATM    5  C   UNL     1     -43.022 -47.476   9.639  1.00  0.00     0.307 C 
HETATM    6  C   UNL     1     -42.799 -45.969   9.556  1.00  0.00     0.053 C 
BRANCH   5   7
HETATM    7  C   UNL     1     -43.783 -47.877   8.354  1.00  0.00     0.248 C 
HETATM    8  O   UNL     1     -45.006 -47.886   8.266  1.00  0.00    -0.271 OA
HETATM    9  N   UNL     1     -42.990 -48.157   7.282  1.00  0.00    -0.368 N 
HETATM   10  H   UNL     1     -41.982 -48.127   7.377  1.00  0.00     0.159 HD
HETATM   11  H   UNL     1     -43.417 -48.380   6.392  1.00  0.00     0.159 HD
ENDBRANCH   5   7
ENDBRANCH   3   5
ENDBRANCH   2   3
BRANCH   2  12
HETATM   12  C   UNL     1     -40.007 -48.103  11.605  1.00  0.00     0.136 C 
HETATM   13  C   UNL     1     -40.220 -47.167  12.805  1.00  0.00     0.036 C 
BRANCH  12  14
HETATM   14  N   UNL     1     -38.967 -49.080  11.946  1.00  0.00    -0.297 N 
HETATM   15  C   UNL     1     -38.490 -49.427  13.181  1.00  0.00     0.112 A 
HETATM   16  C   UNL     1     -37.524 -50.383  12.968  1.00  0.00     0.037 A 
HETATM   17  C   UNL     1     -37.465 -50.525  11.572  1.00  0.00     0.108 A 
HETATM   18  N   UNL     1     -38.327 -49.723  10.942  1.00  0.00    -0.310 N 
ATOM     19  HN  UNL     1     -38.471 -49.620   9.938  1.00  0.00     0.186 HD
ENDBRANCH  12  14
ENDBRANCH   2  12
TORSDOF 5
ENDMDL
MODEL 4
REMARK VINA RESULT:      -5.3      1.673      2.813
REMARK  5 active torsions:
REMARK  status: ('A' for Active; 'I' for Inactive)
REMARK    1  A    between atoms: C_2  and  N_3 
REMARK    2  A    between atoms: C_2  and  C_9 
REMARK    3  A    between atoms: N_3  and  C_4 
REMARK    4  A    between atoms: C_4  and  C_6 
REMARK       I    between atoms: C_6  and  N_8 
REMARK    5  A    between atoms: C_9  and  N_11 
ROOT
HETATM    1  C   UNL     1     -43.503 -50.353  14.032  1.00  0.00     0.045 C 
HETATM    2  C   UNL     1     -44.290 -51.137  12.972  1.00  0.00     0.241 C 
ENDROOT
BRANCH   2   3
HETATM    3  N   UNL     1     -43.494 -52.283  12.463  1.00  0.00     0.103 N 
HETATM    4  H   UNL     1     -43.062 -51.998  11.579  1.00  0.00     0.317 HD
BRANCH   3   5
HETATM    5  C   UNL     1     -42.396 -52.820  13.315  1.00  0.00     0.307 C 
HETATM    6  C   UNL     1     -42.632 -54.212  13.894  1.00  0.00     0.053 C 
BRANCH   5   7
HETATM    7  C   UNL     1     -41.115 -52.918  12.453  1.00  0.00     0.248 C 
HETATM    8  O   UNL     1     -40.056 -53.379  12.864  1.00  0.00    -0.271 OA
HETATM    9  N   UNL     1     -41.262 -52.516  11.160  1.00  0.00    -0.368 N 
HETATM   10  H   UNL     1     -42.153 -52.154  10.841  1.00  0.00     0.159 HD
HETATM   11  H   UNL     1     -40.480 -52.597  10.522  1.00  0.00     0.159 HD
ENDBRANCH   5   7
ENDBRANCH   3   5
ENDBRANCH   2   3
BRANCH   2  12
HETATM   12  C   UNL     1     -45.770 -51.445  13.379  1.00  0.00     0.136 C 
HETATM   13  C   UNL     1     -46.718 -51.611  12.181  1.00  0.00     0.036 C 
BRANCH  12  14
HETATM   14  N   UNL     1     -45.909 -52.611  14.258  1.00  0.00    -0.297 N 
HETATM   15  C   UNL     1     -45.643 -52.712  15.598  1.00  0.00     0.112 A 
HETATM   16  C   UNL     1     -45.933 -54.008  15.953  1.00  0.00     0.037 A 
HETATM   17  C   UNL     1     -46.336 -54.624  14.758  1.00  0.00     0.108 A 
HETATM   18  N   UNL     1     -46.307 -53.786  13.719  1.00  0.00    -0.310 N 
ATOM     19  HN  UNL     1     -46.533 -53.985  12.744  1.00  0.00     0.186 HD
ENDBRANCH  12  14
ENDBRANCH   2  12
TORSDOF 5
ENDMDL
MODEL 5
REMARK VINA RESULT:      -5.2      3.063      6.105
REMARK  5 active torsions:
REMARK  status: ('A' for Active; 'I' for Inactive)
REMARK    1  A    between atoms: C_2  and  N_3 
REMARK    2  A    between atoms: C_2  and  C_9 
REMARK    3  A    between atoms: N_3  and  C_4 
REMARK    4  A    between atoms: C_4  and  C_6 
REMARK       I    between atoms: C_6  and  N_8 
REMARK    5  A    between atoms: C_9  and  N_11 
ROOT
HETATM    1  C   UNL     1     -43.185 -49.225  12.710  1.00  0.00     0.045 C 
HETATM    2  C   UNL     1     -42.004 -50.137  12.345  1.00  0.00     0.241 C 
ENDROOT
BRANCH   2   3
HETATM    3  N   UNL     1     -42.471 -51.517  12.060  1.00  0.00     0.103 N 
HETATM    4  H   UNL     1     -42.063 -51.809  11.166  1.00  0.00     0.317 HD
BRANCH   3   5
HETATM    5  C   UNL     1     -42.152 -52.593  13.040  1.00  0.00     0.307 C 
HETATM    6  C   UNL     1     -43.141 -53.754  13.088  1.00  0.00     0.053 C 
BRANCH   5   7
HETATM    7  C   UNL     1     -40.782 -53.203  12.666  1.00  0.00     0.248 C 
HETATM    8  O   UNL     1     -39.712 -52.630  12.847  1.00  0.00    -0.271 OA
HETATM    9  N   UNL     1     -40.834 -54.473  12.175  1.00  0.00    -0.368 N 
HETATM   10  H   UNL     1     -41.729 -54.930  12.050  1.00  0.00     0.159 HD
HETATM   11  H   UNL     1     -39.972 -54.957  11.953  1.00  0.00     0.159 HD
ENDBRANCH   5   7
ENDBRANCH   3   5
ENDBRANCH   2   3
BRANCH   2  12
HETATM   12  C   UNL     1     -41.015 -49.509  11.306  1.00  0.00     0.136 C 
HETATM   13  C   UNL     1     -41.368 -48.065  10.914  1.00  0.00     0.036 C 
BRANCH  12  14
HETATM   14  N   UNL     1     -39.610 -49.555  11.727  1.00  0.00    -0.297 N 
HETATM   15  C   UNL     1     -39.028 -48.995  12.832  1.00  0.00     0.112 A 
HETATM   16  C   UNL     1     -37.694 -49.322  12.773  1.00  0.00     0.037 A 
HETATM   17  C   UNL     1     -37.557 -50.053  11.582  1.00  0.00     0.108 A 
HETATM   18  N   UNL     1     -38.715 -50.184  10.931  1.00  0.00    -0.310 N 
ATOM     19  HN  UNL     1     -38.886 -50.651  10.040  1.00  0.00     0.186 HD
ENDBRANCH  12  14
ENDBRANCH   2  12
TORSDOF 5
ENDMDL
MODEL 6
REMARK VINA RESULT:      -5.1      5.124      7.551
REMARK  5 active torsions:
REMARK  status: ('A' for Active; 'I' for Inactive)
REMARK    1  A    between atoms: C_2  and  N_3 
REMARK    2  A    between atoms: C_2  and  C_9 
REMARK    3  A    between atoms: N_3  and  C_4 
REMARK    4  A    between atoms: C_4  and  C_6 
REMARK       I    between atoms: C_6  and  N_8 
REMARK    5  A    between atoms: C_9  and  N_11 
ROOT
HETATM    1  C   UNL     1     -42.884 -47.626  13.158  1.00  0.00     0.045 C 
HETATM    2  C   UNL     1     -43.041 -48.037  11.686  1.00  0.00     0.241 C 
ENDROOT
BRANCH   2   3
HETATM    3  N   UNL     1     -43.917 -47.082  10.962  1.00  0.00     0.103 N 
HETATM    4  H   UNL     1     -43.425 -46.185  10.904  1.00  0.00     0.317 HD
BRANCH   3   5
HETATM    5  C   UNL     1     -44.345 -47.419   9.575  1.00  0.00     0.307 C 
HETATM    6  C   UNL     1     -45.840 -47.296   9.299  1.00  0.00     0.053 C 
BRANCH   5   7
HETATM    7  C   UNL     1     -43.640 -46.449   8.599  1.00  0.00     0.248 C 
HETATM    8  O   UNL     1     -43.601 -45.233   8.760  1.00  0.00    -0.271 OA
HETATM    9  N   UNL     1     -42.990 -47.049   7.563  1.00  0.00    -0.368 N 
HETATM   10  H   UNL     1     -43.024 -48.056   7.461  1.00  0.00     0.159 HD
HETATM   11  H   UNL     1     -42.465 -46.482   6.909  1.00  0.00     0.159 HD
ENDBRANCH   5   7
ENDBRANCH   3   5
ENDBRANCH   2   3
BRANCH   2  12
HETATM   12  C   UNL     1     -41.693 -48.413  10.985  1.00  0.00     0.136 C 
HETATM   13  C   UNL     1     -40.672 -47.264  10.953  1.00  0.00     0.036 C 
BRANCH  12  14
HETATM   14  N   UNL     1     -41.047 -49.603  11.550  1.00  0.00    -0.297 N 
HETATM   15  C   UNL     1     -39.755 -49.756  11.976  1.00  0.00     0.112 A 
HETATM   16  C   UNL     1     -39.643 -51.053  12.416  1.00  0.00     0.037 A 
HETATM   17  C   UNL     1     -40.908 -51.617  12.187  1.00  0.00     0.108 A 
HETATM   18  N   UNL     1     -41.763 -50.747  11.644  1.00  0.00    -0.310 N 
ATOM     19  HN  UNL     1     -42.731 -50.907  11.365  1.00  0.00     0.186 HD
ENDBRANCH  12  14
ENDBRANCH   2  12
TORSDOF 5
ENDMDL
MODEL 7
REMARK VINA RESULT:      -5.1      4.556      6.099
REMARK  5 active torsions:
REMARK  status: ('A' for Active; 'I' for Inactive)
REMARK    1  A    between atoms: C_2  and  N_3 
REMARK    2  A    between atoms: C_2  and  C_9 
REMARK    3  A    between atoms: N_3  and  C_4 
REMARK    4  A    between atoms: C_4  and  C_6 
REMARK       I    between atoms: C_6  and  N_8 
REMARK    5  A    between atoms: C_9  and  N_11 
ROOT
HETATM    1  C   UNL     1     -43.094 -48.795  13.000  1.00  0.00     0.045 C 
HETATM    2  C   UNL     1     -42.059 -48.407  11.934  1.00  0.00     0.241 C 
ENDROOT
BRANCH   2   3
HETATM    3  N   UNL     1     -41.661 -49.590  11.129  1.00  0.00     0.103 N 
HETATM    4  H   UNL     1     -41.669 -49.316  10.142  1.00  0.00     0.317 HD
BRANCH   3   5
HETATM    5  C   UNL     1     -40.330 -50.209  11.385  1.00  0.00     0.307 C 
HETATM    6  C   UNL     1     -39.416 -49.439  12.333  1.00  0.00     0.053 C 
BRANCH   5   7
HETATM    7  C   UNL     1     -40.555 -51.597  12.027  1.00  0.00     0.248 C 
HETATM    8  O   UNL     1     -40.173 -51.893  13.154  1.00  0.00    -0.271 OA
HETATM    9  N   UNL     1     -41.280 -52.468  11.271  1.00  0.00    -0.368 N 
HETATM   10  H   UNL     1     -41.599 -52.194  10.349  1.00  0.00     0.159 HD
HETATM   11  H   UNL     1     -41.510 -53.381  11.645  1.00  0.00     0.159 HD
ENDBRANCH   5   7
ENDBRANCH   3   5
ENDBRANCH   2   3
BRANCH   2  12
HETATM   12  C   UNL     1     -42.428 -47.113  11.134  1.00  0.00     0.136 C 
HETATM   13  C   UNL     1     -41.206 -46.294  10.688  1.00  0.00     0.036 C 
BRANCH  12  14
HETATM   14  N   UNL     1     -43.280 -47.365   9.966  1.00  0.00    -0.297 N 
HETATM   15  C   UNL     1     -44.642 -47.496   9.911  1.00  0.00     0.112 A 
HETATM   16  C   UNL     1     -44.956 -47.723   8.592  1.00  0.00     0.037 A 
HETATM   17  C   UNL     1     -43.718 -47.745   7.930  1.00  0.00     0.108 A 
HETATM   18  N   UNL     1     -42.693 -47.545   8.761  1.00  0.00    -0.310 N 
ATOM     19  HN  UNL     1     -41.697 -47.532   8.539  1.00  0.00     0.186 HD
ENDBRANCH  12  14
ENDBRANCH   2  12
TORSDOF 5
ENDMDL
MODEL 8
REMARK VINA RESULT:      -5.1      1.383      1.885
REMARK  5 active torsions:
REMARK  status: ('A' for Active; 'I' for Inactive)
REMARK    1  A    between atoms: C_2  and  N_3 
REMARK    2  A    between atoms: C_2  and  C_9 
REMARK    3  A    between atoms: N_3  and  C_4 
REMARK    4  A    between atoms: C_4  and  C_6 
REMARK       I    between atoms: C_6  and  N_8 
REMARK    5  A    between atoms: C_9  and  N_11 
ROOT
HETATM    1  C   UNL     1     -41.486 -54.241  14.013  1.00  0.00     0.045 C 
HETATM    2  C   UNL     1     -42.513 -53.311  13.350  1.00  0.00     0.241 C 
ENDROOT
BRANCH   2   3
HETATM    3  N   UNL     1     -41.970 -52.732  12.096  1.00  0.00     0.103 N 
HETATM    4  H   UNL     1     -42.618 -52.963  11.336  1.00  0.00     0.317 HD
BRANCH   3   5
HETATM    5  C   UNL     1     -41.749 -51.260  12.028  1.00  0.00     0.307 C 
HETATM    6  C   UNL     1     -42.181 -50.471  13.261  1.00  0.00     0.053 C 
BRANCH   5   7
HETATM    7  C   UNL     1     -40.234 -51.003  11.856  1.00  0.00     0.248 C 
HETATM    8  O   UNL     1     -39.367 -51.623  12.463  1.00  0.00    -0.271 OA
HETATM    9  N   UNL     1     -39.914 -50.072  10.914  1.00  0.00    -0.368 N 
HETATM   10  H   UNL     1     -40.648 -49.586  10.414  1.00  0.00     0.159 HD
HETATM   11  H   UNL     1     -38.939 -49.885  10.709  1.00  0.00     0.159 HD
ENDBRANCH   5   7
ENDBRANCH   3   5
ENDBRANCH   2   3
BRANCH   2  12
HETATM   12  C   UNL     1     -43.956 -53.913  13.271  1.00  0.00     0.136 C 
HETATM   13  C   UNL     1     -44.235 -54.987  14.335  1.00  0.00     0.036 C 
BRANCH  12  14
HETATM   14  N   UNL     1     -45.020 -52.905  13.326  1.00  0.00    -0.297 N 
HETATM   15  C   UNL     1     -45.597 -52.327  14.425  1.00  0.00     0.112 A 
HETATM   16  C   UNL     1     -46.542 -51.449  13.949  1.00  0.00     0.037 A 
HETATM   17  C   UNL     1     -46.488 -51.589  12.553  1.00  0.00     0.108 A 
HETATM   18  N   UNL     1     -45.577 -52.485  12.167  1.00  0.00    -0.310 N 
ATOM     19  HN  UNL     1     -45.353 -52.785  11.218  1.00  0.00     0.186 HD
ENDBRANCH  12  14
ENDBRANCH   2  12
TORSDOF 5
ENDMDL
MODEL 9
REMARK VINA RESULT:      -5.0      4.608      7.110
REMARK  5 active torsions:
REMARK  status: ('A' for Active; 'I' for Inactive)
REMARK    1  A    between atoms: C_2  and  N_3 
REMARK    2  A    between atoms: C_2  and  C_9 
REMARK    3  A    between atoms: N_3  and  C_4 
REMARK    4  A    between atoms: C_4  and  C_6 
REMARK       I    between atoms: C_6  and  N_8 
REMARK    5  A    between atoms: C_9  and  N_11 
ROOT
HETATM    1  C   UNL     1     -39.601 -47.419  12.676  1.00  0.00     0.045 C 
HETATM    2  C   UNL     1     -40.336 -48.336  11.686  1.00  0.00     0.241 C 
ENDROOT
BRANCH   2   3
HETATM    3  N   UNL     1     -40.839 -47.562  10.523  1.00  0.00     0.103 N 
HETATM    4  H   UNL     1     -40.299 -47.845   9.700  1.00  0.00     0.317 HD
BRANCH   3   5
HETATM    5  C   UNL     1     -42.276 -47.691  10.150  1.00  0.00     0.307 C 
HETATM    6  C   UNL     1     -43.243 -47.892  11.313  1.00  0.00     0.053 C 
BRANCH   5   7
HETATM    7  C   UNL     1     -42.713 -46.389   9.440  1.00  0.00     0.248 C 
HETATM    8  O   UNL     1     -42.619 -45.276   9.947  1.00  0.00    -0.271 OA
HETATM    9  N   UNL     1     -43.153 -46.553   8.161  1.00  0.00    -0.368 N 
HETATM   10  H   UNL     1     -43.205 -47.482   7.760  1.00  0.00     0.159 HD
HETATM   11  H   UNL     1     -43.410 -45.740   7.615  1.00  0.00     0.159 HD
ENDBRANCH   5   7
ENDBRANCH   3   5
ENDBRANCH   2   3
BRANCH   2  12
HETATM   12  C   UNL     1     -39.570 -49.662  11.361  1.00  0.00     0.136 C 
HETATM   13  C   UNL     1     -38.069 -49.603  11.687  1.00  0.00     0.036 C 
BRANCH  12  14
HETATM   14  N   UNL     1     -40.146 -50.848  12.002  1.00  0.00    -0.297 N 
HETATM   15  C   UNL     1     -39.897 -51.355  13.250  1.00  0.00     0.112 A 
HETATM   16  C   UNL     1     -40.684 -52.476  13.377  1.00  0.00     0.037 A 
HETATM   17  C   UNL     1     -41.348 -52.586  12.144  1.00  0.00     0.108 A 
HETATM   18  N   UNL     1     -41.013 -51.610  11.297  1.00  0.00    -0.310 N 
ATOM     19  HN  UNL     1     -41.336 -51.471  10.339  1.00  0.00     0.186 HD
ENDBRANCH  12  14
ENDBRANCH   2  12
TORSDOF 5
ENDMDL
