MODEL 1
REMARK VINA RESULT:      -6.7      0.000      0.000
REMARK  5 active torsions:
REMARK  status: ('A' for Active; 'I' for Inactive)
REMARK    1  A    between atoms: C_2  and  N_5 
REMARK       I    between atoms: N_5  and  C_6 
REMARK    2  A    between atoms: C_6  and  C_8 
REMARK    3  A    between atoms: C_8  and  N_9 
REMARK    4  A    between atoms: C_11  and  S_16 
REMARK    5  A    between atoms: S_16  and  N_19 
ROOT
HETATM    1  N   UNL     1     -41.007 -52.726  12.775  1.00  0.00    -0.314 N 
HETATM    2  C   UNL     1     -42.349 -53.087  12.865  1.00  0.00     0.120 A 
HETATM    3  C   UNL     1     -42.787 -53.907  13.836  1.00  0.00     0.095 A 
HETATM    4  C   UNL     1     -41.833 -54.470  14.771  1.00  0.00     0.032 A 
HETATM    5  C   UNL     1     -40.536 -54.139  14.712  1.00  0.00     0.076 A 
HETATM    6  C   UNL     1     -40.045 -53.198  13.669  1.00  0.00     0.247 A 
HETATM    7  O   UNL     1     -38.855 -52.905  13.636  1.00  0.00    -0.268 OA
ENDROOT
BRANCH   1   8
HETATM    8  C   UNL     1     -40.598 -51.732  11.780  1.00  0.00     0.234 C 
BRANCH   8   9
HETATM    9  C   UNL     1     -40.976 -50.267  12.034  1.00  0.00     0.236 C 
HETATM   10  N   UNL     1     -41.576 -49.584  10.998  1.00  0.00    -0.352 N 
HETATM   11  H   UNL     1     -41.649 -50.064  10.110  1.00  0.00     0.163 HD
HETATM   12  O   UNL     1     -40.729 -49.757  13.128  1.00  0.00    -0.272 OA
BRANCH  10  13
HETATM   13  C   UNL     1     -41.986 -48.167  11.070  1.00  0.00     0.022 C 
HETATM   14  C   UNL     1     -40.772 -47.244  11.262  1.00  0.00     0.037 C 
HETATM   15  C   UNL     1     -43.000 -47.948  12.206  1.00  0.00     0.037 C 
HETATM   16  C   UNL     1     -42.669 -47.782   9.745  1.00  0.00     0.037 C 
ENDBRANCH  10  13
ENDBRANCH   8   9
ENDBRANCH   1   8
BRANCH   3  17
HETATM   17  S   UNL     1     -44.482 -54.380  13.864  1.00  0.00     0.262 S 
HETATM   18  O   UNL     1     -44.956 -54.525  12.502  1.00  0.00    -0.200 OA
HETATM   19  O   UNL     1     -44.596 -55.487  14.792  1.00  0.00    -0.200 OA
BRANCH  17  20
HETATM   20  N   UNL     1     -45.363 -53.121  14.536  1.00  0.00    -0.307 N 
HETATM   21  C   UNL     1     -45.670 -53.062  15.972  1.00  0.00     0.135 C 
HETATM   22  C   UNL     1     -46.882 -52.135  16.069  1.00  0.00     0.022 C 
HETATM   23  C   UNL     1     -46.847 -51.327  14.783  1.00  0.00     0.022 C 
HETATM   24  C   UNL     1     -46.312 -52.321  13.762  1.00  0.00     0.135 C 
ENDBRANCH  17  20
ENDBRANCH   3  17
TORSDOF 5
ENDMDL
MODEL 2
REMARK VINA RESULT:      -6.4      1.739      2.397
REMARK  5 active torsions:
REMARK  status: ('A' for Active; 'I' for Inactive)
REMARK    1  A    between atoms: C_2  and  N_5 
REMARK       I    between atoms: N_5  and  C_6 
REMARK    2  A    between atoms: C_6  and  C_8 
REMARK    3  A    between atoms: C_8  and  N_9 
REMARK    4  A    between atoms: C_11  and  S_16 
REMARK    5  A    between atoms: S_16  and  N_19 
ROOT
HETATM    1  N   UNL     1     -41.331 -53.534  13.241  1.00  0.00    -0.314 N 
HETATM    2  C   UNL     1     -42.660 -53.691  13.626  1.00  0.00     0.120 A 
HETATM    3  C   UNL     1     -42.987 -54.347  14.753  1.00  0.00     0.095 A 
HETATM    4  C   UNL     1     -41.937 -54.949  15.551  1.00  0.00     0.032 A 
HETATM    5  C   UNL     1     -40.649 -54.812  15.208  1.00  0.00     0.076 A 
HETATM    6  C   UNL     1     -40.271 -54.052  13.987  1.00  0.00     0.247 A 
HETATM    7  O   UNL     1     -39.086 -53.934  13.694  1.00  0.00    -0.268 OA
ENDROOT
BRANCH   1   8
HETATM    8  C   UNL     1     -41.015 -52.705  12.075  1.00  0.00     0.234 C 
BRANCH   8   9
HETATM    9  C   UNL     1     -40.360 -51.340  12.324  1.00  0.00     0.236 C 
HETATM   10  N   UNL     1     -39.135 -51.114  11.734  1.00  0.00    -0.352 N 
HETATM   11  H   UNL     1     -38.706 -51.892  11.249  1.00  0.00     0.163 HD
HETATM   12  O   UNL     1     -40.933 -50.512  13.033  1.00  0.00    -0.272 OA
BRANCH  10  13
HETATM   13  C   UNL     1     -38.362 -49.865  11.886  1.00  0.00     0.022 C 
HETATM   14  C   UNL     1     -39.247 -48.630  11.656  1.00  0.00     0.037 C 
HETATM   15  C   UNL     1     -37.164 -49.843  10.921  1.00  0.00     0.037 C 
HETATM   16  C   UNL     1     -37.814 -49.795  13.323  1.00  0.00     0.037 C 
ENDBRANCH  10  13
ENDBRANCH   8   9
ENDBRANCH   1   8
BRANCH   3  17
HETATM   17  S   UNL     1     -44.685 -54.570  15.158  1.00  0.00     0.262 S 
HETATM   18  O   UNL     1     -45.273 -55.517  14.231  1.00  0.00    -0.200 OA
HETATM   19  O   UNL     1     -44.750 -54.818  16.584  1.00  0.00    -0.200 OA
BRANCH  17  20
HETATM   20  N   UNL     1     -45.477 -53.114  14.905  1.00  0.00    -0.307 N 
HETATM   21  C   UNL     1     -45.949 -52.278  16.018  1.00  0.00     0.135 C 
HETATM   22  C   UNL     1     -47.037 -51.398  15.403  1.00  0.00     0.022 C 
HETATM   23  C   UNL     1     -46.741 -51.410  13.913  1.00  0.00     0.022 C 
HETATM   24  C   UNL     1     -46.213 -52.818  13.676  1.00  0.00     0.135 C 
ENDBRANCH  17  20
ENDBRANCH   3  17
TORSDOF 5
ENDMDL
MODEL 3
REMARK VINA RESULT:      -6.2      1.849      2.381
REMARK  5 active torsions:
REMARK  status: ('A' for Active; 'I' for Inactive)
REMARK    1  A    between atoms: C_2  and  N_5 
REMARK       I    between atoms: N_5  and  C_6 
REMARK    2  A    between atoms: C_6  and  C_8 
REMARK    3  A    between atoms: C_8  and  N_9 
REMARK    4  A    between atoms: C_11  and  S_16 
REMARK    5  A    between atoms: S_16  and  N_19 
ROOT
HETATM    1  N   UNL     1     -40.829 -54.335  14.324  1.00  0.00    -0.314 N 
HETATM    2  C   UNL     1     -42.099 -54.214  13.765  1.00  0.00     0.120 A 
HETATM    3  C   UNL     1     -43.193 -54.637  14.421  1.00  0.00     0.095 A 
HETATM    4  C   UNL     1     -43.040 -55.283  15.710  1.00  0.00     0.032 A 
HETATM    5  C   UNL     1     -41.832 -55.411  16.274  1.00  0.00     0.076 A 
HETATM    6  C   UNL     1     -40.617 -54.908  15.579  1.00  0.00     0.247 A 
HETATM    7  O   UNL     1     -39.522 -55.030  16.116  1.00  0.00    -0.268 OA
ENDROOT
BRANCH   1   8
HETATM    8  C   UNL     1     -39.681 -53.745  13.631  1.00  0.00     0.234 C 
BRANCH   8   9
HETATM    9  C   UNL     1     -39.411 -52.249  13.838  1.00  0.00     0.236 C 
HETATM   10  N   UNL     1     -39.689 -51.408  12.782  1.00  0.00    -0.352 N 
HETATM   11  H   UNL     1     -39.971 -51.839  11.911  1.00  0.00     0.163 HD
HETATM   12  O   UNL     1     -38.955 -51.858  14.913  1.00  0.00    -0.272 OA
BRANCH  10  13
HETATM   13  C   UNL     1     -39.470 -49.948  12.809  1.00  0.00     0.022 C 
HETATM   14  C   UNL     1     -37.979 -49.610  12.966  1.00  0.00     0.037 C 
HETATM   15  C   UNL     1     -40.280 -49.294  13.941  1.00  0.00     0.037 C 
HETATM   16  C   UNL     1     -39.953 -49.350  11.474  1.00  0.00     0.037 C 
ENDBRANCH  10  13
ENDBRANCH   8   9
ENDBRANCH   1   8
BRANCH   3  17
HETATM   17  S   UNL     1     -44.766 -54.517  13.640  1.00  0.00     0.262 S 
HETATM   18  O   UNL     1     -44.575 -54.207  12.236  1.00  0.00    -0.200 OA
HETATM   19  O   UNL     1     -45.519 -55.694  14.025  1.00  0.00    -0.200 OA
BRANCH  17  20
HETATM   20  N   UNL     1     -45.579 -53.209  14.303  1.00  0.00    -0.307 N 
HETATM   21  C   UNL     1     -46.119 -53.237  15.669  1.00  0.00     0.135 C 
HETATM   22  C   UNL     1     -47.199 -52.154  15.678  1.00  0.00     0.022 C 
HETATM   23  C   UNL     1     -46.836 -51.246  14.516  1.00  0.00     0.022 C 
HETATM   24  C   UNL     1     -46.266 -52.210  13.485  1.00  0.00     0.135 C 
ENDBRANCH  17  20
ENDBRANCH   3  17
TORSDOF 5
ENDMDL
MODEL 4
REMARK VINA RESULT:      -6.0      2.057      2.637
REMARK  5 active torsions:
REMARK  status: ('A' for Active; 'I' for Inactive)
REMARK    1  A    between atoms: C_2  and  N_5 
REMARK       I    between atoms: N_5  and  C_6 
REMARK    2  A    between atoms: C_6  and  C_8 
REMARK    3  A    between atoms: C_8  and  N_9 
REMARK    4  A    between atoms: C_11  and  S_16 
REMARK    5  A    between atoms: S_16  and  N_19 
ROOT
HETATM    1  N   UNL     1     -40.438 -50.351  12.484  1.00  0.00    -0.314 N 
HETATM    2  C   UNL     1     -41.480 -51.242  12.729  1.00  0.00     0.120 A 
HETATM    3  C   UNL     1     -41.606 -51.857  13.918  1.00  0.00     0.095 A 
HETATM    4  C   UNL     1     -40.605 -51.630  14.942  1.00  0.00     0.032 A 
HETATM    5  C   UNL     1     -39.593 -50.777  14.736  1.00  0.00     0.076 A 
HETATM    6  C   UNL     1     -39.466 -50.056  13.441  1.00  0.00     0.247 A 
HETATM    7  O   UNL     1     -38.535 -49.275  13.276  1.00  0.00    -0.268 OA
ENDROOT
BRANCH   1   8
HETATM    8  C   UNL     1     -40.412 -49.609  11.221  1.00  0.00     0.234 C 
BRANCH   8   9
HETATM    9  C   UNL     1     -41.495 -48.546  10.993  1.00  0.00     0.236 C 
HETATM   10  N   UNL     1     -42.050 -48.475   9.733  1.00  0.00    -0.352 N 
HETATM   11  H   UNL     1     -41.647 -49.066   9.017  1.00  0.00     0.163 HD
HETATM   12  O   UNL     1     -41.821 -47.803  11.919  1.00  0.00    -0.272 OA
BRANCH  10  13
HETATM   13  C   UNL     1     -43.088 -47.500   9.341  1.00  0.00     0.022 C 
HETATM   14  C   UNL     1     -44.350 -47.651  10.206  1.00  0.00     0.037 C 
HETATM   15  C   UNL     1     -43.447 -47.653   7.853  1.00  0.00     0.037 C 
HETATM   16  C   UNL     1     -42.536 -46.078   9.553  1.00  0.00     0.037 C 
ENDBRANCH  10  13
ENDBRANCH   8   9
ENDBRANCH   1   8
BRANCH   3  17
HETATM   17  S   UNL     1     -42.905 -53.021  14.151  1.00  0.00     0.262 S 
HETATM   18  O   UNL     1     -42.701 -54.145  13.258  1.00  0.00    -0.200 OA
HETATM   19  O   UNL     1     -43.021 -53.243  15.579  1.00  0.00    -0.200 OA
BRANCH  17  20
HETATM   20  N   UNL     1     -44.342 -52.300  13.677  1.00  0.00    -0.307 N 
HETATM   21  C   UNL     1     -45.083 -51.382  14.553  1.00  0.00     0.135 C 
HETATM   22  C   UNL     1     -46.512 -51.400  14.011  1.00  0.00     0.022 C 
HETATM   23  C   UNL     1     -46.369 -51.888  12.579  1.00  0.00     0.022 C 
HETATM   24  C   UNL     1     -45.222 -52.884  12.664  1.00  0.00     0.135 C 
ENDBRANCH  17  20
ENDBRANCH   3  17
TORSDOF 5
ENDMDL
MODEL 5
REMARK VINA RESULT:      -6.0      1.565      2.160
REMARK  5 active torsions:
REMARK  status: ('A' for Active; 'I' for Inactive)
REMARK    1  A    between atoms: C_2  and  N_5 
REMARK       I    between atoms: N_5  and  C_6 
REMARK    2  A    between atoms: C_6  and  C_8 
REMARK    3  A    between atoms: C_8  and  N_9 
REMARK    4  A    between atoms: C_11  and  S_16 
REMARK    5  A    between atoms: S_16  and  N_19 
ROOT
HETATM    1  N   UNL     1     -41.573 -52.959  12.648  1.00  0.00    -0.314 N 
HETATM    2  C   UNL     1     -42.955 -53.119  12.698  1.00  0.00     0.120 A 
HETATM    3  C   UNL     1     -43.537 -53.860  13.658  1.00  0.00     0.095 A 
HETATM    4  C   UNL     1     -42.703 -54.549  14.623  1.00  0.00     0.032 A 
HETATM    5  C   UNL     1     -41.370 -54.411  14.601  1.00  0.00     0.076 A 
HETATM    6  C   UNL     1     -40.716 -53.560  13.571  1.00  0.00     0.247 A 
HETATM    7  O   UNL     1     -39.496 -53.443  13.573  1.00  0.00    -0.268 OA
ENDROOT
BRANCH   1   8
HETATM    8  C   UNL     1     -40.994 -52.041  11.663  1.00  0.00     0.234 C 
BRANCH   8   9
HETATM    9  C   UNL     1     -40.832 -50.569  12.064  1.00  0.00     0.236 C 
HETATM   10  N   UNL     1     -39.640 -50.206  12.655  1.00  0.00    -0.352 N 
HETATM   11  H   UNL     1     -38.985 -50.948  12.865  1.00  0.00     0.163 HD
HETATM   12  O   UNL     1     -41.754 -49.779  11.859  1.00  0.00    -0.272 OA
BRANCH  10  13
HETATM   13  C   UNL     1     -39.330 -48.838  13.116  1.00  0.00     0.022 C 
HETATM   14  C   UNL     1     -39.572 -47.805  12.004  1.00  0.00     0.037 C 
HETATM   15  C   UNL     1     -37.877 -48.745  13.614  1.00  0.00     0.037 C 
HETATM   16  C   UNL     1     -40.258 -48.491  14.295  1.00  0.00     0.037 C 
ENDBRANCH  10  13
ENDBRANCH   8   9
ENDBRANCH   1   8
BRANCH   3  17
HETATM   17  S   UNL     1     -45.283 -54.080  13.636  1.00  0.00     0.262 S 
HETATM   18  O   UNL     1     -45.810 -53.569  12.386  1.00  0.00    -0.200 OA
HETATM   19  O   UNL     1     -45.540 -55.453  14.023  1.00  0.00    -0.200 OA
BRANCH  17  20
HETATM   20  N   UNL     1     -45.943 -53.127  14.848  1.00  0.00    -0.307 N 
HETATM   21  C   UNL     1     -46.217 -51.696  14.654  1.00  0.00     0.135 C 
HETATM   22  C   UNL     1     -46.272 -51.120  16.069  1.00  0.00     0.022 C 
HETATM   23  C   UNL     1     -46.558 -52.319  16.957  1.00  0.00     0.022 C 
HETATM   24  C   UNL     1     -45.807 -53.449  16.268  1.00  0.00     0.135 C 
ENDBRANCH  17  20
ENDBRANCH   3  17
TORSDOF 5
ENDMDL
MODEL 6
REMARK VINA RESULT:      -6.0      2.436      5.642
REMARK  5 active torsions:
REMARK  status: ('A' for Active; 'I' for Inactive)
REMARK    1  A    between atoms: C_2  and  N_5 
REMARK       I    between atoms: N_5  and  C_6 
REMARK    2  A    between atoms: C_6  and  C_8 
REMARK    3  A    between atoms: C_8  and  N_9 
REMARK    4  A    between atoms: C_11  and  S_16 
REMARK    5  A    between atoms: S_16  and  N_19 
ROOT
HETATM    1  N   UNL     1     -40.510 -53.045  14.251  1.00  0.00    -0.314 N 
HETATM    2  C   UNL     1     -41.761 -53.621  14.454  1.00  0.00     0.120 A 
HETATM    3  C   UNL     1     -42.727 -53.536  13.523  1.00  0.00     0.095 A 
HETATM    4  C   UNL     1     -42.477 -52.781  12.311  1.00  0.00     0.032 A 
HETATM    5  C   UNL     1     -41.282 -52.219  12.086  1.00  0.00     0.076 A 
HETATM    6  C   UNL     1     -40.190 -52.342  13.088  1.00  0.00     0.247 A 
HETATM    7  O   UNL     1     -39.103 -51.824  12.860  1.00  0.00    -0.268 OA
ENDROOT
BRANCH   1   8
HETATM    8  C   UNL     1     -39.449 -53.271  15.236  1.00  0.00     0.234 C 
BRANCH   8   9
HETATM    9  C   UNL     1     -39.266 -54.694  15.777  1.00  0.00     0.236 C 
HETATM   10  N   UNL     1     -39.607 -54.915  17.094  1.00  0.00    -0.352 N 
HETATM   11  H   UNL     1     -39.873 -54.107  17.643  1.00  0.00     0.163 HD
HETATM   12  O   UNL     1     -38.821 -55.573  15.037  1.00  0.00    -0.272 OA
BRANCH  10  13
HETATM   13  C   UNL     1     -39.476 -56.218  17.775  1.00  0.00     0.022 C 
HETATM   14  C   UNL     1     -38.011 -56.681  17.817  1.00  0.00     0.037 C 
HETATM   15  C   UNL     1     -40.346 -57.285  17.088  1.00  0.00     0.037 C 
HETATM   16  C   UNL     1     -39.967 -56.070  19.227  1.00  0.00     0.037 C 
ENDBRANCH  10  13
ENDBRANCH   8   9
ENDBRANCH   1   8
BRANCH   3  17
HETATM   17  S   UNL     1     -44.310 -54.228  13.859  1.00  0.00     0.262 S 
HETATM   18  O   UNL     1     -44.940 -54.599  12.607  1.00  0.00    -0.200 OA
HETATM   19  O   UNL     1     -44.124 -55.221  14.898  1.00  0.00    -0.200 OA
BRANCH  17  20
HETATM   20  N   UNL     1     -45.271 -53.030  14.531  1.00  0.00    -0.307 N 
HETATM   21  C   UNL     1     -45.515 -52.944  15.977  1.00  0.00     0.135 C 
HETATM   22  C   UNL     1     -46.801 -52.127  16.103  1.00  0.00     0.022 C 
HETATM   23  C   UNL     1     -46.900 -51.368  14.791  1.00  0.00     0.022 C 
HETATM   24  C   UNL     1     -46.324 -52.348  13.778  1.00  0.00     0.135 C 
ENDBRANCH  17  20
ENDBRANCH   3  17
TORSDOF 5
ENDMDL
MODEL 7
REMARK VINA RESULT:      -5.8      2.935      6.251
REMARK  5 active torsions:
REMARK  status: ('A' for Active; 'I' for Inactive)
REMARK    1  A    between atoms: C_2  and  N_5 
REMARK       I    between atoms: N_5  and  C_6 
REMARK    2  A    between atoms: C_6  and  C_8 
REMARK    3  A    between atoms: C_8  and  N_9 
REMARK    4  A    between atoms: C_11  and  S_16 
REMARK    5  A    between atoms: S_16  and  N_19 
ROOT
HETATM    1  N   UNL     1     -40.778 -51.006  12.070  1.00  0.00    -0.314 N 
HETATM    2  C   UNL     1     -41.258 -49.814  11.533  1.00  0.00     0.120 A 
HETATM    3  C   UNL     1     -40.526 -48.686  11.573  1.00  0.00     0.095 A 
HETATM    4  C   UNL     1     -39.239 -48.702  12.239  1.00  0.00     0.032 A 
HETATM    5  C   UNL     1     -38.750 -49.834  12.762  1.00  0.00     0.076 A 
HETATM    6  C   UNL     1     -39.530 -51.099  12.687  1.00  0.00     0.247 A 
HETATM    7  O   UNL     1     -39.061 -52.125  13.167  1.00  0.00    -0.268 OA
ENDROOT
BRANCH   1   8
HETATM    8  C   UNL     1     -41.554 -52.236  11.891  1.00  0.00     0.234 C 
BRANCH   8   9
HETATM    9  C   UNL     1     -42.707 -52.504  12.866  1.00  0.00     0.236 C 
HETATM   10  N   UNL     1     -43.948 -52.013  12.522  1.00  0.00    -0.352 N 
HETATM   11  H   UNL     1     -44.002 -51.433  11.695  1.00  0.00     0.163 HD
HETATM   12  O   UNL     1     -42.490 -53.129  13.905  1.00  0.00    -0.272 OA
BRANCH  10  13
HETATM   13  C   UNL     1     -45.158 -52.167  13.355  1.00  0.00     0.022 C 
HETATM   14  C   UNL     1     -45.026 -51.397  14.679  1.00  0.00     0.037 C 
HETATM   15  C   UNL     1     -45.443 -53.652  13.635  1.00  0.00     0.037 C 
HETATM   16  C   UNL     1     -46.362 -51.589  12.589  1.00  0.00     0.037 C 
ENDBRANCH  10  13
ENDBRANCH   8   9
ENDBRANCH   1   8
BRANCH   3  17
HETATM   17  S   UNL     1     -41.208 -47.195  10.936  1.00  0.00     0.262 S 
HETATM   18  O   UNL     1     -40.131 -46.271  10.638  1.00  0.00    -0.200 OA
HETATM   19  O   UNL     1     -42.148 -47.570   9.898  1.00  0.00    -0.200 OA
BRANCH  17  20
HETATM   20  N   UNL     1     -42.119 -46.478  12.147  1.00  0.00    -0.307 N 
HETATM   21  C   UNL     1     -42.357 -45.029  12.192  1.00  0.00     0.135 C 
HETATM   22  C   UNL     1     -42.716 -44.742  13.650  1.00  0.00     0.022 C 
HETATM   23  C   UNL     1     -43.174 -46.082  14.200  1.00  0.00     0.022 C 
HETATM   24  C   UNL     1     -42.284 -47.079  13.471  1.00  0.00     0.135 C 
ENDBRANCH  17  20
ENDBRANCH   3  17
TORSDOF 5
ENDMDL
MODEL 8
REMARK VINA RESULT:      -5.4      2.289      3.237
REMARK  5 active torsions:
REMARK  status: ('A' for Active; 'I' for Inactive)
REMARK    1  A    between atoms: C_2  and  N_5 
REMARK       I    between atoms: N_5  and  C_6 
REMARK    2  A    between atoms: C_6  and  C_8 
REMARK    3  A    between atoms: C_8  and  N_9 
REMARK    4  A    between atoms: C_11  and  S_16 
REMARK    5  A    between atoms: S_16  and  N_19 
ROOT
HETATM    1  N   UNL     1     -40.709 -52.982  15.462  1.00  0.00    -0.314 N 
HETATM    2  C   UNL     1     -41.927 -53.597  15.184  1.00  0.00     0.120 A 
HETATM    3  C   UNL     1     -43.002 -53.402  15.968  1.00  0.00     0.095 A 
HETATM    4  C   UNL     1     -42.871 -52.582  17.156  1.00  0.00     0.032 A 
HETATM    5  C   UNL     1     -41.713 -51.975  17.448  1.00  0.00     0.076 A 
HETATM    6  C   UNL     1     -40.528 -52.146  16.565  1.00  0.00     0.247 A 
HETATM    7  O   UNL     1     -39.480 -51.577  16.847  1.00  0.00    -0.268 OA
ENDROOT
BRANCH   1   8
HETATM    8  C   UNL     1     -39.603 -53.120  14.511  1.00  0.00     0.234 C 
BRANCH   8   9
HETATM    9  C   UNL     1     -39.444 -52.037  13.435  1.00  0.00     0.236 C 
HETATM   10  N   UNL     1     -38.705 -50.923  13.769  1.00  0.00    -0.352 N 
HETATM   11  H   UNL     1     -38.390 -50.848  14.728  1.00  0.00     0.163 HD
HETATM   12  O   UNL     1     -39.976 -52.192  12.335  1.00  0.00    -0.272 OA
BRANCH  10  13
HETATM   13  C   UNL     1     -38.471 -49.783  12.860  1.00  0.00     0.022 C 
HETATM   14  C   UNL     1     -39.794 -49.227  12.309  1.00  0.00     0.037 C 
HETATM   15  C   UNL     1     -37.547 -50.191  11.699  1.00  0.00     0.037 C 
HETATM   16  C   UNL     1     -37.776 -48.657  13.647  1.00  0.00     0.037 C 
ENDBRANCH  10  13
ENDBRANCH   8   9
ENDBRANCH   1   8
BRANCH   3  17
HETATM   17  S   UNL     1     -44.498 -54.255  15.605  1.00  0.00     0.262 S 
HETATM   18  O   UNL     1     -44.213 -55.345  14.694  1.00  0.00    -0.200 OA
HETATM   19  O   UNL     1     -45.149 -54.522  16.872  1.00  0.00    -0.200 OA
BRANCH  17  20
HETATM   20  N   UNL     1     -45.509 -53.204  14.778  1.00  0.00    -0.307 N 
HETATM   21  C   UNL     1     -45.596 -53.197  13.311  1.00  0.00     0.135 C 
HETATM   22  C   UNL     1     -46.151 -51.815  12.965  1.00  0.00     0.022 C 
HETATM   23  C   UNL     1     -46.830 -51.347  14.241  1.00  0.00     0.022 C 
HETATM   24  C   UNL     1     -45.947 -51.925  15.337  1.00  0.00     0.135 C 
ENDBRANCH  17  20
ENDBRANCH   3  17
TORSDOF 5
ENDMDL
MODEL 9
REMARK VINA RESULT:      -5.4      2.536      4.246
REMARK  5 active torsions:
REMARK  status: ('A' for Active; 'I' for Inactive)
REMARK    1  A    between atoms: C_2  and  N_5 
REMARK       I    between atoms: N_5  and  C_6 
REMARK    2  A    between atoms: C_6  and  C_8 
REMARK    3  A    between atoms: C_8  and  N_9 
REMARK    4  A    between atoms: C_11  and  S_16 
REMARK    5  A    between atoms: S_16  and  N_19 
ROOT
HETATM    1  N   UNL     1     -40.564 -53.380  13.963  1.00  0.00    -0.314 N 
HETATM    2  C   UNL     1     -41.832 -53.879  14.248  1.00  0.00     0.120 A 
HETATM    3  C   UNL     1     -42.891 -53.573  13.479  1.00  0.00     0.095 A 
HETATM    4  C   UNL     1     -42.717 -52.659  12.366  1.00  0.00     0.032 A 
HETATM    5  C   UNL     1     -41.508 -52.165  12.066  1.00  0.00     0.076 A 
HETATM    6  C   UNL     1     -40.320 -52.531  12.883  1.00  0.00     0.247 A 
HETATM    7  O   UNL     1     -39.222 -52.072  12.587  1.00  0.00    -0.268 OA
ENDROOT
BRANCH   1   8
HETATM    8  C   UNL     1     -39.418 -53.842  14.751  1.00  0.00     0.234 C 
BRANCH   8   9
HETATM    9  C   UNL     1     -39.000 -53.004  15.967  1.00  0.00     0.236 C 
HETATM   10  N   UNL     1     -38.497 -51.745  15.720  1.00  0.00    -0.352 N 
HETATM   11  H   UNL     1     -38.353 -51.488  14.751  1.00  0.00     0.163 HD
HETATM   12  O   UNL     1     -39.118 -53.476  17.098  1.00  0.00    -0.272 OA
BRANCH  10  13
HETATM   13  C   UNL     1     -38.033 -50.819  16.772  1.00  0.00     0.022 C 
HETATM   14  C   UNL     1     -39.164 -50.479  17.755  1.00  0.00     0.037 C 
HETATM   15  C   UNL     1     -37.466 -49.529  16.154  1.00  0.00     0.037 C 
HETATM   16  C   UNL     1     -36.903 -51.500  17.567  1.00  0.00     0.037 C 
ENDBRANCH  10  13
ENDBRANCH   8   9
ENDBRANCH   1   8
BRANCH   3  17
HETATM   17  S   UNL     1     -44.482 -54.181  13.921  1.00  0.00     0.262 S 
HETATM   18  O   UNL     1     -45.159 -54.650  12.728  1.00  0.00    -0.200 OA
HETATM   19  O   UNL     1     -44.293 -55.076  15.045  1.00  0.00    -0.200 OA
BRANCH  17  20
HETATM   20  N   UNL     1     -45.389 -52.895  14.501  1.00  0.00    -0.307 N 
HETATM   21  C   UNL     1     -44.787 -51.801  15.275  1.00  0.00     0.135 C 
HETATM   22  C   UNL     1     -45.956 -51.183  16.042  1.00  0.00     0.022 C 
HETATM   23  C   UNL     1     -47.189 -51.606  15.262  1.00  0.00     0.022 C 
HETATM   24  C   UNL     1     -46.825 -52.997  14.763  1.00  0.00     0.135 C 
ENDBRANCH  17  20
ENDBRANCH   3  17
TORSDOF 5
ENDMDL
