MODEL 1
REMARK VINA RESULT:      -6.2      0.000      0.000
REMARK  5 active torsions:
REMARK  status: ('A' for Active; 'I' for Inactive)
REMARK    1  A    between atoms: C_2  and  C_4 
REMARK    2  A    between atoms: C_4  and  O_5 
REMARK    3  A    between atoms: O_5  and  C_6 
REMARK    4  A    between atoms: C_10  and  N_11 
REMARK       I    between atoms: N_11  and  C_12 
REMARK       I    between atoms: C_12  and  N_14 
REMARK    5  A    between atoms: N_14  and  C_15 
ROOT
HETATM    1  C   UNL     1     -44.246 -53.917  13.102  1.00  0.00     0.143 A 
HETATM    2  C   UNL     1     -44.137 -54.695  14.234  1.00  0.00     0.056 A 
HETATM    3  C   UNL     1     -42.860 -54.928  14.734  1.00  0.00     0.008 A 
HETATM    4  C   UNL     1     -41.760 -54.348  14.101  1.00  0.00     0.049 A 
HETATM    5  C   UNL     1     -41.970 -53.546  12.986  1.00  0.00     0.110 A 
HETATM    6  N   UNL     1     -43.198 -53.343  12.490  1.00  0.00    -0.323 N 
ATOM      7  HN  UNL     1     -43.334 -52.762  11.663  1.00  0.00     0.169 HD
ENDROOT
BRANCH   5   8
HETATM    8  N   UNL     1     -40.868 -52.933  12.381  1.00  0.00    -0.295 N 
HETATM    9  C   UNL     1     -40.603 -51.578  12.432  1.00  0.00     0.322 C 
HETATM   10  O   UNL     1     -41.311 -50.713  12.935  1.00  0.00    -0.247 OA
HETATM   11  N   UNL     1     -39.398 -51.267  11.816  1.00  0.00    -0.338 N 
HETATM   12  H   UNL     1     -38.778 -52.014  11.541  1.00  0.00     0.164 HD
HETATM   13  H   UNL     1     -40.248 -53.514  11.841  1.00  0.00     0.172 HD
BRANCH  11  14
HETATM   14  C   UNL     1     -38.906 -49.924  11.761  1.00  0.00     0.086 A 
HETATM   15  C   UNL     1     -37.486 -49.668  11.339  1.00  0.00     0.027 A 
HETATM   16  C   UNL     1     -37.903 -49.409  12.757  1.00  0.00     0.027 A 
ENDBRANCH  11  14
ENDBRANCH   5   8
BRANCH   1  17
HETATM   17  O   UNL     1     -45.492 -53.766  12.542  1.00  0.00    -0.330 OA
BRANCH  17  18
HETATM   18  C   UNL     1     -46.404 -53.092  13.432  1.00  0.00     0.248 C 
BRANCH  18  19
HETATM   19  C   UNL     1     -46.403 -51.581  13.230  1.00  0.00     0.377 C 
HETATM   20  F   UNL     1     -47.011 -51.287  12.044  1.00  0.00    -0.212 F 
HETATM   21  F   UNL     1     -47.153 -50.979  14.190  1.00  0.00    -0.212 F 
ENDBRANCH  18  19
ENDBRANCH  17  18
ENDBRANCH   1  17
TORSDOF 5
ENDMDL
MODEL 2
REMARK VINA RESULT:      -6.1      2.012      2.232
REMARK  5 active torsions:
REMARK  status: ('A' for Active; 'I' for Inactive)
REMARK    1  A    between atoms: C_2  and  C_4 
REMARK    2  A    between atoms: C_4  and  O_5 
REMARK    3  A    between atoms: O_5  and  C_6 
REMARK    4  A    between atoms: C_10  and  N_11 
REMARK       I    between atoms: N_11  and  C_12 
REMARK       I    between atoms: C_12  and  N_14 
REMARK    5  A    between atoms: N_14  and  C_15 
ROOT
HETATM    1  C   UNL     1     -43.445 -53.339  12.464  1.00  0.00     0.143 A 
HETATM    2  C   UNL     1     -42.732 -54.241  13.224  1.00  0.00     0.056 A 
HETATM    3  C   UNL     1     -41.362 -54.040  13.346  1.00  0.00     0.008 A 
HETATM    4  C   UNL     1     -40.775 -52.932  12.733  1.00  0.00     0.049 A 
HETATM    5  C   UNL     1     -41.580 -52.053  12.017  1.00  0.00     0.110 A 
HETATM    6  N   UNL     1     -42.896 -52.262  11.879  1.00  0.00    -0.323 N 
ATOM      7  HN  UNL     1     -43.470 -51.614  11.340  1.00  0.00     0.169 HD
ENDROOT
BRANCH   5   8
HETATM    8  N   UNL     1     -40.993 -50.922  11.441  1.00  0.00    -0.295 N 
HETATM    9  C   UNL     1     -41.484 -49.637  11.569  1.00  0.00     0.322 C 
HETATM   10  O   UNL     1     -42.523 -49.303  12.128  1.00  0.00    -0.247 OA
HETATM   11  N   UNL     1     -40.651 -48.706  10.963  1.00  0.00    -0.338 N 
HETATM   12  H   UNL     1     -39.741 -48.996  10.640  1.00  0.00     0.164 HD
HETATM   13  H   UNL     1     -40.181 -51.059  10.862  1.00  0.00     0.172 HD
BRANCH  11  14
HETATM   14  C   UNL     1     -40.947 -47.306  10.984  1.00  0.00     0.086 A 
HETATM   15  C   UNL     1     -39.844 -46.308  10.763  1.00  0.00     0.027 A 
HETATM   16  C   UNL     1     -40.494 -46.419  12.111  1.00  0.00     0.027 A 
ENDBRANCH  11  14
ENDBRANCH   5   8
BRANCH   1  17
HETATM   17  O   UNL     1     -44.780 -53.586  12.254  1.00  0.00    -0.330 OA
BRANCH  17  18
HETATM   18  C   UNL     1     -45.606 -52.979  13.268  1.00  0.00     0.248 C 
BRANCH  18  19
HETATM   19  C   UNL     1     -46.231 -51.669  12.800  1.00  0.00     0.377 C 
HETATM   20  F   UNL     1     -47.058 -51.920  11.743  1.00  0.00    -0.212 F 
HETATM   21  F   UNL     1     -47.023 -51.153  13.775  1.00  0.00    -0.212 F 
ENDBRANCH  18  19
ENDBRANCH  17  18
ENDBRANCH   1  17
TORSDOF 5
ENDMDL
MODEL 3
REMARK VINA RESULT:      -6.1      3.936      6.082
REMARK  5 active torsions:
REMARK  status: ('A' for Active; 'I' for Inactive)
REMARK    1  A    between atoms: C_2  and  C_4 
REMARK    2  A    between atoms: C_4  and  O_5 
REMARK    3  A    between atoms: O_5  and  C_6 
REMARK    4  A    between atoms: C_10  and  N_11 
REMARK       I    between atoms: N_11  and  C_12 
REMARK       I    between atoms: C_12  and  N_14 
REMARK    5  A    between atoms: N_14  and  C_15 
ROOT
HETATM    1  C   UNL     1     -42.973 -47.067   9.660  1.00  0.00     0.143 A 
HETATM    2  C   UNL     1     -42.280 -45.937  10.034  1.00  0.00     0.056 A 
HETATM    3  C   UNL     1     -41.117 -46.110  10.777  1.00  0.00     0.008 A 
HETATM    4  C   UNL     1     -40.686 -47.402  11.083  1.00  0.00     0.049 A 
HETATM    5  C   UNL     1     -41.431 -48.485  10.631  1.00  0.00     0.110 A 
HETATM    6  N   UNL     1     -42.564 -48.316   9.936  1.00  0.00    -0.323 N 
ATOM      7  HN  UNL     1     -43.105 -49.122   9.623  1.00  0.00     0.169 HD
ENDROOT
BRANCH   5   8
HETATM    8  N   UNL     1     -40.971 -49.778  10.904  1.00  0.00    -0.295 N 
HETATM    9  C   UNL     1     -41.580 -50.652  11.783  1.00  0.00     0.322 C 
HETATM   10  O   UNL     1     -42.547 -50.416  12.500  1.00  0.00    -0.247 OA
HETATM   11  N   UNL     1     -40.954 -51.892  11.789  1.00  0.00    -0.338 N 
HETATM   12  H   UNL     1     -40.257 -52.096  11.089  1.00  0.00     0.164 HD
HETATM   13  H   UNL     1     -40.119 -50.075  10.459  1.00  0.00     0.172 HD
BRANCH  11  14
HETATM   14  C   UNL     1     -41.422 -52.966  12.612  1.00  0.00     0.086 A 
HETATM   15  C   UNL     1     -40.941 -53.080  14.032  1.00  0.00     0.027 A 
HETATM   16  C   UNL     1     -40.522 -54.101  13.017  1.00  0.00     0.027 A 
ENDBRANCH  11  14
ENDBRANCH   5   8
BRANCH   1  17
HETATM   17  O   UNL     1     -44.174 -46.903   9.014  1.00  0.00    -0.330 OA
BRANCH  17  18
HETATM   18  C   UNL     1     -45.245 -47.598   9.683  1.00  0.00     0.248 C 
BRANCH  18  19
HETATM   19  C   UNL     1     -46.410 -47.908   8.748  1.00  0.00     0.377 C 
HETATM   20  F   UNL     1     -46.669 -49.247   8.786  1.00  0.00    -0.212 F 
HETATM   21  F   UNL     1     -47.541 -47.299   9.190  1.00  0.00    -0.212 F 
ENDBRANCH  18  19
ENDBRANCH  17  18
ENDBRANCH   1  17
TORSDOF 5
ENDMDL
MODEL 4
REMARK VINA RESULT:      -5.9      3.801      5.837
REMARK  5 active torsions:
REMARK  status: ('A' for Active; 'I' for Inactive)
REMARK    1  A    between atoms: C_2  and  C_4 
REMARK    2  A    between atoms: C_4  and  O_5 
REMARK    3  A    between atoms: O_5  and  C_6 
REMARK    4  A    between atoms: C_10  and  N_11 
REMARK       I    between atoms: N_11  and  C_12 
REMARK       I    between atoms: C_12  and  N_14 
REMARK    5  A    between atoms: N_14  and  C_15 
ROOT
HETATM    1  C   UNL     1     -39.220 -51.581  12.857  1.00  0.00     0.143 A 
HETATM    2  C   UNL     1     -38.100 -50.930  13.327  1.00  0.00     0.056 A 
HETATM    3  C   UNL     1     -37.788 -49.697  12.765  1.00  0.00     0.008 A 
HETATM    4  C   UNL     1     -38.624 -49.159  11.786  1.00  0.00     0.049 A 
HETATM    5  C   UNL     1     -39.755 -49.871  11.401  1.00  0.00     0.110 A 
HETATM    6  N   UNL     1     -40.041 -51.070  11.925  1.00  0.00    -0.323 N 
ATOM      7  HN  UNL     1     -40.867 -51.585  11.622  1.00  0.00     0.169 HD
ENDROOT
BRANCH   5   8
HETATM    8  N   UNL     1     -40.612 -49.308  10.450  1.00  0.00    -0.295 N 
HETATM    9  C   UNL     1     -41.794 -48.660  10.752  1.00  0.00     0.322 C 
HETATM   10  O   UNL     1     -42.303 -48.545  11.862  1.00  0.00    -0.247 OA
HETATM   11  N   UNL     1     -42.393 -48.129   9.617  1.00  0.00    -0.338 N 
HETATM   12  H   UNL     1     -41.880 -48.118   8.749  1.00  0.00     0.164 HD
HETATM   13  H   UNL     1     -40.369 -49.415   9.479  1.00  0.00     0.172 HD
BRANCH  11  14
HETATM   14  C   UNL     1     -43.621 -47.397   9.688  1.00  0.00     0.086 A 
HETATM   15  C   UNL     1     -44.679 -47.614   8.641  1.00  0.00     0.027 A 
HETATM   16  C   UNL     1     -43.948 -46.306   8.706  1.00  0.00     0.027 A 
ENDBRANCH  11  14
ENDBRANCH   5   8
BRANCH   1  17
HETATM   17  O   UNL     1     -39.479 -52.843  13.333  1.00  0.00    -0.330 OA
BRANCH  17  18
HETATM   18  C   UNL     1     -40.750 -52.913  14.009  1.00  0.00     0.248 C 
BRANCH  18  19
HETATM   19  C   UNL     1     -41.697 -53.918  13.363  1.00  0.00     0.377 C 
HETATM   20  F   UNL     1     -42.543 -53.258  12.520  1.00  0.00    -0.212 F 
HETATM   21  F   UNL     1     -41.000 -54.785  12.583  1.00  0.00    -0.212 F 
ENDBRANCH  18  19
ENDBRANCH  17  18
ENDBRANCH   1  17
TORSDOF 5
ENDMDL
MODEL 5
REMARK VINA RESULT:      -5.4      4.079      6.395
REMARK  5 active torsions:
REMARK  status: ('A' for Active; 'I' for Inactive)
REMARK    1  A    between atoms: C_2  and  C_4 
REMARK    2  A    between atoms: C_4  and  O_5 
REMARK    3  A    between atoms: O_5  and  C_6 
REMARK    4  A    between atoms: C_10  and  N_11 
REMARK       I    between atoms: N_11  and  C_12 
REMARK       I    between atoms: C_12  and  N_14 
REMARK    5  A    between atoms: N_14  and  C_15 
ROOT
HETATM    1  C   UNL     1     -38.439 -50.686  13.117  1.00  0.00     0.143 A 
HETATM    2  C   UNL     1     -37.885 -49.985  14.167  1.00  0.00     0.056 A 
HETATM    3  C   UNL     1     -37.999 -48.600  14.147  1.00  0.00     0.008 A 
HETATM    4  C   UNL     1     -38.685 -47.983  13.099  1.00  0.00     0.049 A 
HETATM    5  C   UNL     1     -39.244 -48.774  12.103  1.00  0.00     0.110 A 
HETATM    6  N   UNL     1     -39.113 -50.107  12.110  1.00  0.00    -0.323 N 
ATOM      7  HN  UNL     1     -39.518 -50.672  11.364  1.00  0.00     0.169 HD
ENDROOT
BRANCH   5   8
HETATM    8  N   UNL     1     -39.967 -48.154  11.078  1.00  0.00    -0.295 N 
HETATM    9  C   UNL     1     -41.314 -48.353  10.843  1.00  0.00     0.322 C 
HETATM   10  O   UNL     1     -42.051 -49.139  11.429  1.00  0.00    -0.247 OA
HETATM   11  N   UNL     1     -41.781 -47.543   9.817  1.00  0.00    -0.338 N 
HETATM   12  H   UNL     1     -41.186 -46.813   9.457  1.00  0.00     0.164 HD
HETATM   13  H   UNL     1     -39.463 -47.552  10.448  1.00  0.00     0.172 HD
BRANCH  11  14
HETATM   14  C   UNL     1     -43.153 -47.563   9.408  1.00  0.00     0.086 A 
HETATM   15  C   UNL     1     -43.493 -47.749   7.955  1.00  0.00     0.027 A 
HETATM   16  C   UNL     1     -43.759 -46.433   8.623  1.00  0.00     0.027 A 
ENDBRANCH  11  14
ENDBRANCH   5   8
BRANCH   1  17
HETATM   17  O   UNL     1     -38.244 -52.045  13.076  1.00  0.00    -0.330 OA
BRANCH  17  18
HETATM   18  C   UNL     1     -39.046 -52.734  14.056  1.00  0.00     0.248 C 
BRANCH  18  19
HETATM   19  C   UNL     1     -40.324 -53.313  13.459  1.00  0.00     0.377 C 
HETATM   20  F   UNL     1     -40.137 -54.640  13.201  1.00  0.00    -0.212 F 
HETATM   21  F   UNL     1     -41.335 -53.250  14.363  1.00  0.00    -0.212 F 
ENDBRANCH  18  19
ENDBRANCH  17  18
ENDBRANCH   1  17
TORSDOF 5
ENDMDL
MODEL 6
REMARK VINA RESULT:      -5.3      3.443      4.260
REMARK  5 active torsions:
REMARK  status: ('A' for Active; 'I' for Inactive)
REMARK    1  A    between atoms: C_2  and  C_4 
REMARK    2  A    between atoms: C_4  and  O_5 
REMARK    3  A    between atoms: O_5  and  C_6 
REMARK    4  A    between atoms: C_10  and  N_11 
REMARK       I    between atoms: N_11  and  C_12 
REMARK       I    between atoms: C_12  and  N_14 
REMARK    5  A    between atoms: N_14  and  C_15 
ROOT
HETATM    1  C   UNL     1     -43.335 -54.913  14.594  1.00  0.00     0.143 A 
HETATM    2  C   UNL     1     -44.645 -54.931  14.165  1.00  0.00     0.056 A 
HETATM    3  C   UNL     1     -44.973 -54.146  13.065  1.00  0.00     0.008 A 
HETATM    4  C   UNL     1     -43.975 -53.406  12.429  1.00  0.00     0.049 A 
HETATM    5  C   UNL     1     -42.673 -53.479  12.910  1.00  0.00     0.110 A 
HETATM    6  N   UNL     1     -42.362 -54.217  13.984  1.00  0.00    -0.323 N 
ATOM      7  HN  UNL     1     -41.404 -54.249  14.331  1.00  0.00     0.169 HD
ENDROOT
BRANCH   5   8
HETATM    8  N   UNL     1     -41.669 -52.770  12.242  1.00  0.00    -0.295 N 
HETATM    9  C   UNL     1     -40.804 -51.882  12.851  1.00  0.00     0.322 C 
HETATM   10  O   UNL     1     -40.827 -51.526  14.025  1.00  0.00    -0.247 OA
HETATM   11  N   UNL     1     -39.859 -51.392  11.960  1.00  0.00    -0.338 N 
HETATM   12  H   UNL     1     -39.781 -51.810  11.045  1.00  0.00     0.164 HD
HETATM   13  H   UNL     1     -41.598 -52.887  11.245  1.00  0.00     0.172 HD
BRANCH  11  14
HETATM   14  C   UNL     1     -38.846 -50.468  12.370  1.00  0.00     0.086 A 
HETATM   15  C   UNL     1     -37.892 -49.908  11.351  1.00  0.00     0.027 A 
HETATM   16  C   UNL     1     -37.392 -50.853  12.404  1.00  0.00     0.027 A 
ENDBRANCH  11  14
ENDBRANCH   5   8
BRANCH   1  17
HETATM   17  O   UNL     1     -43.023 -55.605  15.739  1.00  0.00    -0.330 OA
BRANCH  17  18
HETATM   18  C   UNL     1     -41.790 -55.144  16.327  1.00  0.00     0.248 C 
BRANCH  18  19
HETATM   19  C   UNL     1     -40.935 -56.291  16.857  1.00  0.00     0.377 C 
HETATM   20  F   UNL     1     -41.522 -57.477  16.525  1.00  0.00    -0.212 F 
HETATM   21  F   UNL     1     -39.723 -56.293  16.245  1.00  0.00    -0.212 F 
ENDBRANCH  18  19
ENDBRANCH  17  18
ENDBRANCH   1  17
TORSDOF 5
ENDMDL
MODEL 7
REMARK VINA RESULT:      -5.3      6.184      7.548
REMARK  5 active torsions:
REMARK  status: ('A' for Active; 'I' for Inactive)
REMARK    1  A    between atoms: C_2  and  C_4 
REMARK    2  A    between atoms: C_4  and  O_5 
REMARK    3  A    between atoms: O_5  and  C_6 
REMARK    4  A    between atoms: C_10  and  N_11 
REMARK       I    between atoms: N_11  and  C_12 
REMARK       I    between atoms: C_12  and  N_14 
REMARK    5  A    between atoms: N_14  and  C_15 
ROOT
HETATM    1  C   UNL     1     -38.376 -49.647  14.062  1.00  0.00     0.143 A 
HETATM    2  C   UNL     1     -37.440 -50.571  13.647  1.00  0.00     0.056 A 
HETATM    3  C   UNL     1     -37.327 -50.803  12.281  1.00  0.00     0.008 A 
HETATM    4  C   UNL     1     -38.128 -50.083  11.394  1.00  0.00     0.049 A 
HETATM    5  C   UNL     1     -39.018 -49.144  11.902  1.00  0.00     0.110 A 
HETATM    6  N   UNL     1     -39.144 -48.938  13.220  1.00  0.00    -0.323 N 
ATOM      7  HN  UNL     1     -39.811 -48.254  13.577  1.00  0.00     0.169 HD
ENDROOT
BRANCH   5   8
HETATM    8  N   UNL     1     -39.788 -48.394  11.007  1.00  0.00    -0.295 N 
HETATM    9  C   UNL     1     -41.161 -48.495  10.883  1.00  0.00     0.322 C 
HETATM   10  O   UNL     1     -41.892 -49.289  11.467  1.00  0.00    -0.247 OA
HETATM   11  N   UNL     1     -41.664 -47.571   9.978  1.00  0.00    -0.338 N 
HETATM   12  H   UNL     1     -41.058 -46.845   9.627  1.00  0.00     0.164 HD
HETATM   13  H   UNL     1     -39.305 -47.767  10.385  1.00  0.00     0.172 HD
BRANCH  11  14
HETATM   14  C   UNL     1     -43.065 -47.477   9.699  1.00  0.00     0.086 A 
HETATM   15  C   UNL     1     -43.552 -47.599   8.282  1.00  0.00     0.027 A 
HETATM   16  C   UNL     1     -43.653 -46.284   8.996  1.00  0.00     0.027 A 
ENDBRANCH  11  14
ENDBRANCH   5   8
BRANCH   1  17
HETATM   17  O   UNL     1     -38.565 -49.485  15.413  1.00  0.00    -0.330 OA
BRANCH  17  18
HETATM   18  C   UNL     1     -38.342 -48.122  15.827  1.00  0.00     0.248 C 
BRANCH  18  19
HETATM   19  C   UNL     1     -36.860 -47.799  15.986  1.00  0.00     0.377 C 
HETATM   20  F   UNL     1     -36.189 -48.934  16.339  1.00  0.00    -0.212 F 
HETATM   21  F   UNL     1     -36.335 -47.413  14.795  1.00  0.00    -0.212 F 
ENDBRANCH  18  19
ENDBRANCH  17  18
ENDBRANCH   1  17
TORSDOF 5
ENDMDL
MODEL 8
REMARK VINA RESULT:      -5.1      2.415      2.907
REMARK  5 active torsions:
REMARK  status: ('A' for Active; 'I' for Inactive)
REMARK    1  A    between atoms: C_2  and  C_4 
REMARK    2  A    between atoms: C_4  and  O_5 
REMARK    3  A    between atoms: O_5  and  C_6 
REMARK    4  A    between atoms: C_10  and  N_11 
REMARK       I    between atoms: N_11  and  C_12 
REMARK       I    between atoms: C_12  and  N_14 
REMARK    5  A    between atoms: N_14  and  C_15 
ROOT
HETATM    1  C   UNL     1     -43.392 -54.784  14.411  1.00  0.00     0.143 A 
HETATM    2  C   UNL     1     -42.383 -55.112  15.290  1.00  0.00     0.056 A 
HETATM    3  C   UNL     1     -41.164 -54.460  15.143  1.00  0.00     0.008 A 
HETATM    4  C   UNL     1     -41.020 -53.493  14.147  1.00  0.00     0.049 A 
HETATM    5  C   UNL     1     -42.106 -53.201  13.329  1.00  0.00     0.110 A 
HETATM    6  N   UNL     1     -43.272 -53.847  13.456  1.00  0.00    -0.323 N 
ATOM      7  HN  UNL     1     -44.055 -53.630  12.840  1.00  0.00     0.169 HD
ENDROOT
BRANCH   5   8
HETATM    8  N   UNL     1     -41.968 -52.201  12.361  1.00  0.00    -0.295 N 
HETATM    9  C   UNL     1     -42.138 -50.852  12.604  1.00  0.00     0.322 C 
HETATM   10  O   UNL     1     -42.499 -50.337  13.657  1.00  0.00    -0.247 OA
HETATM   11  N   UNL     1     -41.855 -50.088  11.479  1.00  0.00    -0.338 N 
HETATM   12  H   UNL     1     -41.427 -50.529  10.680  1.00  0.00     0.164 HD
HETATM   13  H   UNL     1     -41.771 -52.488  11.417  1.00  0.00     0.172 HD
BRANCH  11  14
HETATM   14  C   UNL     1     -41.945 -48.660  11.498  1.00  0.00     0.086 A 
HETATM   15  C   UNL     1     -43.252 -47.991  11.172  1.00  0.00     0.027 A 
HETATM   16  C   UNL     1     -42.090 -47.860  10.232  1.00  0.00     0.027 A 
ENDBRANCH  11  14
ENDBRANCH   5   8
BRANCH   1  17
HETATM   17  O   UNL     1     -44.567 -55.494  14.484  1.00  0.00    -0.330 OA
BRANCH  17  18
HETATM   18  C   UNL     1     -45.652 -54.807  13.830  1.00  0.00     0.248 C 
BRANCH  18  19
HETATM   19  C   UNL     1     -46.525 -54.032  14.811  1.00  0.00     0.377 C 
HETATM   20  F   UNL     1     -46.266 -54.466  16.079  1.00  0.00    -0.212 F 
HETATM   21  F   UNL     1     -46.193 -52.715  14.795  1.00  0.00    -0.212 F 
ENDBRANCH  18  19
ENDBRANCH  17  18
ENDBRANCH   1  17
TORSDOF 5
ENDMDL
MODEL 9
REMARK VINA RESULT:      -5.0      1.940      2.255
REMARK  5 active torsions:
REMARK  status: ('A' for Active; 'I' for Inactive)
REMARK    1  A    between atoms: C_2  and  C_4 
REMARK    2  A    between atoms: C_4  and  O_5 
REMARK    3  A    between atoms: O_5  and  C_6 
REMARK    4  A    between atoms: C_10  and  N_11 
REMARK       I    between atoms: N_11  and  C_12 
REMARK       I    between atoms: C_12  and  N_14 
REMARK    5  A    between atoms: N_14  and  C_15 
ROOT
HETATM    1  C   UNL     1     -44.673 -53.038  14.974  1.00  0.00     0.143 A 
HETATM    2  C   UNL     1     -45.260 -54.146  14.401  1.00  0.00     0.056 A 
HETATM    3  C   UNL     1     -44.928 -54.440  13.083  1.00  0.00     0.008 A 
HETATM    4  C   UNL     1     -44.006 -53.636  12.413  1.00  0.00     0.049 A 
HETATM    5  C   UNL     1     -43.436 -52.560  13.085  1.00  0.00     0.110 A 
HETATM    6  N   UNL     1     -43.774 -52.263  14.346  1.00  0.00    -0.323 N 
ATOM      7  HN  UNL     1     -43.357 -51.463  14.820  1.00  0.00     0.169 HD
ENDROOT
BRANCH   5   8
HETATM    8  N   UNL     1     -42.480 -51.784  12.422  1.00  0.00    -0.295 N 
HETATM    9  C   UNL     1     -41.309 -51.329  12.996  1.00  0.00     0.322 C 
HETATM   10  O   UNL     1     -40.966 -51.467  14.166  1.00  0.00    -0.247 OA
HETATM   11  N   UNL     1     -40.514 -50.656  12.078  1.00  0.00    -0.338 N 
HETATM   12  H   UNL     1     -40.758 -50.686  11.100  1.00  0.00     0.164 HD
HETATM   13  H   UNL     1     -42.678 -51.505  11.475  1.00  0.00     0.172 HD
BRANCH  11  14
HETATM   14  C   UNL     1     -39.241 -50.111  12.442  1.00  0.00     0.086 A 
HETATM   15  C   UNL     1     -38.881 -48.714  12.018  1.00  0.00     0.027 A 
HETATM   16  C   UNL     1     -38.158 -49.887  11.424  1.00  0.00     0.027 A 
ENDBRANCH  11  14
ENDBRANCH   5   8
BRANCH   1  17
HETATM   17  O   UNL     1     -45.071 -52.681  16.240  1.00  0.00    -0.330 OA
BRANCH  17  18
HETATM   18  C   UNL     1     -46.507 -52.630  16.359  1.00  0.00     0.248 C 
BRANCH  18  19
HETATM   19  C   UNL     1     -47.065 -51.241  16.068  1.00  0.00     0.377 C 
HETATM   20  F   UNL     1     -47.277 -51.116  14.726  1.00  0.00    -0.212 F 
HETATM   21  F   UNL     1     -48.283 -51.094  16.651  1.00  0.00    -0.212 F 
ENDBRANCH  18  19
ENDBRANCH  17  18
ENDBRANCH   1  17
TORSDOF 5
ENDMDL
