MODEL 1
REMARK VINA RESULT:      -6.4      0.000      0.000
REMARK  6 active torsions:
REMARK  status: ('A' for Active; 'I' for Inactive)
REMARK    1  A    between atoms: C_6  and  C_7 
REMARK    2  A    between atoms: C_10  and  N_11 
REMARK       I    between atoms: N_11  and  C_12 
REMARK       I    between atoms: C_12  and  N_14 
REMARK    3  A    between atoms: N_14  and  C_15 
REMARK    4  A    between atoms: C_15  and  C_17 
REMARK    5  A    between atoms: C_15  and  C_19 
REMARK    6  A    between atoms: C_17  and  O_18 
ROOT
HETATM    1  N   UNL     1     -41.818 -48.350  10.141  1.00  0.00    -0.305 N 
HETATM    2  C   UNL     1     -41.634 -48.960  11.362  1.00  0.00     0.321 C 
HETATM    3  O   UNL     1     -41.706 -48.396  12.447  1.00  0.00    -0.247 OA
HETATM    4  N   UNL     1     -41.378 -50.310  11.258  1.00  0.00    -0.332 N 
HETATM    5  H   UNL     1     -41.226 -48.670   9.386  1.00  0.00     0.171 HD
HETATM    6  H   UNL     1     -41.015 -50.668  10.386  1.00  0.00     0.165 HD
ENDROOT
BRANCH   1   7
HETATM    7  C   UNL     1     -42.362 -47.070  10.010  1.00  0.00     0.093 A 
HETATM    8  C   UNL     1     -43.666 -46.728   9.526  1.00  0.00     0.058 A 
HETATM    9  C   UNL     1     -44.731 -47.600   8.985  1.00  0.00     0.072 C 
HETATM   10  N   UNL     1     -43.851 -45.403   9.501  1.00  0.00    -0.263 N 
HETATM   11  O   UNL     1     -42.668 -44.851   9.933  1.00  0.00    -0.239 OA
ATOM     12  HN  UNL     1     -44.697 -44.905   9.220  1.00  0.00     0.194 HD
HETATM   13  C   UNL     1     -41.791 -45.836  10.272  1.00  0.00     0.109 A 
BRANCH  13  14
HETATM   14  C   UNL     1     -40.416 -45.534  10.847  1.00  0.00     0.047 A 
HETATM   15  C   UNL     1     -39.973 -44.106  11.073  1.00  0.00     0.012 A 
HETATM   16  C   UNL     1     -39.449 -44.859   9.894  1.00  0.00     0.012 A 
ENDBRANCH  13  14
ENDBRANCH   1   7
BRANCH   4  17
HETATM   17  C   UNL     1     -41.194 -51.192  12.436  1.00  0.00     0.055 C 
HETATM   18  C   UNL     1     -42.126 -50.782  13.591  1.00  0.00     0.041 C 
BRANCH  17  19
HETATM   19  C   UNL     1     -41.617 -52.630  12.013  1.00  0.00     0.195 C 
BRANCH  19  20
HETATM   20  O   UNL     1     -40.590 -53.268  11.248  1.00  0.00    -0.398 OA
HETATM   21  H   UNL     1     -40.652 -54.221  11.438  1.00  0.00     0.209 HD
ENDBRANCH  19  20
ENDBRANCH  17  19
BRANCH  17  22
HETATM   22  C   UNL     1     -39.704 -51.175  12.797  1.00  0.00     0.015 A 
HETATM   23  C   UNL     1     -39.138 -51.797  14.057  1.00  0.00     0.007 A 
HETATM   24  C   UNL     1     -39.134 -50.305  13.897  1.00  0.00     0.007 A 
ENDBRANCH  17  22
ENDBRANCH   4  17
TORSDOF 6
ENDMDL
MODEL 2
REMARK VINA RESULT:      -6.2      1.806      6.986
REMARK  6 active torsions:
REMARK  status: ('A' for Active; 'I' for Inactive)
REMARK    1  A    between atoms: C_6  and  C_7 
REMARK    2  A    between atoms: C_10  and  N_11 
REMARK       I    between atoms: N_11  and  C_12 
REMARK       I    between atoms: C_12  and  N_14 
REMARK    3  A    between atoms: N_14  and  C_15 
REMARK    4  A    between atoms: C_15  and  C_17 
REMARK    5  A    between atoms: C_15  and  C_19 
REMARK    6  A    between atoms: C_17  and  O_18 
ROOT
HETATM    1  N   UNL     1     -40.639 -50.410  11.227  1.00  0.00    -0.305 N 
HETATM    2  C   UNL     1     -41.236 -49.198  11.493  1.00  0.00     0.321 C 
HETATM    3  O   UNL     1     -41.192 -48.614  12.570  1.00  0.00    -0.247 OA
HETATM    4  N   UNL     1     -41.889 -48.667  10.402  1.00  0.00    -0.332 N 
HETATM    5  H   UNL     1     -41.149 -51.038  10.621  1.00  0.00     0.171 HD
HETATM    6  H   UNL     1     -42.176 -49.289   9.660  1.00  0.00     0.165 HD
ENDROOT
BRANCH   1   7
HETATM    7  C   UNL     1     -39.697 -50.992  12.081  1.00  0.00     0.093 A 
HETATM    8  C   UNL     1     -38.300 -50.690  12.162  1.00  0.00     0.058 A 
HETATM    9  C   UNL     1     -37.485 -49.762  11.348  1.00  0.00     0.072 C 
HETATM   10  N   UNL     1     -37.681 -51.458  13.067  1.00  0.00    -0.263 N 
HETATM   11  O   UNL     1     -38.647 -52.299  13.568  1.00  0.00    -0.239 OA
ATOM     12  HN  UNL     1     -36.696 -51.427  13.330  1.00  0.00     0.194 HD
HETATM   13  C   UNL     1     -39.855 -52.003  13.014  1.00  0.00     0.109 A 
BRANCH  13  14
HETATM   14  C   UNL     1     -41.132 -52.723  13.420  1.00  0.00     0.047 A 
HETATM   15  C   UNL     1     -41.085 -53.890  14.380  1.00  0.00     0.012 A 
HETATM   16  C   UNL     1     -41.260 -54.147  12.919  1.00  0.00     0.012 A 
ENDBRANCH  13  14
ENDBRANCH   1   7
BRANCH   4  17
HETATM   17  C   UNL     1     -42.565 -47.348  10.426  1.00  0.00     0.055 C 
HETATM   18  C   UNL     1     -43.546 -47.245  11.608  1.00  0.00     0.041 C 
BRANCH  17  19
HETATM   19  C   UNL     1     -41.471 -46.265  10.661  1.00  0.00     0.195 C 
BRANCH  19  20
HETATM   20  O   UNL     1     -41.161 -45.570   9.449  1.00  0.00    -0.398 OA
HETATM   21  H   UNL     1     -41.510 -44.666   9.549  1.00  0.00     0.209 HD
ENDBRANCH  19  20
ENDBRANCH  17  19
BRANCH  17  22
HETATM   22  C   UNL     1     -43.215 -47.138   9.053  1.00  0.00     0.015 A 
HETATM   23  C   UNL     1     -44.383 -46.204   8.810  1.00  0.00     0.007 A 
HETATM   24  C   UNL     1     -44.581 -47.687   8.697  1.00  0.00     0.007 A 
ENDBRANCH  17  22
ENDBRANCH   4  17
TORSDOF 6
ENDMDL
MODEL 3
REMARK VINA RESULT:      -6.1      2.586      4.026
REMARK  6 active torsions:
REMARK  status: ('A' for Active; 'I' for Inactive)
REMARK    1  A    between atoms: C_6  and  C_7 
REMARK    2  A    between atoms: C_10  and  N_11 
REMARK       I    between atoms: N_11  and  C_12 
REMARK       I    between atoms: C_12  and  N_14 
REMARK    3  A    between atoms: N_14  and  C_15 
REMARK    4  A    between atoms: C_15  and  C_17 
REMARK    5  A    between atoms: C_15  and  C_19 
REMARK    6  A    between atoms: C_17  and  O_18 
ROOT
HETATM    1  N   UNL     1     -41.797 -50.385  11.490  1.00  0.00    -0.305 N 
HETATM    2  C   UNL     1     -42.472 -50.736  12.637  1.00  0.00     0.321 C 
HETATM    3  O   UNL     1     -42.366 -50.168  13.718  1.00  0.00    -0.247 OA
HETATM    4  N   UNL     1     -43.326 -51.802  12.456  1.00  0.00    -0.332 N 
HETATM    5  H   UNL     1     -41.496 -51.145  10.896  1.00  0.00     0.171 HD
HETATM    6  H   UNL     1     -43.160 -52.430  11.682  1.00  0.00     0.165 HD
ENDROOT
BRANCH   1   7
HETATM    7  C   UNL     1     -41.105 -49.177  11.361  1.00  0.00     0.093 A 
HETATM    8  C   UNL     1     -41.512 -48.021  10.621  1.00  0.00     0.058 A 
HETATM    9  C   UNL     1     -42.701 -47.817   9.765  1.00  0.00     0.072 C 
HETATM   10  N   UNL     1     -40.595 -47.048  10.682  1.00  0.00    -0.263 N 
HETATM   11  O   UNL     1     -39.558 -47.557  11.429  1.00  0.00    -0.239 OA
ATOM     12  HN  UNL     1     -40.653 -46.120  10.261  1.00  0.00     0.194 HD
HETATM   13  C   UNL     1     -39.870 -48.809  11.866  1.00  0.00     0.109 A 
BRANCH  13  14
HETATM   14  C   UNL     1     -38.943 -49.604  12.772  1.00  0.00     0.047 A 
HETATM   15  C   UNL     1     -37.604 -49.042  13.189  1.00  0.00     0.012 A 
HETATM   16  C   UNL     1     -37.661 -50.087  12.124  1.00  0.00     0.012 A 
ENDBRANCH  13  14
ENDBRANCH   1   7
BRANCH   4  17
HETATM   17  C   UNL     1     -44.199 -52.333  13.531  1.00  0.00     0.055 C 
HETATM   18  C   UNL     1     -44.957 -51.199  14.245  1.00  0.00     0.041 C 
BRANCH  17  19
HETATM   19  C   UNL     1     -45.278 -53.231  12.857  1.00  0.00     0.195 C 
BRANCH  19  20
HETATM   20  O   UNL     1     -45.911 -52.552  11.768  1.00  0.00    -0.398 OA
HETATM   21  H   UNL     1     -45.446 -52.829  10.959  1.00  0.00     0.209 HD
ENDBRANCH  19  20
ENDBRANCH  17  19
BRANCH  17  22
HETATM   22  C   UNL     1     -43.323 -53.183  14.459  1.00  0.00     0.015 A 
HETATM   23  C   UNL     1     -42.312 -54.197  13.965  1.00  0.00     0.007 A 
HETATM   24  C   UNL     1     -43.548 -54.664  14.675  1.00  0.00     0.007 A 
ENDBRANCH  17  22
ENDBRANCH   4  17
TORSDOF 6
ENDMDL
MODEL 4
REMARK VINA RESULT:      -6.1      3.814      6.641
REMARK  6 active torsions:
REMARK  status: ('A' for Active; 'I' for Inactive)
REMARK    1  A    between atoms: C_6  and  C_7 
REMARK    2  A    between atoms: C_10  and  N_11 
REMARK       I    between atoms: N_11  and  C_12 
REMARK       I    between atoms: C_12  and  N_14 
REMARK    3  A    between atoms: N_14  and  C_15 
REMARK    4  A    between atoms: C_15  and  C_17 
REMARK    5  A    between atoms: C_15  and  C_19 
REMARK    6  A    between atoms: C_17  and  O_18 
ROOT
HETATM    1  N   UNL     1     -42.369 -50.751  13.605  1.00  0.00    -0.305 N 
HETATM    2  C   UNL     1     -43.477 -51.489  13.256  1.00  0.00     0.321 C 
HETATM    3  O   UNL     1     -43.529 -52.282  12.324  1.00  0.00    -0.247 OA
HETATM    4  N   UNL     1     -44.554 -51.271  14.088  1.00  0.00    -0.332 N 
HETATM    5  H   UNL     1     -42.540 -49.809  13.931  1.00  0.00     0.171 HD
HETATM    6  H   UNL     1     -44.589 -50.413  14.620  1.00  0.00     0.165 HD
ENDROOT
BRANCH   1   7
HETATM    7  C   UNL     1     -41.095 -51.013  13.092  1.00  0.00     0.093 A 
HETATM    8  C   UNL     1     -40.422 -50.309  12.042  1.00  0.00     0.058 A 
HETATM    9  C   UNL     1     -40.899 -49.195  11.195  1.00  0.00     0.072 C 
HETATM   10  N   UNL     1     -39.224 -50.846  11.778  1.00  0.00    -0.263 N 
HETATM   11  O   UNL     1     -39.104 -51.927  12.619  1.00  0.00    -0.239 OA
ATOM     12  HN  UNL     1     -38.542 -50.519  11.093  1.00  0.00     0.194 HD
HETATM   13  C   UNL     1     -40.196 -52.011  13.429  1.00  0.00     0.109 A 
BRANCH  13  14
HETATM   14  C   UNL     1     -40.321 -53.070  14.513  1.00  0.00     0.047 A 
HETATM   15  C   UNL     1     -39.660 -54.420  14.350  1.00  0.00     0.012 A 
HETATM   16  C   UNL     1     -41.132 -54.292  14.134  1.00  0.00     0.012 A 
ENDBRANCH  13  14
ENDBRANCH   1   7
BRANCH   4  17
HETATM   17  C   UNL     1     -45.845 -51.986  13.946  1.00  0.00     0.055 C 
HETATM   18  C   UNL     1     -46.853 -51.536  15.020  1.00  0.00     0.041 C 
BRANCH  17  19
HETATM   19  C   UNL     1     -46.454 -51.586  12.571  1.00  0.00     0.195 C 
BRANCH  19  20
HETATM   20  O   UNL     1     -46.423 -52.682  11.652  1.00  0.00    -0.398 OA
HETATM   21  H   UNL     1     -46.642 -52.318  10.775  1.00  0.00     0.209 HD
ENDBRANCH  19  20
ENDBRANCH  17  19
BRANCH  17  22
HETATM   22  C   UNL     1     -45.544 -53.490  13.962  1.00  0.00     0.015 A 
HETATM   23  C   UNL     1     -46.370 -54.504  14.727  1.00  0.00     0.007 A 
HETATM   24  C   UNL     1     -44.968 -54.201  15.168  1.00  0.00     0.007 A 
ENDBRANCH  17  22
ENDBRANCH   4  17
TORSDOF 6
ENDMDL
MODEL 5
REMARK VINA RESULT:      -6.1      2.535      4.389
REMARK  6 active torsions:
REMARK  status: ('A' for Active; 'I' for Inactive)
REMARK    1  A    between atoms: C_6  and  C_7 
REMARK    2  A    between atoms: C_10  and  N_11 
REMARK       I    between atoms: N_11  and  C_12 
REMARK       I    between atoms: C_12  and  N_14 
REMARK    3  A    between atoms: N_14  and  C_15 
REMARK    4  A    between atoms: C_15  and  C_17 
REMARK    5  A    between atoms: C_15  and  C_19 
REMARK    6  A    between atoms: C_17  and  O_18 
ROOT
HETATM    1  N   UNL     1     -41.568 -50.177  11.396  1.00  0.00    -0.305 N 
HETATM    2  C   UNL     1     -42.415 -50.481  12.438  1.00  0.00     0.321 C 
HETATM    3  O   UNL     1     -42.647 -49.748  13.392  1.00  0.00    -0.247 OA
HETATM    4  N   UNL     1     -43.020 -51.711  12.300  1.00  0.00    -0.332 N 
HETATM    5  H   UNL     1     -41.021 -50.941  11.024  1.00  0.00     0.171 HD
HETATM    6  H   UNL     1     -42.584 -52.401  11.704  1.00  0.00     0.165 HD
ENDROOT
BRANCH   1   7
HETATM    7  C   UNL     1     -41.073 -48.888  11.177  1.00  0.00     0.093 A 
HETATM    8  C   UNL     1     -39.868 -48.322  11.706  1.00  0.00     0.058 A 
HETATM    9  C   UNL     1     -38.889 -48.900  12.650  1.00  0.00     0.072 C 
HETATM   10  N   UNL     1     -39.712 -47.049  11.322  1.00  0.00    -0.263 N 
HETATM   11  O   UNL     1     -40.821 -46.746  10.567  1.00  0.00    -0.239 OA
ATOM     12  HN  UNL     1     -38.930 -46.432  11.544  1.00  0.00     0.194 HD
HETATM   13  C   UNL     1     -41.616 -47.845  10.446  1.00  0.00     0.109 A 
BRANCH  13  14
HETATM   14  C   UNL     1     -42.888 -47.837   9.612  1.00  0.00     0.047 A 
HETATM   15  C   UNL     1     -43.613 -46.542   9.327  1.00  0.00     0.012 A 
HETATM   16  C   UNL     1     -44.153 -47.474  10.362  1.00  0.00     0.012 A 
ENDBRANCH  13  14
ENDBRANCH   1   7
BRANCH   4  17
HETATM   17  C   UNL     1     -44.012 -52.240  13.267  1.00  0.00     0.055 C 
HETATM   18  C   UNL     1     -44.394 -53.694  12.935  1.00  0.00     0.041 C 
BRANCH  17  19
HETATM   19  C   UNL     1     -43.330 -52.269  14.667  1.00  0.00     0.195 C 
BRANCH  19  20
HETATM   20  O   UNL     1     -42.261 -53.220  14.703  1.00  0.00    -0.398 OA
HETATM   21  H   UNL     1     -41.882 -53.247  13.806  1.00  0.00     0.209 HD
ENDBRANCH  19  20
ENDBRANCH  17  19
BRANCH  17  22
HETATM   22  C   UNL     1     -45.199 -51.269  13.289  1.00  0.00     0.015 A 
HETATM   23  C   UNL     1     -46.451 -51.492  14.113  1.00  0.00     0.007 A 
HETATM   24  C   UNL     1     -46.521 -51.572  12.616  1.00  0.00     0.007 A 
ENDBRANCH  17  22
ENDBRANCH   4  17
TORSDOF 6
ENDMDL
MODEL 6
REMARK VINA RESULT:      -6.0      2.675      4.450
REMARK  6 active torsions:
REMARK  status: ('A' for Active; 'I' for Inactive)
REMARK    1  A    between atoms: C_6  and  C_7 
REMARK    2  A    between atoms: C_10  and  N_11 
REMARK       I    between atoms: N_11  and  C_12 
REMARK       I    between atoms: C_12  and  N_14 
REMARK    3  A    between atoms: N_14  and  C_15 
REMARK    4  A    between atoms: C_15  and  C_17 
REMARK    5  A    between atoms: C_15  and  C_19 
REMARK    6  A    between atoms: C_17  and  O_18 
ROOT
HETATM    1  N   UNL     1     -41.684 -50.413  11.468  1.00  0.00    -0.305 N 
HETATM    2  C   UNL     1     -42.442 -50.764  12.562  1.00  0.00     0.321 C 
HETATM    3  O   UNL     1     -42.471 -50.152  13.623  1.00  0.00    -0.247 OA
HETATM    4  N   UNL     1     -43.210 -51.888  12.349  1.00  0.00    -0.332 N 
HETATM    5  H   UNL     1     -41.284 -51.173  10.936  1.00  0.00     0.171 HD
HETATM    6  H   UNL     1     -42.935 -52.531  11.620  1.00  0.00     0.165 HD
ENDROOT
BRANCH   1   7
HETATM    7  C   UNL     1     -41.056 -49.169  11.352  1.00  0.00     0.093 A 
HETATM    8  C   UNL     1     -41.499 -48.043  10.585  1.00  0.00     0.058 A 
HETATM    9  C   UNL     1     -42.664 -47.914   9.684  1.00  0.00     0.072 C 
HETATM   10  N   UNL     1     -40.641 -47.020  10.670  1.00  0.00    -0.263 N 
HETATM   11  O   UNL     1     -39.606 -47.464  11.461  1.00  0.00    -0.239 OA
ATOM     12  HN  UNL     1     -40.734 -46.101  10.238  1.00  0.00     0.194 HD
HETATM   13  C   UNL     1     -39.864 -48.727  11.899  1.00  0.00     0.109 A 
BRANCH  13  14
HETATM   14  C   UNL     1     -38.929 -49.462  12.847  1.00  0.00     0.047 A 
HETATM   15  C   UNL     1     -37.627 -48.833  13.287  1.00  0.00     0.012 A 
HETATM   16  C   UNL     1     -37.610 -49.903  12.245  1.00  0.00     0.012 A 
ENDBRANCH  13  14
ENDBRANCH   1   7
BRANCH   4  17
HETATM   17  C   UNL     1     -44.147 -52.434  13.360  1.00  0.00     0.055 C 
HETATM   18  C   UNL     1     -44.600 -53.858  12.990  1.00  0.00     0.041 C 
BRANCH  17  19
HETATM   19  C   UNL     1     -43.369 -52.551  14.704  1.00  0.00     0.195 C 
BRANCH  19  20
HETATM   20  O   UNL     1     -43.817 -51.575  15.649  1.00  0.00    -0.398 OA
HETATM   21  H   UNL     1     -43.298 -51.715  16.461  1.00  0.00     0.209 HD
ENDBRANCH  19  20
ENDBRANCH  17  19
BRANCH  17  22
HETATM   22  C   UNL     1     -45.297 -51.431  13.513  1.00  0.00     0.015 A 
HETATM   23  C   UNL     1     -46.641 -51.780  14.120  1.00  0.00     0.007 A 
HETATM   24  C   UNL     1     -46.543 -51.471  12.654  1.00  0.00     0.007 A 
ENDBRANCH  17  22
ENDBRANCH   4  17
TORSDOF 6
ENDMDL
MODEL 7
REMARK VINA RESULT:      -5.9      3.474      7.001
REMARK  6 active torsions:
REMARK  status: ('A' for Active; 'I' for Inactive)
REMARK    1  A    between atoms: C_6  and  C_7 
REMARK    2  A    between atoms: C_10  and  N_11 
REMARK       I    between atoms: N_11  and  C_12 
REMARK       I    between atoms: C_12  and  N_14 
REMARK    3  A    between atoms: N_14  and  C_15 
REMARK    4  A    between atoms: C_15  and  C_17 
REMARK    5  A    between atoms: C_15  and  C_19 
REMARK    6  A    between atoms: C_17  and  O_18 
ROOT
HETATM    1  N   UNL     1     -43.568 -52.275  12.283  1.00  0.00    -0.305 N 
HETATM    2  C   UNL     1     -43.168 -51.021  12.688  1.00  0.00     0.321 C 
HETATM    3  O   UNL     1     -43.698 -50.368  13.579  1.00  0.00    -0.247 OA
HETATM    4  N   UNL     1     -42.068 -50.557  12.000  1.00  0.00    -0.332 N 
HETATM    5  H   UNL     1     -43.504 -52.469  11.293  1.00  0.00     0.171 HD
HETATM    6  H   UNL     1     -41.862 -50.952  11.093  1.00  0.00     0.165 HD
ENDROOT
BRANCH   1   7
HETATM    7  C   UNL     1     -44.465 -53.056  13.018  1.00  0.00     0.093 A 
HETATM    8  C   UNL     1     -45.893 -52.941  13.043  1.00  0.00     0.058 A 
HETATM    9  C   UNL     1     -46.773 -51.957  12.377  1.00  0.00     0.072 C 
HETATM   10  N   UNL     1     -46.444 -53.827  13.882  1.00  0.00    -0.263 N 
HETATM   11  O   UNL     1     -45.393 -54.512  14.447  1.00  0.00    -0.239 OA
ATOM     12  HN  UNL     1     -47.438 -53.965  14.064  1.00  0.00     0.194 HD
HETATM   13  C   UNL     1     -44.217 -54.084  13.911  1.00  0.00     0.109 A 
BRANCH  13  14
HETATM   14  C   UNL     1     -42.881 -54.703  14.292  1.00  0.00     0.047 A 
HETATM   15  C   UNL     1     -42.681 -55.324  15.655  1.00  0.00     0.012 A 
HETATM   16  C   UNL     1     -42.113 -53.972  15.375  1.00  0.00     0.012 A 
ENDBRANCH  13  14
ENDBRANCH   1   7
BRANCH   4  17
HETATM   17  C   UNL     1     -41.422 -49.254  12.289  1.00  0.00     0.055 C 
HETATM   18  C   UNL     1     -40.961 -49.173  13.756  1.00  0.00     0.041 C 
BRANCH  17  19
HETATM   19  C   UNL     1     -40.137 -49.165  11.415  1.00  0.00     0.195 C 
BRANCH  19  20
HETATM   20  O   UNL     1     -40.270 -49.937  10.218  1.00  0.00    -0.398 OA
HETATM   21  H   UNL     1     -39.695 -50.715  10.322  1.00  0.00     0.209 HD
ENDBRANCH  19  20
ENDBRANCH  17  19
BRANCH  17  22
HETATM   22  C   UNL     1     -42.405 -48.151  11.880  1.00  0.00     0.015 A 
HETATM   23  C   UNL     1     -42.006 -46.703  11.677  1.00  0.00     0.007 A 
HETATM   24  C   UNL     1     -42.882 -47.078  12.836  1.00  0.00     0.007 A 
ENDBRANCH  17  22
ENDBRANCH   4  17
TORSDOF 6
ENDMDL
MODEL 8
REMARK VINA RESULT:      -5.9      3.373      7.236
REMARK  6 active torsions:
REMARK  status: ('A' for Active; 'I' for Inactive)
REMARK    1  A    between atoms: C_6  and  C_7 
REMARK    2  A    between atoms: C_10  and  N_11 
REMARK       I    between atoms: N_11  and  C_12 
REMARK       I    between atoms: C_12  and  N_14 
REMARK    3  A    between atoms: N_14  and  C_15 
REMARK    4  A    between atoms: C_15  and  C_17 
REMARK    5  A    between atoms: C_15  and  C_19 
REMARK    6  A    between atoms: C_17  and  O_18 
ROOT
HETATM    1  N   UNL     1     -43.494 -52.243  12.641  1.00  0.00    -0.305 N 
HETATM    2  C   UNL     1     -43.004 -51.001  12.979  1.00  0.00     0.321 C 
HETATM    3  O   UNL     1     -43.039 -50.513  14.102  1.00  0.00    -0.247 OA
HETATM    4  N   UNL     1     -42.428 -50.341  11.915  1.00  0.00    -0.332 N 
HETATM    5  H   UNL     1     -43.933 -52.321  11.734  1.00  0.00     0.171 HD
HETATM    6  H   UNL     1     -42.692 -50.610  10.978  1.00  0.00     0.165 HD
ENDROOT
BRANCH   1   7
HETATM    7  C   UNL     1     -43.858 -53.196  13.596  1.00  0.00     0.093 A 
HETATM    8  C   UNL     1     -42.997 -54.130  14.260  1.00  0.00     0.058 A 
HETATM    9  C   UNL     1     -41.552 -54.379  14.073  1.00  0.00     0.072 C 
HETATM   10  N   UNL     1     -43.681 -54.923  15.093  1.00  0.00    -0.263 N 
HETATM   11  O   UNL     1     -44.999 -54.553  14.967  1.00  0.00    -0.239 OA
ATOM     12  HN  UNL     1     -43.301 -55.653  15.697  1.00  0.00     0.194 HD
HETATM   13  C   UNL     1     -45.108 -53.503  14.107  1.00  0.00     0.109 A 
BRANCH  13  14
HETATM   14  C   UNL     1     -46.440 -52.829  13.815  1.00  0.00     0.047 A 
HETATM   15  C   UNL     1     -46.491 -51.509  13.081  1.00  0.00     0.012 A 
HETATM   16  C   UNL     1     -46.689 -51.535  14.561  1.00  0.00     0.012 A 
ENDBRANCH  13  14
ENDBRANCH   1   7
BRANCH   4  17
HETATM   17  C   UNL     1     -41.786 -49.010  12.039  1.00  0.00     0.055 C 
HETATM   18  C   UNL     1     -40.780 -48.982  13.205  1.00  0.00     0.041 C 
BRANCH  17  19
HETATM   19  C   UNL     1     -40.966 -48.763  10.739  1.00  0.00     0.195 C 
BRANCH  19  20
HETATM   20  O   UNL     1     -40.355 -49.971  10.275  1.00  0.00    -0.398 OA
HETATM   21  H   UNL     1     -40.475 -50.632  10.979  1.00  0.00     0.209 HD
ENDBRANCH  19  20
ENDBRANCH  17  19
BRANCH  17  22
HETATM   22  C   UNL     1     -42.905 -47.967  12.153  1.00  0.00     0.015 A 
HETATM   23  C   UNL     1     -43.747 -47.508  10.980  1.00  0.00     0.007 A 
HETATM   24  C   UNL     1     -42.773 -46.558  11.614  1.00  0.00     0.007 A 
ENDBRANCH  17  22
ENDBRANCH   4  17
TORSDOF 6
ENDMDL
MODEL 9
REMARK VINA RESULT:      -5.9      3.790      6.695
REMARK  6 active torsions:
REMARK  status: ('A' for Active; 'I' for Inactive)
REMARK    1  A    between atoms: C_6  and  C_7 
REMARK    2  A    between atoms: C_10  and  N_11 
REMARK       I    between atoms: N_11  and  C_12 
REMARK       I    between atoms: C_12  and  N_14 
REMARK    3  A    between atoms: N_14  and  C_15 
REMARK    4  A    between atoms: C_15  and  C_17 
REMARK    5  A    between atoms: C_15  and  C_19 
REMARK    6  A    between atoms: C_17  and  O_18 
ROOT
HETATM    1  N   UNL     1     -42.396 -50.700  13.588  1.00  0.00    -0.305 N 
HETATM    2  C   UNL     1     -43.518 -51.430  13.265  1.00  0.00     0.321 C 
HETATM    3  O   UNL     1     -43.591 -52.236  12.345  1.00  0.00    -0.247 OA
HETATM    4  N   UNL     1     -44.582 -51.186  14.106  1.00  0.00    -0.332 N 
HETATM    5  H   UNL     1     -42.552 -49.752  13.902  1.00  0.00     0.171 HD
HETATM    6  H   UNL     1     -44.600 -50.320  14.625  1.00  0.00     0.165 HD
ENDROOT
BRANCH   1   7
HETATM    7  C   UNL     1     -41.132 -50.986  13.065  1.00  0.00     0.093 A 
HETATM    8  C   UNL     1     -40.459 -50.300  12.003  1.00  0.00     0.058 A 
HETATM    9  C   UNL     1     -40.928 -49.184  11.154  1.00  0.00     0.072 C 
HETATM   10  N   UNL     1     -39.273 -50.857  11.730  1.00  0.00    -0.263 N 
HETATM   11  O   UNL     1     -39.161 -51.935  12.577  1.00  0.00    -0.239 OA
ATOM     12  HN  UNL     1     -38.593 -50.546  11.036  1.00  0.00     0.194 HD
HETATM   13  C   UNL     1     -40.246 -51.996  13.398  1.00  0.00     0.109 A 
BRANCH  13  14
HETATM   14  C   UNL     1     -40.376 -53.046  14.490  1.00  0.00     0.047 A 
HETATM   15  C   UNL     1     -39.724 -54.401  14.337  1.00  0.00     0.012 A 
HETATM   16  C   UNL     1     -41.196 -54.266  14.121  1.00  0.00     0.012 A 
ENDBRANCH  13  14
ENDBRANCH   1   7
BRANCH   4  17
HETATM   17  C   UNL     1     -45.884 -51.887  13.991  1.00  0.00     0.055 C 
HETATM   18  C   UNL     1     -46.516 -51.666  12.604  1.00  0.00     0.041 C 
BRANCH  17  19
HETATM   19  C   UNL     1     -45.605 -53.414  14.113  1.00  0.00     0.195 C 
BRANCH  19  20
HETATM   20  O   UNL     1     -45.829 -54.083  12.868  1.00  0.00    -0.398 OA
HETATM   21  H   UNL     1     -46.742 -54.419  12.892  1.00  0.00     0.209 HD
ENDBRANCH  19  20
ENDBRANCH  17  19
BRANCH  17  22
HETATM   22  C   UNL     1     -46.762 -51.425  15.160  1.00  0.00     0.015 A 
HETATM   23  C   UNL     1     -46.210 -50.861  16.453  1.00  0.00     0.007 A 
HETATM   24  C   UNL     1     -46.884 -52.202  16.454  1.00  0.00     0.007 A 
ENDBRANCH  17  22
ENDBRANCH   4  17
TORSDOF 6
ENDMDL
