MODEL 1
REMARK VINA RESULT:      -6.6      0.000      0.000
REMARK  2 active torsions:
REMARK  status: ('A' for Active; 'I' for Inactive)
REMARK    1  A    between atoms: C_7  and  N_8 
REMARK       I    between atoms: N_8  and  C_9 
REMARK       I    between atoms: C_9  and  N_11 
REMARK    2  A    between atoms: N_11  and  C_12 
ROOT
HETATM    1  N   UNL     1     -41.432 -47.843  10.141  1.00  0.00    -0.288 N 
HETATM    2  C   UNL     1     -41.101 -48.791  11.074  1.00  0.00     0.322 C 
HETATM    3  O   UNL     1     -39.967 -48.820  11.548  1.00  0.00    -0.247 OA
HETATM    4  N   UNL     1     -42.107 -49.618  11.476  1.00  0.00    -0.338 N 
HETATM    5  H   UNL     1     -40.743 -47.133   9.955  1.00  0.00     0.172 HD
HETATM    6  H   UNL     1     -42.924 -49.656  10.874  1.00  0.00     0.164 HD
ENDROOT
BRANCH   1   7
HETATM    7  C   UNL     1     -42.654 -47.775   9.533  1.00  0.00     0.169 A 
HETATM    8  N   UNL     1     -42.966 -48.190   8.326  1.00  0.00    -0.279 N 
HETATM    9  N   UNL     1     -44.301 -48.049   8.056  1.00  0.00    -0.296 N 
ATOM     10  HN  UNL     1     -42.289 -48.574   7.665  1.00  0.00     0.189 HD
HETATM   11  C   UNL     1     -44.952 -47.532   9.077  1.00  0.00     0.066 A 
ATOM     12  HN  UNL     1     -44.737 -48.312   7.172  1.00  0.00     0.187 HD
HETATM   13  C   UNL     1     -46.420 -47.334   9.101  1.00  0.00     0.078 C 
HETATM   14  S   UNL     1     -43.950 -47.119  10.420  1.00  0.00    -0.038 SA
ENDBRANCH   1   7
BRANCH   4  15
HETATM   15  C   UNL     1     -42.007 -50.677  12.468  1.00  0.00     0.086 C 
HETATM   16  C   UNL     1     -41.448 -51.936  11.791  1.00  0.00     0.025 C 
HETATM   17  C   UNL     1     -41.068 -53.025  12.787  1.00  0.00     0.002 C 
HETATM   18  C   UNL     1     -42.199 -53.983  13.149  1.00  0.00     0.000 C 
HETATM   19  C   UNL     1     -43.577 -53.368  13.367  1.00  0.00     0.000 C 
HETATM   20  C   UNL     1     -43.563 -52.014  14.069  1.00  0.00     0.002 C 
HETATM   21  C   UNL     1     -43.399 -50.852  13.093  1.00  0.00     0.025 C 
ENDBRANCH   4  15
TORSDOF 2
ENDMDL
MODEL 2
REMARK VINA RESULT:      -6.4      3.057      3.745
REMARK  2 active torsions:
REMARK  status: ('A' for Active; 'I' for Inactive)
REMARK    1  A    between atoms: C_7  and  N_8 
REMARK       I    between atoms: N_8  and  C_9 
REMARK       I    between atoms: C_9  and  N_11 
REMARK    2  A    between atoms: N_11  and  C_12 
ROOT
HETATM    1  N   UNL     1     -40.012 -51.022  11.506  1.00  0.00    -0.288 N 
HETATM    2  C   UNL     1     -40.897 -51.832  12.169  1.00  0.00     0.322 C 
HETATM    3  O   UNL     1     -40.628 -53.017  12.353  1.00  0.00    -0.247 OA
HETATM    4  N   UNL     1     -42.019 -51.229  12.653  1.00  0.00    -0.338 N 
HETATM    5  H   UNL     1     -39.115 -51.420  11.283  1.00  0.00     0.172 HD
HETATM    6  H   UNL     1     -42.246 -50.321  12.260  1.00  0.00     0.164 HD
ENDROOT
BRANCH   1   7
HETATM    7  C   UNL     1     -40.258 -49.708  11.219  1.00  0.00     0.169 A 
HETATM    8  N   UNL     1     -41.052 -49.234  10.286  1.00  0.00    -0.279 N 
HETATM    9  N   UNL     1     -41.138 -47.867  10.321  1.00  0.00    -0.296 N 
ATOM     10  HN  UNL     1     -41.548 -49.817   9.611  1.00  0.00     0.189 HD
HETATM   11  C   UNL     1     -40.403 -47.358  11.288  1.00  0.00     0.066 A 
ATOM     12  HN  UNL     1     -41.701 -47.312   9.677  1.00  0.00     0.187 HD
HETATM   13  C   UNL     1     -40.359 -45.914  11.614  1.00  0.00     0.078 C 
HETATM   14  S   UNL     1     -39.500 -48.527  12.180  1.00  0.00    -0.038 SA
ENDBRANCH   1   7
BRANCH   4  15
HETATM   15  C   UNL     1     -43.085 -51.872  13.407  1.00  0.00     0.086 C 
HETATM   16  C   UNL     1     -43.931 -52.716  12.445  1.00  0.00     0.025 C 
HETATM   17  C   UNL     1     -44.917 -53.626  13.167  1.00  0.00     0.002 C 
HETATM   18  C   UNL     1     -46.274 -52.993  13.463  1.00  0.00     0.000 C 
HETATM   19  C   UNL     1     -46.266 -51.547  13.946  1.00  0.00     0.000 C 
HETATM   20  C   UNL     1     -45.117 -51.199  14.887  1.00  0.00     0.002 C 
HETATM   21  C   UNL     1     -43.860 -50.765  14.139  1.00  0.00     0.025 C 
ENDBRANCH   4  15
TORSDOF 2
ENDMDL
MODEL 3
REMARK VINA RESULT:      -6.0      3.890      5.197
REMARK  2 active torsions:
REMARK  status: ('A' for Active; 'I' for Inactive)
REMARK    1  A    between atoms: C_7  and  N_8 
REMARK       I    between atoms: N_8  and  C_9 
REMARK       I    between atoms: C_9  and  N_11 
REMARK    2  A    between atoms: N_11  and  C_12 
ROOT
HETATM    1  N   UNL     1     -40.464 -53.133  13.188  1.00  0.00    -0.288 N 
HETATM    2  C   UNL     1     -41.568 -53.478  13.923  1.00  0.00     0.322 C 
HETATM    3  O   UNL     1     -41.612 -54.565  14.495  1.00  0.00    -0.247 OA
HETATM    4  N   UNL     1     -42.542 -52.531  14.027  1.00  0.00    -0.338 N 
HETATM    5  H   UNL     1     -39.677 -53.759  13.233  1.00  0.00     0.172 HD
HETATM    6  H   UNL     1     -42.510 -51.776  13.349  1.00  0.00     0.164 HD
ENDROOT
BRANCH   1   7
HETATM    7  C   UNL     1     -40.359 -51.966  12.484  1.00  0.00     0.169 A 
HETATM    8  N   UNL     1     -40.866 -51.703  11.300  1.00  0.00    -0.279 N 
HETATM    9  N   UNL     1     -40.646 -50.407  10.916  1.00  0.00    -0.296 N 
ATOM     10  HN  UNL     1     -41.367 -52.387  10.732  1.00  0.00     0.189 HD
HETATM   11  C   UNL     1     -39.980 -49.734  11.832  1.00  0.00     0.066 A 
ATOM     12  HN  UNL     1     -40.960 -50.011  10.029  1.00  0.00     0.187 HD
HETATM   13  C   UNL     1     -39.664 -48.291  11.725  1.00  0.00     0.078 C 
HETATM   14  S   UNL     1     -39.518 -50.674  13.203  1.00  0.00    -0.038 SA
ENDBRANCH   1   7
BRANCH   4  15
HETATM   15  C   UNL     1     -43.787 -52.654  14.771  1.00  0.00     0.086 C 
HETATM   16  C   UNL     1     -44.759 -53.528  13.967  1.00  0.00     0.025 C 
HETATM   17  C   UNL     1     -45.995 -53.926  14.763  1.00  0.00     0.002 C 
HETATM   18  C   UNL     1     -47.155 -52.938  14.683  1.00  0.00     0.000 C 
HETATM   19  C   UNL     1     -46.800 -51.457  14.750  1.00  0.00     0.000 C 
HETATM   20  C   UNL     1     -45.666 -51.119  15.712  1.00  0.00     0.002 C 
HETATM   21  C   UNL     1     -44.292 -51.232  15.058  1.00  0.00     0.025 C 
ENDBRANCH   4  15
TORSDOF 2
ENDMDL
MODEL 4
REMARK VINA RESULT:      -5.9      4.331      5.727
REMARK  2 active torsions:
REMARK  status: ('A' for Active; 'I' for Inactive)
REMARK    1  A    between atoms: C_7  and  N_8 
REMARK       I    between atoms: N_8  and  C_9 
REMARK       I    between atoms: C_9  and  N_11 
REMARK    2  A    between atoms: N_11  and  C_12 
ROOT
HETATM    1  N   UNL     1     -41.980 -54.117  13.065  1.00  0.00    -0.288 N 
HETATM    2  C   UNL     1     -40.735 -53.542  13.075  1.00  0.00     0.322 C 
HETATM    3  O   UNL     1     -39.734 -54.242  13.213  1.00  0.00    -0.247 OA
HETATM    4  N   UNL     1     -40.692 -52.198  12.856  1.00  0.00    -0.338 N 
HETATM    5  H   UNL     1     -42.012 -55.123  13.070  1.00  0.00     0.172 HD
HETATM    6  H   UNL     1     -41.565 -51.694  12.977  1.00  0.00     0.164 HD
ENDROOT
BRANCH   1   7
HETATM    7  C   UNL     1     -43.141 -53.404  12.966  1.00  0.00     0.169 A 
HETATM    8  N   UNL     1     -43.831 -53.154  11.876  1.00  0.00    -0.279 N 
HETATM    9  N   UNL     1     -44.994 -52.482  12.139  1.00  0.00    -0.296 N 
ATOM     10  HN  UNL     1     -43.532 -53.429  10.940  1.00  0.00     0.189 HD
HETATM   11  C   UNL     1     -45.143 -52.251  13.427  1.00  0.00     0.066 A 
ATOM     12  HN  UNL     1     -45.664 -52.195  11.424  1.00  0.00     0.187 HD
HETATM   13  C   UNL     1     -46.342 -51.609  14.014  1.00  0.00     0.078 C 
HETATM   14  S   UNL     1     -43.822 -52.788  14.399  1.00  0.00    -0.038 SA
ENDBRANCH   1   7
BRANCH   4  15
HETATM   15  C   UNL     1     -39.494 -51.374  12.794  1.00  0.00     0.086 C 
HETATM   16  C   UNL     1     -39.042 -51.052  14.225  1.00  0.00     0.025 C 
HETATM   17  C   UNL     1     -37.662 -50.408  14.280  1.00  0.00     0.002 C 
HETATM   18  C   UNL     1     -37.662 -48.887  14.168  1.00  0.00     0.000 C 
HETATM   19  C   UNL     1     -38.615 -48.273  13.148  1.00  0.00     0.000 C 
HETATM   20  C   UNL     1     -38.752 -49.064  11.852  1.00  0.00     0.002 C 
HETATM   21  C   UNL     1     -39.827 -50.143  11.937  1.00  0.00     0.025 C 
ENDBRANCH   4  15
TORSDOF 2
ENDMDL
MODEL 5
REMARK VINA RESULT:      -5.8      4.010      5.738
REMARK  2 active torsions:
REMARK  status: ('A' for Active; 'I' for Inactive)
REMARK    1  A    between atoms: C_7  and  N_8 
REMARK       I    between atoms: N_8  and  C_9 
REMARK       I    between atoms: C_9  and  N_11 
REMARK    2  A    between atoms: N_11  and  C_12 
ROOT
HETATM    1  N   UNL     1     -42.689 -52.739  11.773  1.00  0.00    -0.288 N 
HETATM    2  C   UNL     1     -43.764 -53.019  12.576  1.00  0.00     0.322 C 
HETATM    3  O   UNL     1     -44.566 -53.892  12.250  1.00  0.00    -0.247 OA
HETATM    4  N   UNL     1     -43.832 -52.335  13.753  1.00  0.00    -0.338 N 
HETATM    5  H   UNL     1     -42.545 -53.345  10.983  1.00  0.00     0.172 HD
HETATM    6  H   UNL     1     -43.260 -51.498  13.820  1.00  0.00     0.164 HD
ENDROOT
BRANCH   1   7
HETATM    7  C   UNL     1     -41.782 -51.752  12.042  1.00  0.00     0.169 A 
HETATM    8  N   UNL     1     -41.878 -50.478  11.730  1.00  0.00    -0.279 N 
HETATM    9  N   UNL     1     -40.831 -49.744  12.221  1.00  0.00    -0.296 N 
ATOM     10  HN  UNL     1     -42.644 -50.083  11.186  1.00  0.00     0.189 HD
HETATM   11  C   UNL     1     -39.982 -50.494  12.892  1.00  0.00     0.066 A 
ATOM     12  HN  UNL     1     -40.724 -48.738  12.084  1.00  0.00     0.187 HD
HETATM   13  C   UNL     1     -38.794 -49.960  13.599  1.00  0.00     0.078 C 
HETATM   14  S   UNL     1     -40.378 -52.173  12.905  1.00  0.00    -0.038 SA
ENDBRANCH   1   7
BRANCH   4  15
HETATM   15  C   UNL     1     -44.858 -52.479  14.774  1.00  0.00     0.086 C 
HETATM   16  C   UNL     1     -45.962 -51.446  14.514  1.00  0.00     0.025 C 
HETATM   17  C   UNL     1     -47.200 -51.673  15.372  1.00  0.00     0.002 C 
HETATM   18  C   UNL     1     -47.172 -50.982  16.732  1.00  0.00     0.000 C 
HETATM   19  C   UNL     1     -45.851 -51.016  17.492  1.00  0.00     0.000 C 
HETATM   20  C   UNL     1     -45.079 -52.324  17.363  1.00  0.00     0.002 C 
HETATM   21  C   UNL     1     -44.166 -52.345  16.140  1.00  0.00     0.025 C 
ENDBRANCH   4  15
TORSDOF 2
ENDMDL
MODEL 6
REMARK VINA RESULT:      -5.7      2.542      5.635
REMARK  2 active torsions:
REMARK  status: ('A' for Active; 'I' for Inactive)
REMARK    1  A    between atoms: C_7  and  N_8 
REMARK       I    between atoms: N_8  and  C_9 
REMARK       I    between atoms: C_9  and  N_11 
REMARK    2  A    between atoms: N_11  and  C_12 
ROOT
HETATM    1  N   UNL     1     -41.526 -51.680  12.452  1.00  0.00    -0.288 N 
HETATM    2  C   UNL     1     -40.972 -50.553  11.903  1.00  0.00     0.322 C 
HETATM    3  O   UNL     1     -39.751 -50.420  11.871  1.00  0.00    -0.247 OA
HETATM    4  N   UNL     1     -41.843 -49.663  11.349  1.00  0.00    -0.338 N 
HETATM    5  H   UNL     1     -40.890 -52.412  12.721  1.00  0.00     0.172 HD
HETATM    6  H   UNL     1     -42.816 -49.757  11.622  1.00  0.00     0.164 HD
ENDROOT
BRANCH   1   7
HETATM    7  C   UNL     1     -42.873 -51.881  12.569  1.00  0.00     0.169 A 
HETATM    8  N   UNL     1     -43.599 -52.785  11.950  1.00  0.00    -0.279 N 
HETATM    9  N   UNL     1     -44.907 -52.770  12.357  1.00  0.00    -0.296 N 
ATOM     10  HN  UNL     1     -43.230 -53.425  11.246  1.00  0.00     0.189 HD
HETATM   11  C   UNL     1     -45.120 -51.852  13.277  1.00  0.00     0.066 A 
ATOM     12  HN  UNL     1     -45.627 -53.394  11.992  1.00  0.00     0.187 HD
HETATM   13  C   UNL     1     -46.421 -51.655  13.957  1.00  0.00     0.078 C 
HETATM   14  S   UNL     1     -43.735 -50.894  13.655  1.00  0.00    -0.038 SA
ENDBRANCH   1   7
BRANCH   4  15
HETATM   15  C   UNL     1     -41.493 -48.415  10.687  1.00  0.00     0.086 C 
HETATM   16  C   UNL     1     -40.714 -47.534  11.673  1.00  0.00     0.025 C 
HETATM   17  C   UNL     1     -40.085 -46.316  11.009  1.00  0.00     0.002 C 
HETATM   18  C   UNL     1     -40.983 -45.083  10.952  1.00  0.00     0.000 C 
HETATM   19  C   UNL     1     -42.448 -45.318  10.604  1.00  0.00     0.000 C 
HETATM   20  C   UNL     1     -42.686 -46.398   9.554  1.00  0.00     0.002 C 
HETATM   21  C   UNL     1     -42.797 -47.792  10.166  1.00  0.00     0.025 C 
ENDBRANCH   4  15
TORSDOF 2
ENDMDL
MODEL 7
REMARK VINA RESULT:      -5.7      3.146      6.065
REMARK  2 active torsions:
REMARK  status: ('A' for Active; 'I' for Inactive)
REMARK    1  A    between atoms: C_7  and  N_8 
REMARK       I    between atoms: N_8  and  C_9 
REMARK       I    between atoms: C_9  and  N_11 
REMARK    2  A    between atoms: N_11  and  C_12 
ROOT
HETATM    1  N   UNL     1     -39.256 -51.130  12.029  1.00  0.00    -0.288 N 
HETATM    2  C   UNL     1     -39.010 -49.793  11.850  1.00  0.00     0.322 C 
HETATM    3  O   UNL     1     -37.853 -49.382  11.793  1.00  0.00    -0.247 OA
HETATM    4  N   UNL     1     -40.102 -48.998  11.673  1.00  0.00    -0.338 N 
HETATM    5  H   UNL     1     -38.459 -51.743  12.004  1.00  0.00     0.172 HD
HETATM    6  H   UNL     1     -40.995 -49.391  11.956  1.00  0.00     0.164 HD
ENDROOT
BRANCH   1   7
HETATM    7  C   UNL     1     -40.511 -51.658  12.151  1.00  0.00     0.169 A 
HETATM    8  N   UNL     1     -41.251 -52.177  11.197  1.00  0.00    -0.279 N 
HETATM    9  N   UNL     1     -42.426 -52.693  11.674  1.00  0.00    -0.296 N 
ATOM     10  HN  UNL     1     -40.981 -52.194  10.214  1.00  0.00     0.189 HD
HETATM   11  C   UNL     1     -42.529 -52.546  12.979  1.00  0.00     0.066 A 
ATOM     12  HN  UNL     1     -43.136 -53.138  11.090  1.00  0.00     0.187 HD
HETATM   13  C   UNL     1     -43.658 -53.075  13.780  1.00  0.00     0.078 C 
HETATM   14  S   UNL     1     -41.211 -51.698  13.701  1.00  0.00    -0.038 SA
ENDBRANCH   1   7
BRANCH   4  15
HETATM   15  C   UNL     1     -40.093 -47.562  11.440  1.00  0.00     0.086 C 
HETATM   16  C   UNL     1     -39.952 -46.844  12.789  1.00  0.00     0.025 C 
HETATM   17  C   UNL     1     -39.681 -45.352  12.641  1.00  0.00     0.002 C 
HETATM   18  C   UNL     1     -40.930 -44.480  12.551  1.00  0.00     0.000 C 
HETATM   19  C   UNL     1     -42.077 -45.010  11.699  1.00  0.00     0.000 C 
HETATM   20  C   UNL     1     -41.642 -45.732  10.428  1.00  0.00     0.002 C 
HETATM   21  C   UNL     1     -41.371 -47.215  10.662  1.00  0.00     0.025 C 
ENDBRANCH   4  15
TORSDOF 2
ENDMDL
MODEL 8
REMARK VINA RESULT:      -5.6      4.874      7.194
REMARK  2 active torsions:
REMARK  status: ('A' for Active; 'I' for Inactive)
REMARK    1  A    between atoms: C_7  and  N_8 
REMARK       I    between atoms: N_8  and  C_9 
REMARK       I    between atoms: C_9  and  N_11 
REMARK    2  A    between atoms: N_11  and  C_12 
ROOT
HETATM    1  N   UNL     1     -40.084 -52.731  12.974  1.00  0.00    -0.288 N 
HETATM    2  C   UNL     1     -41.421 -52.575  12.717  1.00  0.00     0.322 C 
HETATM    3  O   UNL     1     -41.795 -51.773  11.864  1.00  0.00    -0.247 OA
HETATM    4  N   UNL     1     -42.266 -53.397  13.401  1.00  0.00    -0.338 N 
HETATM    5  H   UNL     1     -39.447 -52.244  12.366  1.00  0.00     0.172 HD
HETATM    6  H   UNL     1     -41.882 -53.851  14.224  1.00  0.00     0.164 HD
ENDROOT
BRANCH   1   7
HETATM    7  C   UNL     1     -39.592 -53.564  13.939  1.00  0.00     0.169 A 
HETATM    8  N   UNL     1     -39.081 -54.763  13.769  1.00  0.00    -0.279 N 
HETATM    9  N   UNL     1     -38.602 -55.295  14.937  1.00  0.00    -0.296 N 
ATOM     10  HN  UNL     1     -39.044 -55.243  12.870  1.00  0.00     0.189 HD
HETATM   11  C   UNL     1     -38.768 -54.470  15.951  1.00  0.00     0.066 A 
ATOM     12  HN  UNL     1     -38.171 -56.216  15.013  1.00  0.00     0.187 HD
HETATM   13  C   UNL     1     -38.280 -54.745  17.323  1.00  0.00     0.078 C 
HETATM   14  S   UNL     1     -39.589 -53.008  15.546  1.00  0.00    -0.038 SA
ENDBRANCH   1   7
BRANCH   4  15
HETATM   15  C   UNL     1     -43.715 -53.436  13.280  1.00  0.00     0.086 C 
HETATM   16  C   UNL     1     -44.304 -52.211  13.994  1.00  0.00     0.025 C 
HETATM   17  C   UNL     1     -45.789 -52.020  13.715  1.00  0.00     0.002 C 
HETATM   18  C   UNL     1     -46.720 -52.757  14.674  1.00  0.00     0.000 C 
HETATM   19  C   UNL     1     -46.319 -54.175  15.065  1.00  0.00     0.000 C 
HETATM   20  C   UNL     1     -45.695 -54.992  13.939  1.00  0.00     0.002 C 
HETATM   21  C   UNL     1     -44.186 -54.788  13.837  1.00  0.00     0.025 C 
ENDBRANCH   4  15
TORSDOF 2
ENDMDL
MODEL 9
REMARK VINA RESULT:      -5.5      2.885      6.096
REMARK  2 active torsions:
REMARK  status: ('A' for Active; 'I' for Inactive)
REMARK    1  A    between atoms: C_7  and  N_8 
REMARK       I    between atoms: N_8  and  C_9 
REMARK       I    between atoms: C_9  and  N_11 
REMARK    2  A    between atoms: N_11  and  C_12 
ROOT
HETATM    1  N   UNL     1     -40.940 -51.519  11.646  1.00  0.00    -0.288 N 
HETATM    2  C   UNL     1     -41.182 -50.179  11.496  1.00  0.00     0.322 C 
HETATM    3  O   UNL     1     -40.312 -49.443  11.036  1.00  0.00    -0.247 OA
HETATM    4  N   UNL     1     -42.437 -49.754  11.814  1.00  0.00    -0.338 N 
HETATM    5  H   UNL     1     -40.073 -51.867  11.270  1.00  0.00     0.172 HD
HETATM    6  H   UNL     1     -42.994 -50.384  12.383  1.00  0.00     0.164 HD
ENDROOT
BRANCH   1   7
HETATM    7  C   UNL     1     -41.836 -52.393  12.195  1.00  0.00     0.169 A 
HETATM    8  N   UNL     1     -42.909 -52.894  11.624  1.00  0.00    -0.279 N 
HETATM    9  N   UNL     1     -43.544 -53.807  12.423  1.00  0.00    -0.296 N 
ATOM     10  HN  UNL     1     -43.231 -52.633  10.692  1.00  0.00     0.189 HD
HETATM   11  C   UNL     1     -42.922 -53.964  13.573  1.00  0.00     0.066 A 
ATOM     12  HN  UNL     1     -44.396 -54.304  12.159  1.00  0.00     0.187 HD
HETATM   13  C   UNL     1     -43.338 -54.942  14.606  1.00  0.00     0.078 C 
HETATM   14  S   UNL     1     -41.546 -52.944  13.778  1.00  0.00    -0.038 SA
ENDBRANCH   1   7
BRANCH   4  15
HETATM   15  C   UNL     1     -42.937 -48.392  11.712  1.00  0.00     0.086 C 
HETATM   16  C   UNL     1     -42.563 -47.830  10.334  1.00  0.00     0.025 C 
HETATM   17  C   UNL     1     -43.251 -46.506  10.027  1.00  0.00     0.002 C 
HETATM   18  C   UNL     1     -42.495 -45.267  10.499  1.00  0.00     0.000 C 
HETATM   19  C   UNL     1     -41.839 -45.345  11.873  1.00  0.00     0.000 C 
HETATM   20  C   UNL     1     -42.648 -46.104  12.919  1.00  0.00     0.002 C 
HETATM   21  C   UNL     1     -42.366 -47.604  12.900  1.00  0.00     0.025 C 
ENDBRANCH   4  15
TORSDOF 2
ENDMDL
