MODEL 1
REMARK VINA RESULT:      -6.5      0.000      0.000
REMARK  7 active torsions:
REMARK  status: ('A' for Active; 'I' for Inactive)
REMARK       I    between atoms: C_2  and  N_4 
REMARK    1  A    between atoms: N_4  and  C_5 
REMARK    2  A    between atoms: C_5  and  C_6 
REMARK    3  A    between atoms: C_6  and  C_7 
REMARK    4  A    between atoms: N_16  and  C_17 
REMARK    5  A    between atoms: C_17  and  C_18 
REMARK    6  A    between atoms: C_18  and  O_19 
REMARK    7  A    between atoms: O_19  and  C_20 
ROOT
HETATM    1  C   UNL     1     -42.609 -50.434  12.470  1.00  0.00     0.086 A 
HETATM    2  N   UNL     1     -43.837 -50.141  12.841  1.00  0.00    -0.344 N 
ATOM      3  HN  UNL     1     -44.250 -49.212  12.917  1.00  0.00     0.167 HD
HETATM    4  C   UNL     1     -44.445 -51.337  13.104  1.00  0.00     0.060 A 
HETATM    5  C   UNL     1     -45.760 -51.571  13.540  1.00  0.00     0.032 A 
HETATM    6  C   UNL     1     -46.192 -52.886  13.741  1.00  0.00     0.002 A 
HETATM    7  C   UNL     1     -45.330 -53.949  13.511  1.00  0.00     0.002 A 
HETATM    8  C   UNL     1     -44.016 -53.731  13.084  1.00  0.00     0.032 A 
HETATM    9  C   UNL     1     -43.579 -52.408  12.882  1.00  0.00     0.062 A 
HETATM   10  N   UNL     1     -42.397 -51.807  12.474  1.00  0.00    -0.333 N 
ENDROOT
BRANCH  10  11
HETATM   11  C   UNL     1     -41.128 -52.422  12.085  1.00  0.00     0.157 C 
BRANCH  11  12
HETATM   12  C   UNL     1     -40.215 -52.815  13.235  1.00  0.00     0.196 C 
BRANCH  12  13
HETATM   13  O   UNL     1     -38.889 -52.295  13.112  1.00  0.00    -0.349 OA
BRANCH  13  14
HETATM   14  C   UNL     1     -38.756 -51.036  13.669  1.00  0.00     0.074 A 
HETATM   15  C   UNL     1     -39.304 -50.673  14.909  1.00  0.00     0.037 A 
HETATM   16  C   UNL     1     -39.137 -49.384  15.417  1.00  0.00     0.003 A 
HETATM   17  C   UNL     1     -38.401 -48.448  14.702  1.00  0.00     0.001 A 
HETATM   18  C   UNL     1     -37.836 -48.801  13.475  1.00  0.00     0.009 A 
HETATM   19  C   UNL     1     -38.006 -50.093  12.947  1.00  0.00    -0.029 A 
HETATM   20  C   UNL     1     -37.428 -50.427  11.602  1.00  0.00     0.051 C 
ENDBRANCH  13  14
ENDBRANCH  12  13
ENDBRANCH  11  12
ENDBRANCH  10  11
BRANCH   1  21
HETATM   21  C   UNL     1     -41.583 -49.425  12.068  1.00  0.00     0.096 C 
BRANCH  21  22
HETATM   22  C   UNL     1     -42.224 -48.176  11.454  1.00  0.00     0.130 C 
BRANCH  22  23
HETATM   23  N   UNL     1     -42.566 -48.357  10.052  1.00  0.00    -0.361 N 
HETATM   24  C   UNL     1     -43.150 -47.353   9.313  1.00  0.00     0.213 C 
HETATM   25  C   UNL     1     -43.488 -47.762   7.908  1.00  0.00     0.117 C 
HETATM   26  O   UNL     1     -43.376 -46.229   9.745  1.00  0.00    -0.274 OA
HETATM   27  H   UNL     1     -42.457 -49.277   9.647  1.00  0.00     0.162 HD
ENDBRANCH  22  23
ENDBRANCH  21  22
ENDBRANCH   1  21
TORSDOF 7
ENDMDL
MODEL 2
REMARK VINA RESULT:      -6.4      2.038      5.979
REMARK  7 active torsions:
REMARK  status: ('A' for Active; 'I' for Inactive)
REMARK       I    between atoms: C_2  and  N_4 
REMARK    1  A    between atoms: N_4  and  C_5 
REMARK    2  A    between atoms: C_5  and  C_6 
REMARK    3  A    between atoms: C_6  and  C_7 
REMARK    4  A    between atoms: N_16  and  C_17 
REMARK    5  A    between atoms: C_17  and  C_18 
REMARK    6  A    between atoms: C_18  and  O_19 
REMARK    7  A    between atoms: O_19  and  C_20 
ROOT
HETATM    1  C   UNL     1     -41.307 -48.425  11.731  1.00  0.00     0.086 A 
HETATM    2  N   UNL     1     -40.167 -48.486  11.078  1.00  0.00    -0.344 N 
ATOM      3  HN  UNL     1     -39.913 -47.970  10.236  1.00  0.00     0.167 HD
HETATM    4  C   UNL     1     -39.392 -49.382  11.760  1.00  0.00     0.060 A 
HETATM    5  C   UNL     1     -38.084 -49.806  11.467  1.00  0.00     0.032 A 
HETATM    6  C   UNL     1     -37.460 -50.732  12.309  1.00  0.00     0.002 A 
HETATM    7  C   UNL     1     -38.125 -51.228  13.422  1.00  0.00     0.002 A 
HETATM    8  C   UNL     1     -39.429 -50.820  13.721  1.00  0.00     0.032 A 
HETATM    9  C   UNL     1     -40.060 -49.888  12.875  1.00  0.00     0.062 A 
HETATM   10  N   UNL     1     -41.296 -49.260  12.841  1.00  0.00    -0.333 N 
ENDROOT
BRANCH  10  11
HETATM   11  C   UNL     1     -42.425 -49.379  13.763  1.00  0.00     0.157 C 
BRANCH  11  12
HETATM   12  C   UNL     1     -43.420 -50.482  13.438  1.00  0.00     0.196 C 
BRANCH  12  13
HETATM   13  O   UNL     1     -44.080 -51.010  14.590  1.00  0.00    -0.349 OA
BRANCH  13  14
HETATM   14  C   UNL     1     -44.533 -52.303  14.399  1.00  0.00     0.074 A 
HETATM   15  C   UNL     1     -43.693 -53.384  14.091  1.00  0.00     0.037 A 
HETATM   16  C   UNL     1     -44.212 -54.666  13.907  1.00  0.00     0.003 A 
HETATM   17  C   UNL     1     -45.576 -54.888  14.050  1.00  0.00     0.001 A 
HETATM   18  C   UNL     1     -46.420 -53.825  14.373  1.00  0.00     0.009 A 
HETATM   19  C   UNL     1     -45.911 -52.526  14.551  1.00  0.00    -0.029 A 
HETATM   20  C   UNL     1     -46.852 -51.394  14.848  1.00  0.00     0.051 C 
ENDBRANCH  13  14
ENDBRANCH  12  13
ENDBRANCH  11  12
ENDBRANCH  10  11
BRANCH   1  21
HETATM   21  C   UNL     1     -42.456 -47.550  11.347  1.00  0.00     0.096 C 
BRANCH  21  22
HETATM   22  C   UNL     1     -42.839 -47.726   9.873  1.00  0.00     0.130 C 
BRANCH  22  23
HETATM   23  N   UNL     1     -44.275 -47.840   9.680  1.00  0.00    -0.361 N 
HETATM   24  C   UNL     1     -45.020 -46.811   9.151  1.00  0.00     0.213 C 
HETATM   25  C   UNL     1     -46.493 -47.102   9.098  1.00  0.00     0.117 C 
HETATM   26  O   UNL     1     -44.542 -45.755   8.754  1.00  0.00    -0.274 OA
HETATM   27  H   UNL     1     -44.743 -48.664  10.036  1.00  0.00     0.162 HD
ENDBRANCH  22  23
ENDBRANCH  21  22
ENDBRANCH   1  21
TORSDOF 7
ENDMDL
MODEL 3
REMARK VINA RESULT:      -6.4      2.505      6.973
REMARK  7 active torsions:
REMARK  status: ('A' for Active; 'I' for Inactive)
REMARK       I    between atoms: C_2  and  N_4 
REMARK    1  A    between atoms: N_4  and  C_5 
REMARK    2  A    between atoms: C_5  and  C_6 
REMARK    3  A    between atoms: C_6  and  C_7 
REMARK    4  A    between atoms: N_16  and  C_17 
REMARK    5  A    between atoms: C_17  and  C_18 
REMARK    6  A    between atoms: C_18  and  O_19 
REMARK    7  A    between atoms: O_19  and  C_20 
ROOT
HETATM    1  C   UNL     1     -40.345 -51.378  12.566  1.00  0.00     0.086 A 
HETATM    2  N   UNL     1     -39.154 -51.478  13.117  1.00  0.00    -0.344 N 
ATOM      3  HN  UNL     1     -38.593 -52.323  13.217  1.00  0.00     0.167 HD
HETATM    4  C   UNL     1     -38.824 -50.216  13.526  1.00  0.00     0.060 A 
HETATM    5  C   UNL     1     -37.655 -49.787  14.177  1.00  0.00     0.032 A 
HETATM    6  C   UNL     1     -37.507 -48.434  14.501  1.00  0.00     0.002 A 
HETATM    7  C   UNL     1     -38.506 -47.525  14.182  1.00  0.00     0.002 A 
HETATM    8  C   UNL     1     -39.678 -47.939  13.540  1.00  0.00     0.032 A 
HETATM    9  C   UNL     1     -39.828 -49.300  13.213  1.00  0.00     0.062 A 
HETATM   10  N   UNL     1     -40.804 -50.068  12.595  1.00  0.00    -0.333 N 
ENDROOT
BRANCH  10  11
HETATM   11  C   UNL     1     -42.091 -49.659  12.034  1.00  0.00     0.157 C 
BRANCH  11  12
HETATM   12  C   UNL     1     -43.258 -49.663  13.009  1.00  0.00     0.196 C 
BRANCH  12  13
HETATM   13  O   UNL     1     -43.917 -50.928  13.102  1.00  0.00    -0.349 OA
BRANCH  13  14
HETATM   14  C   UNL     1     -44.771 -51.006  14.186  1.00  0.00     0.074 A 
HETATM   15  C   UNL     1     -44.380 -50.731  15.506  1.00  0.00     0.037 A 
HETATM   16  C   UNL     1     -45.290 -50.831  16.559  1.00  0.00     0.003 A 
HETATM   17  C   UNL     1     -46.609 -51.186  16.303  1.00  0.00     0.001 A 
HETATM   18  C   UNL     1     -47.015 -51.445  14.994  1.00  0.00     0.009 A 
HETATM   19  C   UNL     1     -46.106 -51.359  13.925  1.00  0.00    -0.029 A 
HETATM   20  C   UNL     1     -46.561 -51.693  12.534  1.00  0.00     0.051 C 
ENDBRANCH  13  14
ENDBRANCH  12  13
ENDBRANCH  11  12
ENDBRANCH  10  11
BRANCH   1  21
HETATM   21  C   UNL     1     -41.094 -52.521  11.961  1.00  0.00     0.096 C 
BRANCH  21  22
HETATM   22  C   UNL     1     -41.451 -53.585  13.005  1.00  0.00     0.130 C 
BRANCH  22  23
HETATM   23  N   UNL     1     -42.833 -54.025  12.903  1.00  0.00    -0.361 N 
HETATM   24  C   UNL     1     -43.573 -54.353  14.016  1.00  0.00     0.213 C 
HETATM   25  C   UNL     1     -44.953 -54.850  13.694  1.00  0.00     0.117 C 
HETATM   26  O   UNL     1     -43.160 -54.252  15.166  1.00  0.00    -0.274 OA
HETATM   27  H   UNL     1     -43.220 -54.183  11.982  1.00  0.00     0.162 HD
ENDBRANCH  22  23
ENDBRANCH  21  22
ENDBRANCH   1  21
TORSDOF 7
ENDMDL
MODEL 4
REMARK VINA RESULT:      -6.4      3.890      6.348
REMARK  7 active torsions:
REMARK  status: ('A' for Active; 'I' for Inactive)
REMARK       I    between atoms: C_2  and  N_4 
REMARK    1  A    between atoms: N_4  and  C_5 
REMARK    2  A    between atoms: C_5  and  C_6 
REMARK    3  A    between atoms: C_6  and  C_7 
REMARK    4  A    between atoms: N_16  and  C_17 
REMARK    5  A    between atoms: C_17  and  C_18 
REMARK    6  A    between atoms: C_18  and  O_19 
REMARK    7  A    between atoms: O_19  and  C_20 
ROOT
HETATM    1  C   UNL     1     -42.355 -45.923  10.458  1.00  0.00     0.086 A 
HETATM    2  N   UNL     1     -43.266 -44.974  10.460  1.00  0.00    -0.344 N 
ATOM      3  HN  UNL     1     -44.248 -45.065  10.201  1.00  0.00     0.167 HD
HETATM    4  C   UNL     1     -42.627 -43.841  10.879  1.00  0.00     0.060 A 
HETATM    5  C   UNL     1     -43.157 -42.550  11.047  1.00  0.00     0.032 A 
HETATM    6  C   UNL     1     -42.326 -41.521  11.502  1.00  0.00     0.002 A 
HETATM    7  C   UNL     1     -40.991 -41.773  11.786  1.00  0.00     0.002 A 
HETATM    8  C   UNL     1     -40.448 -43.052  11.617  1.00  0.00     0.032 A 
HETATM    9  C   UNL     1     -41.283 -44.088  11.159  1.00  0.00     0.062 A 
HETATM   10  N   UNL     1     -41.124 -45.438  10.880  1.00  0.00    -0.333 N 
ENDROOT
BRANCH  10  11
HETATM   11  C   UNL     1     -39.931 -46.276  10.997  1.00  0.00     0.157 C 
BRANCH  11  12
HETATM   12  C   UNL     1     -39.686 -46.873  12.374  1.00  0.00     0.196 C 
BRANCH  12  13
HETATM   13  O   UNL     1     -40.190 -48.203  12.515  1.00  0.00    -0.349 OA
BRANCH  13  14
HETATM   14  C   UNL     1     -39.185 -49.149  12.588  1.00  0.00     0.074 A 
HETATM   15  C   UNL     1     -38.374 -49.507  11.500  1.00  0.00     0.037 A 
HETATM   16  C   UNL     1     -37.376 -50.474  11.637  1.00  0.00     0.003 A 
HETATM   17  C   UNL     1     -37.163 -51.079  12.869  1.00  0.00     0.001 A 
HETATM   18  C   UNL     1     -37.952 -50.720  13.963  1.00  0.00     0.009 A 
HETATM   19  C   UNL     1     -38.967 -49.756  13.836  1.00  0.00    -0.029 A 
HETATM   20  C   UNL     1     -39.831 -49.428  15.019  1.00  0.00     0.051 C 
ENDBRANCH  13  14
ENDBRANCH  12  13
ENDBRANCH  11  12
ENDBRANCH  10  11
BRANCH   1  21
HETATM   21  C   UNL     1     -42.616 -47.345  10.081  1.00  0.00     0.096 C 
BRANCH  21  22
HETATM   22  C   UNL     1     -43.321 -47.454   8.725  1.00  0.00     0.130 C 
BRANCH  22  23
HETATM   23  N   UNL     1     -44.695 -47.914   8.846  1.00  0.00    -0.361 N 
HETATM   24  C   UNL     1     -45.751 -47.035   8.920  1.00  0.00     0.213 C 
HETATM   25  C   UNL     1     -47.080 -47.707   9.113  1.00  0.00     0.117 C 
HETATM   26  O   UNL     1     -45.633 -45.818   8.836  1.00  0.00    -0.274 OA
HETATM   27  H   UNL     1     -44.860 -48.904   8.976  1.00  0.00     0.162 HD
ENDBRANCH  22  23
ENDBRANCH  21  22
ENDBRANCH   1  21
TORSDOF 7
ENDMDL
MODEL 5
REMARK VINA RESULT:      -6.4      2.226      5.985
REMARK  7 active torsions:
REMARK  status: ('A' for Active; 'I' for Inactive)
REMARK       I    between atoms: C_2  and  N_4 
REMARK    1  A    between atoms: N_4  and  C_5 
REMARK    2  A    between atoms: C_5  and  C_6 
REMARK    3  A    between atoms: C_6  and  C_7 
REMARK    4  A    between atoms: N_16  and  C_17 
REMARK    5  A    between atoms: C_17  and  C_18 
REMARK    6  A    between atoms: C_18  and  O_19 
REMARK    7  A    between atoms: O_19  and  C_20 
ROOT
HETATM    1  C   UNL     1     -41.172 -48.699  11.856  1.00  0.00     0.086 A 
HETATM    2  N   UNL     1     -40.117 -48.662  11.072  1.00  0.00    -0.344 N 
ATOM      3  HN  UNL     1     -40.007 -48.120  10.215  1.00  0.00     0.167 HD
HETATM    4  C   UNL     1     -39.198 -49.500  11.641  1.00  0.00     0.060 A 
HETATM    5  C   UNL     1     -37.905 -49.815  11.188  1.00  0.00     0.032 A 
HETATM    6  C   UNL     1     -37.114 -50.695  11.932  1.00  0.00     0.002 A 
HETATM    7  C   UNL     1     -37.600 -51.252  13.107  1.00  0.00     0.002 A 
HETATM    8  C   UNL     1     -38.888 -50.953  13.566  1.00  0.00     0.032 A 
HETATM    9  C   UNL     1     -39.686 -50.067  12.818  1.00  0.00     0.062 A 
HETATM   10  N   UNL     1     -40.963 -49.540  12.942  1.00  0.00    -0.333 N 
ENDROOT
BRANCH  10  11
HETATM   11  C   UNL     1     -41.960 -49.758  13.989  1.00  0.00     0.157 C 
BRANCH  11  12
HETATM   12  C   UNL     1     -42.937 -50.895  13.734  1.00  0.00     0.196 C 
BRANCH  12  13
HETATM   13  O   UNL     1     -44.283 -50.456  13.541  1.00  0.00    -0.349 OA
BRANCH  13  14
HETATM   14  C   UNL     1     -45.122 -50.838  14.571  1.00  0.00     0.074 A 
HETATM   15  C   UNL     1     -44.859 -50.578  15.925  1.00  0.00     0.037 A 
HETATM   16  C   UNL     1     -45.745 -50.994  16.921  1.00  0.00     0.003 A 
HETATM   17  C   UNL     1     -46.915 -51.656  16.573  1.00  0.00     0.001 A 
HETATM   18  C   UNL     1     -47.197 -51.906  15.229  1.00  0.00     0.009 A 
HETATM   19  C   UNL     1     -46.308 -51.502  14.218  1.00  0.00    -0.029 A 
HETATM   20  C   UNL     1     -46.615 -51.830  12.785  1.00  0.00     0.051 C 
ENDBRANCH  13  14
ENDBRANCH  12  13
ENDBRANCH  11  12
ENDBRANCH  10  11
BRANCH   1  21
HETATM   21  C   UNL     1     -42.424 -47.915  11.627  1.00  0.00     0.096 C 
BRANCH  21  22
HETATM   22  C   UNL     1     -42.762 -47.804  10.137  1.00  0.00     0.130 C 
BRANCH  22  23
HETATM   23  N   UNL     1     -44.191 -47.879   9.882  1.00  0.00    -0.361 N 
HETATM   24  C   UNL     1     -44.858 -46.889   9.197  1.00  0.00     0.213 C 
HETATM   25  C   UNL     1     -46.339 -47.120   9.099  1.00  0.00     0.117 C 
HETATM   26  O   UNL     1     -44.310 -45.909   8.704  1.00  0.00    -0.274 OA
HETATM   27  H   UNL     1     -44.715 -48.633  10.306  1.00  0.00     0.162 HD
ENDBRANCH  22  23
ENDBRANCH  21  22
ENDBRANCH   1  21
TORSDOF 7
ENDMDL
MODEL 6
REMARK VINA RESULT:      -6.1      2.147      5.830
REMARK  7 active torsions:
REMARK  status: ('A' for Active; 'I' for Inactive)
REMARK       I    between atoms: C_2  and  N_4 
REMARK    1  A    between atoms: N_4  and  C_5 
REMARK    2  A    between atoms: C_5  and  C_6 
REMARK    3  A    between atoms: C_6  and  C_7 
REMARK    4  A    between atoms: N_16  and  C_17 
REMARK    5  A    between atoms: C_17  and  C_18 
REMARK    6  A    between atoms: C_18  and  O_19 
REMARK    7  A    between atoms: O_19  and  C_20 
ROOT
HETATM    1  C   UNL     1     -41.721 -48.992  11.485  1.00  0.00     0.086 A 
HETATM    2  N   UNL     1     -40.551 -48.578  11.049  1.00  0.00    -0.344 N 
ATOM      3  HN  UNL     1     -40.373 -47.802  10.411  1.00  0.00     0.167 HD
HETATM    4  C   UNL     1     -39.624 -49.400  11.625  1.00  0.00     0.060 A 
HETATM    5  C   UNL     1     -38.226 -49.379  11.477  1.00  0.00     0.032 A 
HETATM    6  C   UNL     1     -37.449 -50.311  12.173  1.00  0.00     0.002 A 
HETATM    7  C   UNL     1     -38.053 -51.247  13.001  1.00  0.00     0.002 A 
HETATM    8  C   UNL     1     -39.443 -51.284  13.152  1.00  0.00     0.032 A 
HETATM    9  C   UNL     1     -40.227 -50.347  12.453  1.00  0.00     0.062 A 
HETATM   10  N   UNL     1     -41.582 -50.070  12.350  1.00  0.00    -0.333 N 
ENDROOT
BRANCH  10  11
HETATM   11  C   UNL     1     -42.716 -50.723  13.003  1.00  0.00     0.157 C 
BRANCH  11  12
HETATM   12  C   UNL     1     -42.830 -52.221  12.770  1.00  0.00     0.196 C 
BRANCH  12  13
HETATM   13  O   UNL     1     -44.179 -52.684  12.693  1.00  0.00    -0.349 OA
BRANCH  13  14
HETATM   14  C   UNL     1     -44.913 -52.378  13.824  1.00  0.00     0.074 A 
HETATM   15  C   UNL     1     -44.464 -52.620  15.132  1.00  0.00     0.037 A 
HETATM   16  C   UNL     1     -45.254 -52.291  16.234  1.00  0.00     0.003 A 
HETATM   17  C   UNL     1     -46.495 -51.696  16.044  1.00  0.00     0.001 A 
HETATM   18  C   UNL     1     -46.946 -51.435  14.750  1.00  0.00     0.009 A 
HETATM   19  C   UNL     1     -46.165 -51.771  13.630  1.00  0.00    -0.029 A 
HETATM   20  C   UNL     1     -46.701 -51.523  12.249  1.00  0.00     0.051 C 
ENDBRANCH  13  14
ENDBRANCH  12  13
ENDBRANCH  11  12
ENDBRANCH  10  11
BRANCH   1  21
HETATM   21  C   UNL     1     -43.029 -48.367  11.121  1.00  0.00     0.096 C 
BRANCH  21  22
HETATM   22  C   UNL     1     -42.883 -47.372   9.965  1.00  0.00     0.130 C 
BRANCH  22  23
HETATM   23  N   UNL     1     -43.103 -45.997  10.382  1.00  0.00    -0.361 N 
HETATM   24  C   UNL     1     -42.062 -45.174  10.746  1.00  0.00     0.213 C 
HETATM   25  C   UNL     1     -42.504 -43.815  11.210  1.00  0.00     0.117 C 
HETATM   26  O   UNL     1     -40.882 -45.502  10.699  1.00  0.00    -0.274 OA
HETATM   27  H   UNL     1     -44.056 -45.676  10.495  1.00  0.00     0.162 HD
ENDBRANCH  22  23
ENDBRANCH  21  22
ENDBRANCH   1  21
TORSDOF 7
ENDMDL
MODEL 7
REMARK VINA RESULT:      -6.1      2.793      5.073
REMARK  7 active torsions:
REMARK  status: ('A' for Active; 'I' for Inactive)
REMARK       I    between atoms: C_2  and  N_4 
REMARK    1  A    between atoms: N_4  and  C_5 
REMARK    2  A    between atoms: C_5  and  C_6 
REMARK    3  A    between atoms: C_6  and  C_7 
REMARK    4  A    between atoms: N_16  and  C_17 
REMARK    5  A    between atoms: C_17  and  C_18 
REMARK    6  A    between atoms: C_18  and  O_19 
REMARK    7  A    between atoms: O_19  and  C_20 
ROOT
HETATM    1  C   UNL     1     -42.852 -53.942  13.415  1.00  0.00     0.086 A 
HETATM    2  N   UNL     1     -42.831 -54.664  14.514  1.00  0.00    -0.344 N 
ATOM      3  HN  UNL     1     -43.621 -55.135  14.954  1.00  0.00     0.167 HD
HETATM    4  C   UNL     1     -41.534 -54.652  14.947  1.00  0.00     0.060 A 
HETATM    5  C   UNL     1     -40.987 -55.271  16.084  1.00  0.00     0.032 A 
HETATM    6  C   UNL     1     -39.618 -55.144  16.341  1.00  0.00     0.002 A 
HETATM    7  C   UNL     1     -38.809 -54.414  15.482  1.00  0.00     0.002 A 
HETATM    8  C   UNL     1     -39.341 -53.786  14.351  1.00  0.00     0.032 A 
HETATM    9  C   UNL     1     -40.719 -53.913  14.090  1.00  0.00     0.062 A 
HETATM   10  N   UNL     1     -41.586 -53.460  13.106  1.00  0.00    -0.333 N 
ENDROOT
BRANCH  10  11
HETATM   11  C   UNL     1     -41.307 -52.644  11.925  1.00  0.00     0.157 C 
BRANCH  11  12
HETATM   12  C   UNL     1     -41.452 -51.143  12.120  1.00  0.00     0.196 C 
BRANCH  12  13
HETATM   13  O   UNL     1     -40.221 -50.430  11.989  1.00  0.00    -0.349 OA
BRANCH  13  14
HETATM   14  C   UNL     1     -39.519 -50.353  13.177  1.00  0.00     0.074 A 
HETATM   15  C   UNL     1     -40.129 -50.213  14.433  1.00  0.00     0.037 A 
HETATM   16  C   UNL     1     -39.364 -50.137  15.598  1.00  0.00     0.003 A 
HETATM   17  C   UNL     1     -37.980 -50.224  15.523  1.00  0.00     0.001 A 
HETATM   18  C   UNL     1     -37.361 -50.381  14.283  1.00  0.00     0.009 A 
HETATM   19  C   UNL     1     -38.119 -50.447  13.101  1.00  0.00    -0.029 A 
HETATM   20  C   UNL     1     -37.422 -50.566  11.776  1.00  0.00     0.051 C 
ENDBRANCH  13  14
ENDBRANCH  12  13
ENDBRANCH  11  12
ENDBRANCH  10  11
BRANCH   1  21
HETATM   21  C   UNL     1     -44.071 -53.695  12.587  1.00  0.00     0.096 C 
BRANCH  21  22
HETATM   22  C   UNL     1     -45.328 -54.287  13.235  1.00  0.00     0.130 C 
BRANCH  22  23
HETATM   23  N   UNL     1     -46.211 -53.265  13.775  1.00  0.00    -0.361 N 
HETATM   24  C   UNL     1     -46.126 -52.853  15.085  1.00  0.00     0.213 C 
HETATM   25  C   UNL     1     -47.170 -51.842  15.465  1.00  0.00     0.117 C 
HETATM   26  O   UNL     1     -45.283 -53.259  15.877  1.00  0.00    -0.274 OA
HETATM   27  H   UNL     1     -46.965 -52.925  13.192  1.00  0.00     0.162 HD
ENDBRANCH  22  23
ENDBRANCH  21  22
ENDBRANCH   1  21
TORSDOF 7
ENDMDL
MODEL 8
REMARK VINA RESULT:      -6.0      3.043      6.260
REMARK  7 active torsions:
REMARK  status: ('A' for Active; 'I' for Inactive)
REMARK       I    between atoms: C_2  and  N_4 
REMARK    1  A    between atoms: N_4  and  C_5 
REMARK    2  A    between atoms: C_5  and  C_6 
REMARK    3  A    between atoms: C_6  and  C_7 
REMARK    4  A    between atoms: N_16  and  C_17 
REMARK    5  A    between atoms: C_17  and  C_18 
REMARK    6  A    between atoms: C_18  and  O_19 
REMARK    7  A    between atoms: O_19  and  C_20 
ROOT
HETATM    1  C   UNL     1     -41.308 -47.063  10.863  1.00  0.00     0.086 A 
HETATM    2  N   UNL     1     -41.699 -46.096  10.060  1.00  0.00    -0.344 N 
ATOM      3  HN  UNL     1     -41.138 -45.315   9.722  1.00  0.00     0.167 HD
HETATM    4  C   UNL     1     -43.010 -46.353   9.774  1.00  0.00     0.060 A 
HETATM    5  C   UNL     1     -43.889 -45.614   8.964  1.00  0.00     0.032 A 
HETATM    6  C   UNL     1     -45.202 -46.062   8.790  1.00  0.00     0.002 A 
HETATM    7  C   UNL     1     -45.634 -47.225   9.413  1.00  0.00     0.002 A 
HETATM    8  C   UNL     1     -44.773 -47.967  10.229  1.00  0.00     0.032 A 
HETATM    9  C   UNL     1     -43.450 -47.518  10.404  1.00  0.00     0.062 A 
HETATM   10  N   UNL     1     -42.338 -47.962  11.104  1.00  0.00    -0.333 N 
ENDROOT
BRANCH  10  11
HETATM   11  C   UNL     1     -42.183 -49.149  11.945  1.00  0.00     0.157 C 
BRANCH  11  12
HETATM   12  C   UNL     1     -42.906 -49.100  13.282  1.00  0.00     0.196 C 
BRANCH  12  13
HETATM   13  O   UNL     1     -42.993 -50.371  13.928  1.00  0.00    -0.349 OA
BRANCH  13  14
HETATM   14  C   UNL     1     -44.298 -50.752  14.183  1.00  0.00     0.074 A 
HETATM   15  C   UNL     1     -45.192 -51.175  13.187  1.00  0.00     0.037 A 
HETATM   16  C   UNL     1     -46.500 -51.544  13.508  1.00  0.00     0.003 A 
HETATM   17  C   UNL     1     -46.922 -51.516  14.831  1.00  0.00     0.001 A 
HETATM   18  C   UNL     1     -46.038 -51.113  15.832  1.00  0.00     0.009 A 
HETATM   19  C   UNL     1     -44.722 -50.729  15.522  1.00  0.00    -0.029 A 
HETATM   20  C   UNL     1     -43.809 -50.253  16.616  1.00  0.00     0.051 C 
ENDBRANCH  13  14
ENDBRANCH  12  13
ENDBRANCH  11  12
ENDBRANCH  10  11
BRANCH   1  21
HETATM   21  C   UNL     1     -39.927 -47.194  11.419  1.00  0.00     0.096 C 
BRANCH  21  22
HETATM   22  C   UNL     1     -39.798 -46.520  12.789  1.00  0.00     0.130 C 
BRANCH  22  23
HETATM   23  N   UNL     1     -39.482 -45.105  12.688  1.00  0.00    -0.361 N 
HETATM   24  C   UNL     1     -40.460 -44.138  12.737  1.00  0.00     0.213 C 
HETATM   25  C   UNL     1     -39.936 -42.743  12.545  1.00  0.00     0.117 C 
HETATM   26  O   UNL     1     -41.648 -44.375  12.923  1.00  0.00    -0.274 OA
HETATM   27  H   UNL     1     -38.528 -44.840  12.479  1.00  0.00     0.162 HD
ENDBRANCH  22  23
ENDBRANCH  21  22
ENDBRANCH   1  21
TORSDOF 7
ENDMDL
MODEL 9
REMARK VINA RESULT:      -5.9      2.352      3.752
REMARK  7 active torsions:
REMARK  status: ('A' for Active; 'I' for Inactive)
REMARK       I    between atoms: C_2  and  N_4 
REMARK    1  A    between atoms: N_4  and  C_5 
REMARK    2  A    between atoms: C_5  and  C_6 
REMARK    3  A    between atoms: C_6  and  C_7 
REMARK    4  A    between atoms: N_16  and  C_17 
REMARK    5  A    between atoms: C_17  and  C_18 
REMARK    6  A    between atoms: C_18  and  O_19 
REMARK    7  A    between atoms: O_19  and  C_20 
ROOT
HETATM    1  C   UNL     1     -42.087 -50.885  12.311  1.00  0.00     0.086 A 
HETATM    2  N   UNL     1     -43.181 -50.292  12.736  1.00  0.00    -0.344 N 
ATOM      3  HN  UNL     1     -43.341 -49.289  12.825  1.00  0.00     0.167 HD
HETATM    4  C   UNL     1     -44.060 -51.296  13.034  1.00  0.00     0.060 A 
HETATM    5  C   UNL     1     -45.370 -51.190  13.532  1.00  0.00     0.032 A 
HETATM    6  C   UNL     1     -46.113 -52.353  13.760  1.00  0.00     0.002 A 
HETATM    7  C   UNL     1     -45.560 -53.600  13.498  1.00  0.00     0.002 A 
HETATM    8  C   UNL     1     -44.255 -53.720  13.010  1.00  0.00     0.032 A 
HETATM    9  C   UNL     1     -43.506 -52.550  12.779  1.00  0.00     0.062 A 
HETATM   10  N   UNL     1     -42.230 -52.267  12.314  1.00  0.00    -0.333 N 
ENDROOT
BRANCH  10  11
HETATM   11  C   UNL     1     -41.178 -53.181  11.871  1.00  0.00     0.157 C 
BRANCH  11  12
HETATM   12  C   UNL     1     -40.727 -54.204  12.901  1.00  0.00     0.196 C 
BRANCH  12  13
HETATM   13  O   UNL     1     -40.835 -53.740  14.249  1.00  0.00    -0.349 OA
BRANCH  13  14
HETATM   14  C   UNL     1     -40.241 -54.597  15.157  1.00  0.00     0.074 A 
HETATM   15  C   UNL     1     -38.856 -54.811  15.232  1.00  0.00     0.037 A 
HETATM   16  C   UNL     1     -38.316 -55.692  16.171  1.00  0.00     0.003 A 
HETATM   17  C   UNL     1     -39.154 -56.353  17.060  1.00  0.00     0.001 A 
HETATM   18  C   UNL     1     -40.531 -56.136  17.007  1.00  0.00     0.009 A 
HETATM   19  C   UNL     1     -41.088 -55.260  16.060  1.00  0.00    -0.029 A 
HETATM   20  C   UNL     1     -42.578 -55.086  15.995  1.00  0.00     0.051 C 
ENDBRANCH  13  14
ENDBRANCH  12  13
ENDBRANCH  11  12
ENDBRANCH  10  11
BRANCH   1  21
HETATM   21  C   UNL     1     -40.858 -50.167  11.856  1.00  0.00     0.096 C 
BRANCH  21  22
HETATM   22  C   UNL     1     -41.119 -48.673  11.637  1.00  0.00     0.130 C 
BRANCH  22  23
HETATM   23  N   UNL     1     -41.607 -48.383  10.298  1.00  0.00    -0.361 N 
HETATM   24  C   UNL     1     -42.867 -47.876  10.080  1.00  0.00     0.213 C 
HETATM   25  C   UNL     1     -43.204 -47.712   8.625  1.00  0.00     0.117 C 
HETATM   26  O   UNL     1     -43.649 -47.579  10.975  1.00  0.00    -0.274 OA
HETATM   27  H   UNL     1     -41.034 -48.654   9.509  1.00  0.00     0.162 HD
ENDBRANCH  22  23
ENDBRANCH  21  22
ENDBRANCH   1  21
TORSDOF 7
ENDMDL
