MODEL 1
REMARK VINA RESULT:      -5.3      0.000      0.000
REMARK  6 active torsions:
REMARK  status: ('A' for Active; 'I' for Inactive)
REMARK    1  A    between atoms: C_2  and  N_4 
REMARK       I    between atoms: N_4  and  C_5 
REMARK    2  A    between atoms: C_5  and  C_7 
REMARK    3  A    between atoms: C_7  and  N_9 
REMARK    4  A    between atoms: N_9  and  C_10 
REMARK    5  A    between atoms: C_10  and  C_11 
REMARK    6  A    between atoms: C_11  and  N_12 
ROOT
HETATM    1  N   UNL     1     -41.893 -49.968  11.664  1.00  0.00     0.098 N 
HETATM    2  H   UNL     1     -42.074 -50.469  10.787  1.00  0.00     0.317 HD
ENDROOT
BRANCH   1   3
HETATM    3  C   UNL     1     -40.950 -48.869  11.341  1.00  0.00     0.307 C 
HETATM    4  C   UNL     1     -40.483 -48.221  12.642  1.00  0.00     0.053 C 
BRANCH   3   5
HETATM    5  C   UNL     1     -41.641 -47.802  10.465  1.00  0.00     0.251 C 
HETATM    6  N   UNL     1     -42.755 -48.264   9.794  1.00  0.00    -0.355 N 
HETATM    7  H   UNL     1     -42.953 -49.257   9.785  1.00  0.00     0.162 HD
HETATM    8  O   UNL     1     -41.268 -46.632  10.435  1.00  0.00    -0.271 OA
BRANCH   6   9
HETATM    9  C   UNL     1     -43.564 -47.402   8.948  1.00  0.00     0.076 C 
HETATM   10  C   UNL     1     -43.485 -47.853   7.492  1.00  0.00     0.032 C 
HETATM   11  C   UNL     1     -45.010 -47.396   9.437  1.00  0.00     0.032 C 
ENDBRANCH   6   9
ENDBRANCH   3   5
ENDBRANCH   1   3
BRANCH   1  12
HETATM   12  C   UNL     1     -41.357 -50.944  12.630  1.00  0.00     0.292 C 
BRANCH  12  13
HETATM   13  C   UNL     1     -41.320 -52.386  12.122  1.00  0.00     0.178 C 
BRANCH  13  14
HETATM   14  N   UNL     1     -42.429 -53.157  12.653  1.00  0.00    -0.302 N 
HETATM   15  C   UNL     1     -42.416 -53.959  13.755  1.00  0.00     0.111 A 
HETATM   16  C   UNL     1     -43.695 -54.448  13.880  1.00  0.00     0.037 A 
HETATM   17  C   UNL     1     -44.399 -53.894  12.796  1.00  0.00     0.108 A 
HETATM   18  N   UNL     1     -43.626 -53.114  12.035  1.00  0.00    -0.310 N 
ATOM     19  HN  UNL     1     -43.880 -52.607  11.187  1.00  0.00     0.186 HD
ENDBRANCH  13  14
ENDBRANCH  12  13
ENDBRANCH   1  12
TORSDOF 6
ENDMDL
MODEL 2
REMARK VINA RESULT:      -5.2      2.746      5.942
REMARK  6 active torsions:
REMARK  status: ('A' for Active; 'I' for Inactive)
REMARK    1  A    between atoms: C_2  and  N_4 
REMARK       I    between atoms: N_4  and  C_5 
REMARK    2  A    between atoms: C_5  and  C_7 
REMARK    3  A    between atoms: C_7  and  N_9 
REMARK    4  A    between atoms: N_9  and  C_10 
REMARK    5  A    between atoms: C_10  and  C_11 
REMARK    6  A    between atoms: C_11  and  N_12 
ROOT
HETATM    1  N   UNL     1     -42.036 -52.432  11.605  1.00  0.00     0.098 N 
HETATM    2  H   UNL     1     -42.833 -51.962  11.163  1.00  0.00     0.317 HD
ENDROOT
BRANCH   1   3
HETATM    3  C   UNL     1     -42.518 -52.962  12.904  1.00  0.00     0.307 C 
HETATM    4  C   UNL     1     -41.791 -54.269  13.206  1.00  0.00     0.053 C 
BRANCH   3   5
HETATM    5  C   UNL     1     -44.037 -53.230  12.850  1.00  0.00     0.251 C 
HETATM    6  N   UNL     1     -44.807 -52.184  13.314  1.00  0.00    -0.355 N 
HETATM    7  H   UNL     1     -44.359 -51.408  13.786  1.00  0.00     0.162 HD
HETATM    8  O   UNL     1     -44.508 -54.257  12.367  1.00  0.00    -0.271 OA
BRANCH   6   9
HETATM    9  C   UNL     1     -46.261 -52.228  13.309  1.00  0.00     0.076 C 
HETATM   10  C   UNL     1     -46.825 -51.428  14.480  1.00  0.00     0.032 C 
HETATM   11  C   UNL     1     -46.797 -51.699  11.982  1.00  0.00     0.032 C 
ENDBRANCH   6   9
ENDBRANCH   3   5
ENDBRANCH   1   3
BRANCH   1  12
HETATM   12  C   UNL     1     -40.953 -51.441  11.735  1.00  0.00     0.292 C 
BRANCH  12  13
HETATM   13  C   UNL     1     -41.312 -50.214  12.576  1.00  0.00     0.178 C 
BRANCH  13  14
HETATM   14  N   UNL     1     -41.537 -49.052  11.736  1.00  0.00    -0.302 N 
HETATM   15  C   UNL     1     -40.654 -48.048  11.472  1.00  0.00     0.111 A 
HETATM   16  C   UNL     1     -41.301 -47.195  10.609  1.00  0.00     0.037 A 
HETATM   17  C   UNL     1     -42.573 -47.766  10.426  1.00  0.00     0.108 A 
HETATM   18  N   UNL     1     -42.728 -48.895  11.124  1.00  0.00    -0.310 N 
ATOM     19  HN  UNL     1     -43.551 -49.495  11.180  1.00  0.00     0.186 HD
ENDBRANCH  13  14
ENDBRANCH  12  13
ENDBRANCH   1  12
TORSDOF 6
ENDMDL
MODEL 3
REMARK VINA RESULT:      -5.2      2.551      5.965
REMARK  6 active torsions:
REMARK  status: ('A' for Active; 'I' for Inactive)
REMARK    1  A    between atoms: C_2  and  N_4 
REMARK       I    between atoms: N_4  and  C_5 
REMARK    2  A    between atoms: C_5  and  C_7 
REMARK    3  A    between atoms: C_7  and  N_9 
REMARK    4  A    between atoms: N_9  and  C_10 
REMARK    5  A    between atoms: C_10  and  C_11 
REMARK    6  A    between atoms: C_11  and  N_12 
ROOT
HETATM    1  N   UNL     1     -42.234 -50.519  11.594  1.00  0.00     0.098 N 
HETATM    2  H   UNL     1     -43.170 -50.579  11.179  1.00  0.00     0.317 HD
ENDROOT
BRANCH   1   3
HETATM    3  C   UNL     1     -42.173 -51.548  12.661  1.00  0.00     0.307 C 
HETATM    4  C   UNL     1     -41.069 -52.546  12.324  1.00  0.00     0.053 C 
BRANCH   3   5
HETATM    5  C   UNL     1     -43.517 -52.299  12.768  1.00  0.00     0.251 C 
HETATM    6  N   UNL     1     -44.588 -51.488  13.082  1.00  0.00    -0.355 N 
HETATM    7  H   UNL     1     -44.420 -50.531  13.367  1.00  0.00     0.162 HD
HETATM    8  O   UNL     1     -43.624 -53.498  12.520  1.00  0.00    -0.271 OA
BRANCH   6   9
HETATM    9  C   UNL     1     -45.945 -52.001  13.191  1.00  0.00     0.076 C 
HETATM   10  C   UNL     1     -46.621 -51.465  14.450  1.00  0.00     0.032 C 
HETATM   11  C   UNL     1     -46.746 -51.631  11.945  1.00  0.00     0.032 C 
ENDBRANCH   6   9
ENDBRANCH   3   5
ENDBRANCH   1   3
BRANCH   1  12
HETATM   12  C   UNL     1     -42.054 -49.142  12.087  1.00  0.00     0.292 C 
BRANCH  12  13
HETATM   13  C   UNL     1     -41.639 -48.132  11.015  1.00  0.00     0.178 C 
BRANCH  13  14
HETATM   14  N   UNL     1     -42.733 -47.864  10.099  1.00  0.00    -0.302 N 
HETATM   15  C   UNL     1     -43.975 -47.403  10.418  1.00  0.00     0.111 A 
HETATM   16  C   UNL     1     -44.648 -47.276   9.226  1.00  0.00     0.037 A 
HETATM   17  C   UNL     1     -43.728 -47.699   8.248  1.00  0.00     0.108 A 
HETATM   18  N   UNL     1     -42.560 -48.072   8.778  1.00  0.00    -0.310 N 
ATOM     19  HN  UNL     1     -41.734 -48.430   8.298  1.00  0.00     0.186 HD
ENDBRANCH  13  14
ENDBRANCH  12  13
ENDBRANCH   1  12
TORSDOF 6
ENDMDL
MODEL 4
REMARK VINA RESULT:      -5.1      3.299      5.753
REMARK  6 active torsions:
REMARK  status: ('A' for Active; 'I' for Inactive)
REMARK    1  A    between atoms: C_2  and  N_4 
REMARK       I    between atoms: N_4  and  C_5 
REMARK    2  A    between atoms: C_5  and  C_7 
REMARK    3  A    between atoms: C_7  and  N_9 
REMARK    4  A    between atoms: N_9  and  C_10 
REMARK    5  A    between atoms: C_10  and  C_11 
REMARK    6  A    between atoms: C_11  and  N_12 
ROOT
HETATM    1  N   UNL     1     -42.185 -51.128  11.768  1.00  0.00     0.098 N 
HETATM    2  H   UNL     1     -43.139 -51.023  11.406  1.00  0.00     0.317 HD
ENDROOT
BRANCH   1   3
HETATM    3  C   UNL     1     -42.255 -52.110  12.879  1.00  0.00     0.307 C 
HETATM    4  C   UNL     1     -41.259 -53.234  12.608  1.00  0.00     0.053 C 
BRANCH   3   5
HETATM    5  C   UNL     1     -43.674 -52.707  12.986  1.00  0.00     0.251 C 
HETATM    6  N   UNL     1     -44.681 -51.763  12.980  1.00  0.00    -0.355 N 
HETATM    7  H   UNL     1     -44.443 -50.782  13.063  1.00  0.00     0.162 HD
HETATM    8  O   UNL     1     -43.880 -53.918  12.999  1.00  0.00    -0.271 OA
BRANCH   6   9
HETATM    9  C   UNL     1     -46.088 -52.128  13.034  1.00  0.00     0.076 C 
HETATM   10  C   UNL     1     -46.747 -51.532  14.275  1.00  0.00     0.032 C 
HETATM   11  C   UNL     1     -46.798 -51.665  11.766  1.00  0.00     0.032 C 
ENDBRANCH   6   9
ENDBRANCH   3   5
ENDBRANCH   1   3
BRANCH   1  12
HETATM   12  C   UNL     1     -41.719 -49.794  12.186  1.00  0.00     0.292 C 
BRANCH  12  13
HETATM   13  C   UNL     1     -40.602 -49.210  11.318  1.00  0.00     0.178 C 
BRANCH  13  14
HETATM   14  N   UNL     1     -39.311 -49.757  11.692  1.00  0.00    -0.302 N 
HETATM   15  C   UNL     1     -38.939 -50.216  12.920  1.00  0.00     0.111 A 
HETATM   16  C   UNL     1     -37.646 -50.661  12.781  1.00  0.00     0.037 A 
HETATM   17  C   UNL     1     -37.324 -50.414  11.434  1.00  0.00     0.108 A 
HETATM   18  N   UNL     1     -38.334 -49.849  10.767  1.00  0.00    -0.310 N 
ATOM     19  HN  UNL     1     -38.361 -49.556   9.790  1.00  0.00     0.186 HD
ENDBRANCH  13  14
ENDBRANCH  12  13
ENDBRANCH   1  12
TORSDOF 6
ENDMDL
MODEL 5
REMARK VINA RESULT:      -5.1      3.419      4.769
REMARK  6 active torsions:
REMARK  status: ('A' for Active; 'I' for Inactive)
REMARK    1  A    between atoms: C_2  and  N_4 
REMARK       I    between atoms: N_4  and  C_5 
REMARK    2  A    between atoms: C_5  and  C_7 
REMARK    3  A    between atoms: C_7  and  N_9 
REMARK    4  A    between atoms: N_9  and  C_10 
REMARK    5  A    between atoms: C_10  and  C_11 
REMARK    6  A    between atoms: C_11  and  N_12 
ROOT
HETATM    1  N   UNL     1     -42.353 -52.558  11.652  1.00  0.00     0.098 N 
HETATM    2  H   UNL     1     -42.705 -53.262  10.995  1.00  0.00     0.317 HD
ENDROOT
BRANCH   1   3
HETATM    3  C   UNL     1     -40.989 -52.988  12.049  1.00  0.00     0.307 C 
HETATM    4  C   UNL     1     -41.104 -54.092  13.097  1.00  0.00     0.053 C 
BRANCH   3   5
HETATM    5  C   UNL     1     -40.199 -51.804  12.646  1.00  0.00     0.251 C 
HETATM    6  N   UNL     1     -39.522 -51.053  11.708  1.00  0.00    -0.355 N 
HETATM    7  H   UNL     1     -39.453 -51.391  10.756  1.00  0.00     0.162 HD
HETATM    8  O   UNL     1     -40.237 -51.523  13.842  1.00  0.00    -0.271 OA
BRANCH   6   9
HETATM    9  C   UNL     1     -38.751 -49.873  12.067  1.00  0.00     0.076 C 
HETATM   10  C   UNL     1     -37.454 -49.816  11.265  1.00  0.00     0.032 C 
HETATM   11  C   UNL     1     -39.584 -48.614  11.843  1.00  0.00     0.032 C 
ENDBRANCH   6   9
ENDBRANCH   3   5
ENDBRANCH   1   3
BRANCH   1  12
HETATM   12  C   UNL     1     -43.302 -52.487  12.777  1.00  0.00     0.292 C 
BRANCH  12  13
HETATM   13  C   UNL     1     -44.693 -53.046  12.471  1.00  0.00     0.178 C 
BRANCH  13  14
HETATM   14  N   UNL     1     -45.648 -52.660  13.493  1.00  0.00    -0.302 N 
HETATM   15  C   UNL     1     -45.852 -51.408  13.993  1.00  0.00     0.111 A 
HETATM   16  C   UNL     1     -46.870 -51.529  14.909  1.00  0.00     0.037 A 
HETATM   17  C   UNL     1     -47.202 -52.896  14.898  1.00  0.00     0.108 A 
HETATM   18  N   UNL     1     -46.448 -53.594  14.044  1.00  0.00    -0.310 N 
ATOM     19  HN  UNL     1     -46.472 -54.596  13.854  1.00  0.00     0.186 HD
ENDBRANCH  13  14
ENDBRANCH  12  13
ENDBRANCH   1  12
TORSDOF 6
ENDMDL
MODEL 6
REMARK VINA RESULT:      -5.0      2.165      3.643
REMARK  6 active torsions:
REMARK  status: ('A' for Active; 'I' for Inactive)
REMARK    1  A    between atoms: C_2  and  N_4 
REMARK       I    between atoms: N_4  and  C_5 
REMARK    2  A    between atoms: C_5  and  C_7 
REMARK    3  A    between atoms: C_7  and  N_9 
REMARK    4  A    between atoms: N_9  and  C_10 
REMARK    5  A    between atoms: C_10  and  C_11 
REMARK    6  A    between atoms: C_11  and  N_12 
ROOT
HETATM    1  N   UNL     1     -42.592 -52.825  11.873  1.00  0.00     0.098 N 
HETATM    2  H   UNL     1     -42.817 -53.327  11.007  1.00  0.00     0.317 HD
ENDROOT
BRANCH   1   3
HETATM    3  C   UNL     1     -41.129 -52.582  11.859  1.00  0.00     0.307 C 
HETATM    4  C   UNL     1     -40.499 -53.280  13.061  1.00  0.00     0.053 C 
BRANCH   3   5
HETATM    5  C   UNL     1     -40.830 -51.070  11.940  1.00  0.00     0.251 C 
HETATM    6  N   UNL     1     -41.923 -50.268  11.683  1.00  0.00    -0.355 N 
HETATM    7  H   UNL     1     -42.771 -50.686  11.319  1.00  0.00     0.162 HD
HETATM    8  O   UNL     1     -39.732 -50.632  12.276  1.00  0.00    -0.271 OA
BRANCH   6   9
HETATM    9  C   UNL     1     -41.855 -48.817  11.747  1.00  0.00     0.076 C 
HETATM   10  C   UNL     1     -41.824 -48.220  10.343  1.00  0.00     0.032 C 
HETATM   11  C   UNL     1     -43.036 -48.271  12.544  1.00  0.00     0.032 C 
ENDBRANCH   6   9
ENDBRANCH   3   5
ENDBRANCH   1   3
BRANCH   1  12
HETATM   12  C   UNL     1     -43.042 -53.662  13.000  1.00  0.00     0.292 C 
BRANCH  12  13
HETATM   13  C   UNL     1     -44.491 -54.142  12.896  1.00  0.00     0.178 C 
BRANCH  13  14
HETATM   14  N   UNL     1     -45.421 -53.046  13.098  1.00  0.00    -0.302 N 
HETATM   15  C   UNL     1     -45.695 -52.409  14.271  1.00  0.00     0.111 A 
HETATM   16  C   UNL     1     -46.607 -51.428  13.964  1.00  0.00     0.037 A 
HETATM   17  C   UNL     1     -46.829 -51.564  12.581  1.00  0.00     0.108 A 
HETATM   18  N   UNL     1     -46.116 -52.561  12.049  1.00  0.00    -0.310 N 
ATOM     19  HN  UNL     1     -46.101 -52.880  11.081  1.00  0.00     0.186 HD
ENDBRANCH  13  14
ENDBRANCH  12  13
ENDBRANCH   1  12
TORSDOF 6
ENDMDL
MODEL 7
REMARK VINA RESULT:      -4.9      1.826      2.276
REMARK  6 active torsions:
REMARK  status: ('A' for Active; 'I' for Inactive)
REMARK    1  A    between atoms: C_2  and  N_4 
REMARK       I    between atoms: N_4  and  C_5 
REMARK    2  A    between atoms: C_5  and  C_7 
REMARK    3  A    between atoms: C_7  and  N_9 
REMARK    4  A    between atoms: N_9  and  C_10 
REMARK    5  A    between atoms: C_10  and  C_11 
REMARK    6  A    between atoms: C_11  and  N_12 
ROOT
HETATM    1  N   UNL     1     -40.282 -47.995  10.893  1.00  0.00     0.098 N 
HETATM    2  H   UNL     1     -39.273 -48.090  10.739  1.00  0.00     0.317 HD
ENDROOT
BRANCH   1   3
HETATM    3  C   UNL     1     -40.563 -46.542  11.002  1.00  0.00     0.307 C 
HETATM    4  C   UNL     1     -40.845 -46.200  12.462  1.00  0.00     0.053 C 
BRANCH   3   5
HETATM    5  C   UNL     1     -41.792 -46.162  10.148  1.00  0.00     0.251 C 
HETATM    6  N   UNL     1     -42.400 -47.238   9.533  1.00  0.00    -0.355 N 
HETATM    7  H   UNL     1     -41.941 -48.140   9.542  1.00  0.00     0.162 HD
HETATM    8  O   UNL     1     -42.225 -45.014  10.090  1.00  0.00    -0.271 OA
BRANCH   6   9
HETATM    9  C   UNL     1     -43.595 -47.091   8.716  1.00  0.00     0.076 C 
HETATM   10  C   UNL     1     -43.511 -47.982   7.480  1.00  0.00     0.032 C 
HETATM   11  C   UNL     1     -44.836 -47.421   9.541  1.00  0.00     0.032 C 
ENDBRANCH   6   9
ENDBRANCH   3   5
ENDBRANCH   1   3
BRANCH   1  12
HETATM   12  C   UNL     1     -40.619 -48.756  12.109  1.00  0.00     0.292 C 
BRANCH  12  13
HETATM   13  C   UNL     1     -41.756 -49.765  11.933  1.00  0.00     0.178 C 
BRANCH  13  14
HETATM   14  N   UNL     1     -41.356 -51.085  12.384  1.00  0.00    -0.302 N 
HETATM   15  C   UNL     1     -41.119 -51.477  13.668  1.00  0.00     0.111 A 
HETATM   16  C   UNL     1     -40.803 -52.813  13.602  1.00  0.00     0.037 A 
HETATM   17  C   UNL     1     -40.863 -53.130  12.233  1.00  0.00     0.108 A 
HETATM   18  N   UNL     1     -41.188 -52.073  11.482  1.00  0.00    -0.310 N 
ATOM     19  HN  UNL     1     -41.285 -52.025  10.468  1.00  0.00     0.186 HD
ENDBRANCH  13  14
ENDBRANCH  12  13
ENDBRANCH   1  12
TORSDOF 6
ENDMDL
MODEL 8
REMARK VINA RESULT:      -4.8      2.587      6.279
REMARK  6 active torsions:
REMARK  status: ('A' for Active; 'I' for Inactive)
REMARK    1  A    between atoms: C_2  and  N_4 
REMARK       I    between atoms: N_4  and  C_5 
REMARK    2  A    between atoms: C_5  and  C_7 
REMARK    3  A    between atoms: C_7  and  N_9 
REMARK    4  A    between atoms: N_9  and  C_10 
REMARK    5  A    between atoms: C_10  and  C_11 
REMARK    6  A    between atoms: C_11  and  N_12 
ROOT
HETATM    1  N   UNL     1     -42.070 -49.943  12.866  1.00  0.00     0.098 N 
HETATM    2  H   UNL     1     -41.166 -49.575  13.181  1.00  0.00     0.317 HD
ENDROOT
BRANCH   1   3
HETATM    3  C   UNL     1     -41.786 -51.194  12.120  1.00  0.00     0.307 C 
HETATM    4  C   UNL     1     -42.680 -52.306  12.662  1.00  0.00     0.053 C 
BRANCH   3   5
HETATM    5  C   UNL     1     -40.308 -51.605  12.294  1.00  0.00     0.251 C 
HETATM    6  N   UNL     1     -39.409 -50.607  11.980  1.00  0.00    -0.355 N 
HETATM    7  H   UNL     1     -39.740 -49.764  11.528  1.00  0.00     0.162 HD
HETATM    8  O   UNL     1     -39.977 -52.701  12.742  1.00  0.00    -0.271 OA
BRANCH   6   9
HETATM    9  C   UNL     1     -37.972 -50.786  12.115  1.00  0.00     0.076 C 
HETATM   10  C   UNL     1     -37.229 -49.965  11.065  1.00  0.00     0.032 C 
HETATM   11  C   UNL     1     -37.525 -50.400  13.522  1.00  0.00     0.032 C 
ENDBRANCH   6   9
ENDBRANCH   3   5
ENDBRANCH   1   3
BRANCH   1  12
HETATM   12  C   UNL     1     -42.713 -48.899  12.049  1.00  0.00     0.292 C 
BRANCH  12  13
HETATM   13  C   UNL     1     -41.846 -48.359  10.910  1.00  0.00     0.178 C 
BRANCH  13  14
HETATM   14  N   UNL     1     -42.657 -47.698   9.904  1.00  0.00    -0.302 N 
HETATM   15  C   UNL     1     -43.360 -46.539  10.049  1.00  0.00     0.111 A 
HETATM   16  C   UNL     1     -43.940 -46.294   8.827  1.00  0.00     0.037 A 
HETATM   17  C   UNL     1     -43.538 -47.371   8.017  1.00  0.00     0.108 A 
HETATM   18  N   UNL     1     -42.765 -48.240   8.675  1.00  0.00    -0.310 N 
ATOM     19  HN  UNL     1     -42.354 -49.107   8.329  1.00  0.00     0.186 HD
ENDBRANCH  13  14
ENDBRANCH  12  13
ENDBRANCH   1  12
TORSDOF 6
ENDMDL
MODEL 9
REMARK VINA RESULT:      -4.7      3.731      6.908
REMARK  6 active torsions:
REMARK  status: ('A' for Active; 'I' for Inactive)
REMARK    1  A    between atoms: C_2  and  N_4 
REMARK       I    between atoms: N_4  and  C_5 
REMARK    2  A    between atoms: C_5  and  C_7 
REMARK    3  A    between atoms: C_7  and  N_9 
REMARK    4  A    between atoms: N_9  and  C_10 
REMARK    5  A    between atoms: C_10  and  C_11 
REMARK    6  A    between atoms: C_11  and  N_12 
ROOT
HETATM    1  N   UNL     1     -39.530 -50.059  10.888  1.00  0.00     0.098 N 
HETATM    2  H   UNL     1     -39.660 -51.072  10.986  1.00  0.00     0.317 HD
ENDROOT
BRANCH   1   3
HETATM    3  C   UNL     1     -38.278 -49.717  11.607  1.00  0.00     0.307 C 
HETATM    4  C   UNL     1     -37.088 -50.034  10.705  1.00  0.00     0.053 C 
BRANCH   3   5
HETATM    5  C   UNL     1     -38.158 -50.538  12.908  1.00  0.00     0.251 C 
HETATM    6  N   UNL     1     -37.692 -49.814  13.986  1.00  0.00    -0.355 N 
HETATM    7  H   UNL     1     -37.323 -48.883  13.838  1.00  0.00     0.162 HD
HETATM    8  O   UNL     1     -38.518 -51.711  12.983  1.00  0.00    -0.271 OA
BRANCH   6   9
HETATM    9  C   UNL     1     -37.545 -50.400  15.310  1.00  0.00     0.076 C 
HETATM   10  C   UNL     1     -36.253 -49.923  15.966  1.00  0.00     0.032 C 
HETATM   11  C   UNL     1     -38.754 -50.052  16.174  1.00  0.00     0.032 C 
ENDBRANCH   6   9
ENDBRANCH   3   5
ENDBRANCH   1   3
BRANCH   1  12
HETATM   12  C   UNL     1     -40.728 -49.402  11.440  1.00  0.00     0.292 C 
BRANCH  12  13
HETATM   13  C   UNL     1     -40.719 -47.876  11.341  1.00  0.00     0.178 C 
BRANCH  13  14
HETATM   14  N   UNL     1     -41.764 -47.404  10.451  1.00  0.00    -0.302 N 
HETATM   15  C   UNL     1     -42.147 -46.111  10.249  1.00  0.00     0.111 A 
HETATM   16  C   UNL     1     -43.142 -46.156   9.302  1.00  0.00     0.037 A 
HETATM   17  C   UNL     1     -43.296 -47.523   9.007  1.00  0.00     0.108 A 
HETATM   18  N   UNL     1     -42.464 -48.291   9.717  1.00  0.00    -0.310 N 
ATOM     19  HN  UNL     1     -42.380 -49.308   9.706  1.00  0.00     0.186 HD
ENDBRANCH  13  14
ENDBRANCH  12  13
ENDBRANCH   1  12
TORSDOF 6
ENDMDL
