MODEL 1
REMARK VINA RESULT:      -5.8      0.000      0.000
REMARK  4 active torsions:
REMARK  status: ('A' for Active; 'I' for Inactive)
REMARK    1  A    between atoms: C_7  and  C_8 
REMARK    2  A    between atoms: C_8  and  C_9 
REMARK       I    between atoms: C_9  and  N_11 
REMARK    3  A    between atoms: N_11  and  C_12 
REMARK    4  A    between atoms: C_12  and  C_13 
ROOT
HETATM    1  C   UNL     1     -47.885 -51.100  17.006  1.00  0.00     0.089 C 
HETATM    2  C   UNL     1     -47.090 -51.839  15.969  1.00  0.00     0.080 A 
HETATM    3  N   UNL     1     -47.050 -51.415  14.750  1.00  0.00    -0.349 N 
ATOM      4  HN  UNL     1     -47.532 -50.559  14.476  1.00  0.00     0.167 HD
HETATM    5  C   UNL     1     -46.336 -52.155  13.831  1.00  0.00     0.018 A 
HETATM    6  C   UNL     1     -46.433 -51.613  12.425  1.00  0.00     0.069 C 
HETATM    7  C   UNL     1     -45.633 -53.259  14.143  1.00  0.00     0.041 A 
HETATM    8  C   UNL     1     -45.640 -53.679  15.565  1.00  0.00     0.255 A 
HETATM    9  O   UNL     1     -44.973 -54.630  15.964  1.00  0.00    -0.268 OA
HETATM   10  N   UNL     1     -46.436 -52.950  16.396  1.00  0.00    -0.313 N 
HETATM   11  H   UNL     1     -46.469 -53.242  17.360  1.00  0.00     0.170 HD
ENDROOT
BRANCH   7  12
HETATM   12  C   UNL     1     -44.925 -54.188  13.204  1.00  0.00     0.149 C 
BRANCH  12  13
HETATM   13  C   UNL     1     -43.467 -53.826  12.982  1.00  0.00     0.222 C 
HETATM   14  O   UNL     1     -42.584 -54.383  13.636  1.00  0.00    -0.273 OA
HETATM   15  N   UNL     1     -43.185 -52.828  12.063  1.00  0.00    -0.360 N 
HETATM   16  H   UNL     1     -43.957 -52.263  11.712  1.00  0.00     0.162 HD
BRANCH  15  17
HETATM   17  C   UNL     1     -41.821 -52.330  12.016  1.00  0.00     0.129 C 
BRANCH  17  18
HETATM   18  C   UNL     1     -41.577 -50.921  12.543  1.00  0.00     0.029 C 
HETATM   19  C   UNL     1     -42.817 -50.079  12.778  1.00  0.00     0.034 C 
HETATM   20  C   UNL     1     -42.407 -48.666  12.387  1.00  0.00     0.168 C 
HETATM   21  O   UNL     1     -41.080 -48.728  11.852  1.00  0.00    -0.391 OA
HETATM   22  C   UNL     1     -40.823 -50.091  11.512  1.00  0.00     0.173 C 
ENDBRANCH  17  18
ENDBRANCH  15  17
ENDBRANCH  12  13
ENDBRANCH   7  12
TORSDOF 4
ENDMDL
MODEL 2
REMARK VINA RESULT:      -5.7      2.908      3.927
REMARK  4 active torsions:
REMARK  status: ('A' for Active; 'I' for Inactive)
REMARK    1  A    between atoms: C_7  and  C_8 
REMARK    2  A    between atoms: C_8  and  C_9 
REMARK       I    between atoms: C_9  and  N_11 
REMARK    3  A    between atoms: N_11  and  C_12 
REMARK    4  A    between atoms: C_12  and  C_13 
ROOT
HETATM    1  C   UNL     1     -46.941 -51.733  11.768  1.00  0.00     0.089 C 
HETATM    2  C   UNL     1     -45.997 -52.580  12.572  1.00  0.00     0.080 A 
HETATM    3  N   UNL     1     -44.725 -52.520  12.363  1.00  0.00    -0.349 N 
ATOM      4  HN  UNL     1     -44.336 -51.878  11.673  1.00  0.00     0.167 HD
HETATM    5  C   UNL     1     -43.908 -53.348  13.103  1.00  0.00     0.018 A 
HETATM    6  C   UNL     1     -42.452 -53.254  12.713  1.00  0.00     0.069 C 
HETATM    7  C   UNL     1     -44.355 -54.173  14.068  1.00  0.00     0.041 A 
HETATM    8  C   UNL     1     -45.813 -54.167  14.332  1.00  0.00     0.255 A 
HETATM    9  O   UNL     1     -46.311 -54.829  15.239  1.00  0.00    -0.268 OA
HETATM   10  N   UNL     1     -46.564 -53.388  13.505  1.00  0.00    -0.313 N 
HETATM   11  H   UNL     1     -47.560 -53.395  13.659  1.00  0.00     0.170 HD
ENDROOT
BRANCH   7  12
HETATM   12  C   UNL     1     -43.567 -55.187  14.841  1.00  0.00     0.149 C 
BRANCH  12  13
HETATM   13  C   UNL     1     -42.554 -54.569  15.789  1.00  0.00     0.222 C 
HETATM   14  O   UNL     1     -42.875 -53.620  16.506  1.00  0.00    -0.273 OA
HETATM   15  N   UNL     1     -41.266 -55.079  15.775  1.00  0.00    -0.360 N 
HETATM   16  H   UNL     1     -41.006 -55.713  15.021  1.00  0.00     0.162 HD
BRANCH  15  17
HETATM   17  C   UNL     1     -40.250 -54.346  16.512  1.00  0.00     0.129 C 
BRANCH  17  18
HETATM   18  C   UNL     1     -39.238 -53.552  15.695  1.00  0.00     0.029 C 
HETATM   19  C   UNL     1     -39.648 -52.138  15.326  1.00  0.00     0.034 C 
HETATM   20  C   UNL     1     -39.082 -51.923  13.929  1.00  0.00     0.168 C 
HETATM   21  O   UNL     1     -38.509 -53.160  13.493  1.00  0.00    -0.391 OA
HETATM   22  C   UNL     1     -39.040 -54.191  14.326  1.00  0.00     0.173 C 
ENDBRANCH  17  18
ENDBRANCH  15  17
ENDBRANCH  12  13
ENDBRANCH   7  12
TORSDOF 4
ENDMDL
MODEL 3
REMARK VINA RESULT:      -5.5      1.867      2.210
REMARK  4 active torsions:
REMARK  status: ('A' for Active; 'I' for Inactive)
REMARK    1  A    between atoms: C_7  and  C_8 
REMARK    2  A    between atoms: C_8  and  C_9 
REMARK       I    between atoms: C_9  and  N_11 
REMARK    3  A    between atoms: N_11  and  C_12 
REMARK    4  A    between atoms: C_12  and  C_13 
ROOT
HETATM    1  C   UNL     1     -47.824 -50.909  17.327  1.00  0.00     0.089 C 
HETATM    2  C   UNL     1     -47.117 -51.712  16.274  1.00  0.00     0.080 A 
HETATM    3  N   UNL     1     -47.130 -51.330  15.041  1.00  0.00    -0.349 N 
ATOM      4  HN  UNL     1     -47.593 -50.464  14.765  1.00  0.00     0.167 HD
HETATM    5  C   UNL     1     -46.498 -52.127  14.110  1.00  0.00     0.018 A 
HETATM    6  C   UNL     1     -46.652 -51.626  12.694  1.00  0.00     0.069 C 
HETATM    7  C   UNL     1     -45.821 -53.248  14.420  1.00  0.00     0.041 A 
HETATM    8  C   UNL     1     -45.765 -53.621  15.854  1.00  0.00     0.255 A 
HETATM    9  O   UNL     1     -45.113 -54.585  16.248  1.00  0.00    -0.268 OA
HETATM   10  N   UNL     1     -46.484 -52.835  16.702  1.00  0.00    -0.313 N 
HETATM   11  H   UNL     1     -46.473 -53.094  17.676  1.00  0.00     0.170 HD
ENDROOT
BRANCH   7  12
HETATM   12  C   UNL     1     -45.204 -54.234  13.476  1.00  0.00     0.149 C 
BRANCH  12  13
HETATM   13  C   UNL     1     -43.781 -53.880  13.080  1.00  0.00     0.222 C 
HETATM   14  O   UNL     1     -43.561 -53.285  12.024  1.00  0.00    -0.273 OA
HETATM   15  N   UNL     1     -42.759 -54.291  13.920  1.00  0.00    -0.360 N 
HETATM   16  H   UNL     1     -42.980 -54.955  14.660  1.00  0.00     0.162 HD
BRANCH  15  17
HETATM   17  C   UNL     1     -41.397 -54.151  13.432  1.00  0.00     0.129 C 
BRANCH  17  18
HETATM   18  C   UNL     1     -40.619 -52.922  13.888  1.00  0.00     0.029 C 
HETATM   19  C   UNL     1     -40.505 -51.798  12.875  1.00  0.00     0.034 C 
HETATM   20  C   UNL     1     -39.110 -51.225  13.088  1.00  0.00     0.168 C 
HETATM   21  O   UNL     1     -38.443 -52.044  14.056  1.00  0.00    -0.391 OA
HETATM   22  C   UNL     1     -39.159 -53.278  14.132  1.00  0.00     0.173 C 
ENDBRANCH  17  18
ENDBRANCH  15  17
ENDBRANCH  12  13
ENDBRANCH   7  12
TORSDOF 4
ENDMDL
MODEL 4
REMARK VINA RESULT:      -5.1      1.872      2.207
REMARK  4 active torsions:
REMARK  status: ('A' for Active; 'I' for Inactive)
REMARK    1  A    between atoms: C_7  and  C_8 
REMARK    2  A    between atoms: C_8  and  C_9 
REMARK       I    between atoms: C_9  and  N_11 
REMARK    3  A    between atoms: N_11  and  C_12 
REMARK    4  A    between atoms: C_12  and  C_13 
ROOT
HETATM    1  C   UNL     1     -47.841 -51.238  16.341  1.00  0.00     0.089 C 
HETATM    2  C   UNL     1     -46.817 -51.875  15.448  1.00  0.00     0.080 A 
HETATM    3  N   UNL     1     -45.870 -51.167  14.930  1.00  0.00    -0.349 N 
ATOM      4  HN  UNL     1     -45.782 -50.173  15.140  1.00  0.00     0.167 HD
HETATM    5  C   UNL     1     -44.980 -51.796  14.085  1.00  0.00     0.018 A 
HETATM    6  C   UNL     1     -43.972 -50.855  13.472  1.00  0.00     0.069 C 
HETATM    7  C   UNL     1     -45.007 -53.115  13.815  1.00  0.00     0.041 A 
HETATM    8  C   UNL     1     -46.064 -53.913  14.483  1.00  0.00     0.255 A 
HETATM    9  O   UNL     1     -46.130 -55.134  14.360  1.00  0.00    -0.268 OA
HETATM   10  N   UNL     1     -46.957 -53.209  15.233  1.00  0.00    -0.313 N 
HETATM   11  H   UNL     1     -47.694 -53.738  15.671  1.00  0.00     0.170 HD
ENDROOT
BRANCH   7  12
HETATM   12  C   UNL     1     -44.163 -53.865  12.831  1.00  0.00     0.149 C 
BRANCH  12  13
HETATM   13  C   UNL     1     -42.801 -54.256  13.379  1.00  0.00     0.222 C 
HETATM   14  O   UNL     1     -42.712 -54.834  14.463  1.00  0.00    -0.273 OA
HETATM   15  N   UNL     1     -41.684 -53.898  12.641  1.00  0.00    -0.360 N 
HETATM   16  H   UNL     1     -41.805 -53.244  11.869  1.00  0.00     0.162 HD
BRANCH  15  17
HETATM   17  C   UNL     1     -40.386 -54.071  13.270  1.00  0.00     0.129 C 
BRANCH  17  18
HETATM   18  C   UNL     1     -39.679 -52.814  13.763  1.00  0.00     0.029 C 
HETATM   19  C   UNL     1     -39.973 -52.409  15.196  1.00  0.00     0.034 C 
HETATM   20  C   UNL     1     -39.996 -50.887  15.172  1.00  0.00     0.168 C 
HETATM   21  O   UNL     1     -39.855 -50.468  13.810  1.00  0.00    -0.391 OA
HETATM   22  C   UNL     1     -40.159 -51.595  12.986  1.00  0.00     0.173 C 
ENDBRANCH  17  18
ENDBRANCH  15  17
ENDBRANCH  12  13
ENDBRANCH   7  12
TORSDOF 4
ENDMDL
MODEL 5
REMARK VINA RESULT:      -5.1      3.942      7.279
REMARK  4 active torsions:
REMARK  status: ('A' for Active; 'I' for Inactive)
REMARK    1  A    between atoms: C_7  and  C_8 
REMARK    2  A    between atoms: C_8  and  C_9 
REMARK       I    between atoms: C_9  and  N_11 
REMARK    3  A    between atoms: N_11  and  C_12 
REMARK    4  A    between atoms: C_12  and  C_13 
ROOT
HETATM    1  C   UNL     1     -36.670 -48.493  16.013  1.00  0.00     0.089 C 
HETATM    2  C   UNL     1     -37.462 -48.740  14.762  1.00  0.00     0.080 A 
HETATM    3  N   UNL     1     -38.189 -47.804  14.253  1.00  0.00    -0.349 N 
ATOM      4  HN  UNL     1     -38.218 -46.874  14.672  1.00  0.00     0.167 HD
HETATM    5  C   UNL     1     -38.927 -48.098  13.126  1.00  0.00     0.018 A 
HETATM    6  C   UNL     1     -39.804 -46.956  12.672  1.00  0.00     0.069 C 
HETATM    7  C   UNL     1     -38.887 -49.286  12.494  1.00  0.00     0.041 A 
HETATM    8  C   UNL     1     -37.987 -50.317  13.062  1.00  0.00     0.255 A 
HETATM    9  O   UNL     1     -37.824 -51.407  12.519  1.00  0.00    -0.268 OA
HETATM   10  N   UNL     1     -37.358 -49.983  14.224  1.00  0.00    -0.313 N 
HETATM   11  H   UNL     1     -36.763 -50.686  14.633  1.00  0.00     0.170 HD
ENDROOT
BRANCH   7  12
HETATM   12  C   UNL     1     -39.730 -49.736  11.339  1.00  0.00     0.149 C 
BRANCH  12  13
HETATM   13  C   UNL     1     -40.973 -50.500  11.762  1.00  0.00     0.222 C 
HETATM   14  O   UNL     1     -41.912 -49.908  12.295  1.00  0.00    -0.273 OA
HETATM   15  N   UNL     1     -40.982 -51.872  11.568  1.00  0.00    -0.360 N 
HETATM   16  H   UNL     1     -40.105 -52.330  11.322  1.00  0.00     0.162 HD
BRANCH  15  17
HETATM   17  C   UNL     1     -42.068 -52.624  12.172  1.00  0.00     0.129 C 
BRANCH  17  18
HETATM   18  C   UNL     1     -41.690 -53.855  12.988  1.00  0.00     0.029 C 
HETATM   19  C   UNL     1     -42.568 -54.147  14.191  1.00  0.00     0.034 C 
HETATM   20  C   UNL     1     -41.613 -54.686  15.247  1.00  0.00     0.168 C 
HETATM   21  O   UNL     1     -40.283 -54.585  14.726  1.00  0.00    -0.391 OA
HETATM   22  C   UNL     1     -40.323 -53.666  13.633  1.00  0.00     0.173 C 
ENDBRANCH  17  18
ENDBRANCH  15  17
ENDBRANCH  12  13
ENDBRANCH   7  12
TORSDOF 4
ENDMDL
MODEL 6
REMARK VINA RESULT:      -5.1      3.105      4.686
REMARK  4 active torsions:
REMARK  status: ('A' for Active; 'I' for Inactive)
REMARK    1  A    between atoms: C_7  and  C_8 
REMARK    2  A    between atoms: C_8  and  C_9 
REMARK       I    between atoms: C_9  and  N_11 
REMARK    3  A    between atoms: N_11  and  C_12 
REMARK    4  A    between atoms: C_12  and  C_13 
ROOT
HETATM    1  C   UNL     1     -45.290 -52.911  12.451  1.00  0.00     0.089 C 
HETATM    2  C   UNL     1     -43.895 -53.291  12.854  1.00  0.00     0.080 A 
HETATM    3  N   UNL     1     -43.693 -54.046  13.881  1.00  0.00    -0.349 N 
ATOM      4  HN  UNL     1     -44.475 -54.422  14.418  1.00  0.00     0.167 HD
HETATM    5  C   UNL     1     -42.390 -54.331  14.229  1.00  0.00     0.018 A 
HETATM    6  C   UNL     1     -42.274 -55.148  15.493  1.00  0.00     0.069 C 
HETATM    7  C   UNL     1     -41.319 -53.914  13.527  1.00  0.00     0.041 A 
HETATM    8  C   UNL     1     -41.587 -53.108  12.312  1.00  0.00     0.255 A 
HETATM    9  O   UNL     1     -40.684 -52.741  11.565  1.00  0.00    -0.268 OA
HETATM   10  N   UNL     1     -42.893 -52.796  12.082  1.00  0.00    -0.313 N 
HETATM   11  H   UNL     1     -43.085 -52.226  11.272  1.00  0.00     0.170 HD
ENDROOT
BRANCH   7  12
HETATM   12  C   UNL     1     -39.873 -54.073  13.885  1.00  0.00     0.149 C 
BRANCH  12  13
HETATM   13  C   UNL     1     -39.282 -52.851  14.567  1.00  0.00     0.222 C 
HETATM   14  O   UNL     1     -39.511 -52.636  15.758  1.00  0.00    -0.273 OA
HETATM   15  N   UNL     1     -38.530 -51.983  13.793  1.00  0.00    -0.360 N 
HETATM   16  H   UNL     1     -38.551 -52.097  12.781  1.00  0.00     0.162 HD
BRANCH  15  17
HETATM   17  C   UNL     1     -38.158 -50.710  14.388  1.00  0.00     0.129 C 
BRANCH  17  18
HETATM   18  C   UNL     1     -38.114 -49.498  13.464  1.00  0.00     0.029 C 
HETATM   19  C   UNL     1     -38.646 -48.202  14.048  1.00  0.00     0.034 C 
HETATM   20  C   UNL     1     -39.340 -47.509  12.884  1.00  0.00     0.168 C 
HETATM   21  O   UNL     1     -39.314 -48.401  11.764  1.00  0.00    -0.391 OA
HETATM   22  C   UNL     1     -39.035 -49.708  12.269  1.00  0.00     0.173 C 
ENDBRANCH  17  18
ENDBRANCH  15  17
ENDBRANCH  12  13
ENDBRANCH   7  12
TORSDOF 4
ENDMDL
MODEL 7
REMARK VINA RESULT:      -5.0      2.700      6.156
REMARK  4 active torsions:
REMARK  status: ('A' for Active; 'I' for Inactive)
REMARK    1  A    between atoms: C_7  and  C_8 
REMARK    2  A    between atoms: C_8  and  C_9 
REMARK       I    between atoms: C_9  and  N_11 
REMARK    3  A    between atoms: N_11  and  C_12 
REMARK    4  A    between atoms: C_12  and  C_13 
ROOT
HETATM    1  C   UNL     1     -38.586 -48.778  14.617  1.00  0.00     0.089 C 
HETATM    2  C   UNL     1     -39.182 -50.103  14.238  1.00  0.00     0.080 A 
HETATM    3  N   UNL     1     -38.959 -51.150  14.958  1.00  0.00    -0.349 N 
ATOM      4  HN  UNL     1     -38.400 -51.093  15.810  1.00  0.00     0.167 HD
HETATM    5  C   UNL     1     -39.499 -52.348  14.542  1.00  0.00     0.018 A 
HETATM    6  C   UNL     1     -39.100 -53.517  15.411  1.00  0.00     0.069 C 
HETATM    7  C   UNL     1     -40.292 -52.477  13.462  1.00  0.00     0.041 A 
HETATM    8  C   UNL     1     -40.588 -51.243  12.697  1.00  0.00     0.255 A 
HETATM    9  O   UNL     1     -41.358 -51.241  11.740  1.00  0.00    -0.268 OA
HETATM   10  N   UNL     1     -39.950 -50.115  13.118  1.00  0.00    -0.313 N 
HETATM   11  H   UNL     1     -40.124 -49.274  12.589  1.00  0.00     0.170 HD
ENDROOT
BRANCH   7  12
HETATM   12  C   UNL     1     -40.829 -53.744  12.868  1.00  0.00     0.149 C 
BRANCH  12  13
HETATM   13  C   UNL     1     -42.227 -54.091  13.351  1.00  0.00     0.222 C 
HETATM   14  O   UNL     1     -42.382 -54.721  14.398  1.00  0.00    -0.273 OA
HETATM   15  N   UNL     1     -43.294 -53.716  12.551  1.00  0.00    -0.360 N 
HETATM   16  H   UNL     1     -43.099 -53.391  11.606  1.00  0.00     0.162 HD
BRANCH  15  17
HETATM   17  C   UNL     1     -44.604 -54.241  12.898  1.00  0.00     0.129 C 
BRANCH  17  18
HETATM   18  C   UNL     1     -45.699 -53.227  13.208  1.00  0.00     0.029 C 
HETATM   19  C   UNL     1     -45.228 -51.817  13.514  1.00  0.00     0.034 C 
HETATM   20  C   UNL     1     -46.180 -51.315  14.590  1.00  0.00     0.168 C 
HETATM   21  O   UNL     1     -47.041 -52.400  14.954  1.00  0.00    -0.391 OA
HETATM   22  C   UNL     1     -46.425 -53.603  14.493  1.00  0.00     0.173 C 
ENDBRANCH  17  18
ENDBRANCH  15  17
ENDBRANCH  12  13
ENDBRANCH   7  12
TORSDOF 4
ENDMDL
MODEL 8
REMARK VINA RESULT:      -4.9     23.182     25.481
REMARK  4 active torsions:
REMARK  status: ('A' for Active; 'I' for Inactive)
REMARK    1  A    between atoms: C_7  and  C_8 
REMARK    2  A    between atoms: C_8  and  C_9 
REMARK       I    between atoms: C_9  and  N_11 
REMARK    3  A    between atoms: N_11  and  C_12 
REMARK    4  A    between atoms: C_12  and  C_13 
ROOT
HETATM    1  C   UNL     1     -28.180 -37.547  -0.424  1.00  0.00     0.089 C 
HETATM    2  C   UNL     1     -27.244 -38.704  -0.221  1.00  0.00     0.080 A 
HETATM    3  N   UNL     1     -27.254 -39.366   0.886  1.00  0.00    -0.349 N 
ATOM      4  HN  UNL     1     -27.913 -39.137   1.630  1.00  0.00     0.167 HD
HETATM    5  C   UNL     1     -26.345 -40.393   1.034  1.00  0.00     0.018 A 
HETATM    6  C   UNL     1     -26.390 -41.038   2.398  1.00  0.00     0.069 C 
HETATM    7  C   UNL     1     -25.491 -40.781   0.069  1.00  0.00     0.041 A 
HETATM    8  C   UNL     1     -25.554 -40.046  -1.217  1.00  0.00     0.255 A 
HETATM    9  O   UNL     1     -24.867 -40.369  -2.183  1.00  0.00    -0.268 OA
HETATM   10  N   UNL     1     -26.414 -38.991  -1.257  1.00  0.00    -0.313 N 
HETATM   11  H   UNL     1     -26.447 -38.468  -2.119  1.00  0.00     0.170 HD
ENDROOT
BRANCH   7  12
HETATM   12  C   UNL     1     -24.397 -41.801   0.172  1.00  0.00     0.149 C 
BRANCH  12  13
HETATM   13  C   UNL     1     -24.865 -43.217  -0.114  1.00  0.00     0.222 C 
HETATM   14  O   UNL     1     -24.787 -44.083   0.758  1.00  0.00    -0.273 OA
HETATM   15  N   UNL     1     -25.330 -43.496  -1.389  1.00  0.00    -0.360 N 
HETATM   16  H   UNL     1     -25.175 -42.804  -2.121  1.00  0.00     0.162 HD
BRANCH  15  17
HETATM   17  C   UNL     1     -25.564 -44.890  -1.724  1.00  0.00     0.129 C 
BRANCH  17  18
HETATM   18  C   UNL     1     -26.952 -45.259  -2.234  1.00  0.00     0.029 C 
HETATM   19  C   UNL     1     -28.081 -45.133  -1.228  1.00  0.00     0.034 C 
HETATM   20  C   UNL     1     -29.015 -46.292  -1.546  1.00  0.00     0.168 C 
HETATM   21  O   UNL     1     -28.397 -47.085  -2.566  1.00  0.00    -0.391 OA
HETATM   22  C   UNL     1     -27.012 -46.738  -2.592  1.00  0.00     0.173 C 
ENDBRANCH  17  18
ENDBRANCH  15  17
ENDBRANCH  12  13
ENDBRANCH   7  12
TORSDOF 4
ENDMDL
MODEL 9
REMARK VINA RESULT:      -4.7     23.389     24.767
REMARK  4 active torsions:
REMARK  status: ('A' for Active; 'I' for Inactive)
REMARK    1  A    between atoms: C_7  and  C_8 
REMARK    2  A    between atoms: C_8  and  C_9 
REMARK       I    between atoms: C_9  and  N_11 
REMARK    3  A    between atoms: N_11  and  C_12 
REMARK    4  A    between atoms: C_12  and  C_13 
ROOT
HETATM    1  C   UNL     1     -26.159 -41.058   2.725  1.00  0.00     0.089 C 
HETATM    2  C   UNL     1     -26.558 -40.872   1.290  1.00  0.00     0.080 A 
HETATM    3  N   UNL     1     -27.071 -39.756   0.893  1.00  0.00    -0.349 N 
ATOM      4  HN  UNL     1     -27.187 -38.973   1.537  1.00  0.00     0.167 HD
HETATM    5  C   UNL     1     -27.456 -39.654  -0.427  1.00  0.00     0.018 A 
HETATM    6  C   UNL     1     -28.121 -38.338  -0.754  1.00  0.00     0.069 C 
HETATM    7  C   UNL     1     -27.276 -40.628  -1.337  1.00  0.00     0.041 A 
HETATM    8  C   UNL     1     -26.619 -41.871  -0.867  1.00  0.00     0.255 A 
HETATM    9  O   UNL     1     -26.344 -42.790  -1.634  1.00  0.00    -0.268 OA
HETATM   10  N   UNL     1     -26.346 -41.931   0.467  1.00  0.00    -0.313 N 
HETATM   11  H   UNL     1     -25.922 -42.782   0.802  1.00  0.00     0.170 HD
ENDROOT
BRANCH   7  12
HETATM   12  C   UNL     1     -27.760 -40.656  -2.755  1.00  0.00     0.149 C 
BRANCH  12  13
HETATM   13  C   UNL     1     -29.044 -41.446  -2.939  1.00  0.00     0.222 C 
HETATM   14  O   UNL     1     -30.123 -40.962  -2.593  1.00  0.00    -0.273 OA
HETATM   15  N   UNL     1     -28.943 -42.726  -3.458  1.00  0.00    -0.360 N 
HETATM   16  H   UNL     1     -28.018 -43.148  -3.526  1.00  0.00     0.162 HD
BRANCH  15  17
HETATM   17  C   UNL     1     -30.136 -43.556  -3.423  1.00  0.00     0.129 C 
BRANCH  17  18
HETATM   18  C   UNL     1     -30.029 -44.896  -2.704  1.00  0.00     0.029 C 
HETATM   19  C   UNL     1     -28.959 -44.988  -1.632  1.00  0.00     0.034 C 
HETATM   20  C   UNL     1     -28.424 -46.409  -1.738  1.00  0.00     0.168 C 
HETATM   21  O   UNL     1     -29.052 -47.030  -2.866  1.00  0.00    -0.391 OA
HETATM   22  C   UNL     1     -29.597 -45.987  -3.675  1.00  0.00     0.173 C 
ENDBRANCH  17  18
ENDBRANCH  15  17
ENDBRANCH  12  13
ENDBRANCH   7  12
TORSDOF 4
ENDMDL
