MODEL 1
REMARK VINA RESULT:      -6.6      0.000      0.000
REMARK  3 active torsions:
REMARK  status: ('A' for Active; 'I' for Inactive)
REMARK       I    between atoms: C_2  and  N_3 
REMARK       I    between atoms: C_2  and  N_9 
REMARK    1  A    between atoms: N_3  and  C_4 
REMARK    2  A    between atoms: N_9  and  C_10 
REMARK    3  A    between atoms: C_16  and  N_17 
ROOT
HETATM    1  C   UNL     1     -39.521 -50.196  11.496  1.00  0.00     0.080 A 
HETATM    2  C   UNL     1     -38.192 -49.815  11.315  1.00  0.00     0.035 A 
HETATM    3  C   UNL     1     -37.222 -50.258  12.207  1.00  0.00     0.019 A 
HETATM    4  C   UNL     1     -37.620 -51.053  13.264  1.00  0.00     0.090 A 
HETATM    5  N   UNL     1     -38.885 -51.491  13.442  1.00  0.00    -0.351 N 
ATOM      6  HN  UNL     1     -39.125 -52.095  14.228  1.00  0.00     0.166 HD
HETATM    7  C   UNL     1     -39.826 -51.105  12.548  1.00  0.00     0.130 A 
ENDROOT
BRANCH   1   8
HETATM    8  N   UNL     1     -40.582 -49.679  10.706  1.00  0.00    -0.305 N 
HETATM    9  C   UNL     1     -41.439 -48.643  10.999  1.00  0.00     0.321 C 
HETATM   10  O   UNL     1     -41.449 -47.987  12.031  1.00  0.00    -0.247 OA
HETATM   11  N   UNL     1     -42.307 -48.386   9.954  1.00  0.00    -0.338 N 
HETATM   12  H   UNL     1     -42.053 -48.731   9.040  1.00  0.00     0.164 HD
HETATM   13  H   UNL     1     -40.728 -50.183   9.841  1.00  0.00     0.171 HD
BRANCH  11  14
HETATM   14  C   UNL     1     -43.248 -47.279  10.024  1.00  0.00     0.086 C 
HETATM   15  C   UNL     1     -44.717 -47.734  10.024  1.00  0.00     0.025 C 
HETATM   16  C   UNL     1     -45.464 -46.790   9.078  1.00  0.00     0.002 C 
HETATM   17  C   UNL     1     -44.507 -45.638   8.818  1.00  0.00     0.002 C 
HETATM   18  C   UNL     1     -43.142 -46.307   8.845  1.00  0.00     0.025 C 
ENDBRANCH  11  14
ENDBRANCH   1   8
BRANCH   7  19
HETATM   19  N   UNL     1     -41.096 -51.702  12.634  1.00  0.00    -0.361 N 
HETATM   20  C   UNL     1     -42.028 -51.178  13.650  1.00  0.00     0.150 C 
HETATM   21  C   UNL     1     -42.662 -52.258  14.533  1.00  0.00     0.187 C 
HETATM   22  O   UNL     1     -43.114 -53.369  13.752  1.00  0.00    -0.388 OA
HETATM   23  C   UNL     1     -41.975 -54.029  13.211  1.00  0.00     0.187 C 
HETATM   24  C   UNL     1     -41.132 -53.139  12.294  1.00  0.00     0.150 C 
ENDBRANCH   7  19
TORSDOF 3
ENDMDL
MODEL 2
REMARK VINA RESULT:      -5.9      2.066      5.738
REMARK  3 active torsions:
REMARK  status: ('A' for Active; 'I' for Inactive)
REMARK       I    between atoms: C_2  and  N_3 
REMARK       I    between atoms: C_2  and  N_9 
REMARK    1  A    between atoms: N_3  and  C_4 
REMARK    2  A    between atoms: N_9  and  C_10 
REMARK    3  A    between atoms: C_16  and  N_17 
ROOT
HETATM    1  C   UNL     1     -39.789 -50.583  12.876  1.00  0.00     0.080 A 
HETATM    2  C   UNL     1     -38.586 -51.268  13.047  1.00  0.00     0.035 A 
HETATM    3  C   UNL     1     -37.449 -50.838  12.372  1.00  0.00     0.019 A 
HETATM    4  C   UNL     1     -37.561 -49.747  11.532  1.00  0.00     0.090 A 
HETATM    5  N   UNL     1     -38.691 -49.023  11.383  1.00  0.00    -0.351 N 
ATOM      6  HN  UNL     1     -38.716 -48.212  10.765  1.00  0.00     0.166 HD
HETATM    7  C   UNL     1     -39.789 -49.405  12.076  1.00  0.00     0.130 A 
ENDROOT
BRANCH   1   8
HETATM    8  N   UNL     1     -41.017 -51.039  13.427  1.00  0.00    -0.305 N 
HETATM    9  C   UNL     1     -41.959 -51.859  12.851  1.00  0.00     0.321 C 
HETATM   10  O   UNL     1     -41.910 -52.331  11.724  1.00  0.00    -0.247 OA
HETATM   11  N   UNL     1     -42.997 -52.135  13.721  1.00  0.00    -0.338 N 
HETATM   12  H   UNL     1     -42.833 -51.987  14.706  1.00  0.00     0.164 HD
HETATM   13  H   UNL     1     -41.214 -50.663  14.345  1.00  0.00     0.171 HD
BRANCH  11  14
HETATM   14  C   UNL     1     -44.064 -53.046  13.340  1.00  0.00     0.086 C 
HETATM   15  C   UNL     1     -45.458 -52.558  13.768  1.00  0.00     0.025 C 
HETATM   16  C   UNL     1     -46.193 -53.778  14.331  1.00  0.00     0.002 C 
HETATM   17  C   UNL     1     -45.355 -54.978  13.921  1.00  0.00     0.002 C 
HETATM   18  C   UNL     1     -43.934 -54.439  13.962  1.00  0.00     0.025 C 
ENDBRANCH  11  14
ENDBRANCH   1   8
BRANCH   7  19
HETATM   19  N   UNL     1     -40.906 -48.551  12.057  1.00  0.00    -0.361 N 
HETATM   20  C   UNL     1     -41.729 -48.533  10.833  1.00  0.00     0.150 C 
HETATM   21  C   UNL     1     -42.011 -47.127  10.292  1.00  0.00     0.187 C 
HETATM   22  O   UNL     1     -42.392 -46.232  11.342  1.00  0.00    -0.388 OA
HETATM   23  C   UNL     1     -41.265 -46.027  12.186  1.00  0.00     0.187 C 
HETATM   24  C   UNL     1     -40.754 -47.310  12.844  1.00  0.00     0.150 C 
ENDBRANCH   7  19
TORSDOF 3
ENDMDL
MODEL 3
REMARK VINA RESULT:      -5.9      2.433      6.937
REMARK  3 active torsions:
REMARK  status: ('A' for Active; 'I' for Inactive)
REMARK       I    between atoms: C_2  and  N_3 
REMARK       I    between atoms: C_2  and  N_9 
REMARK    1  A    between atoms: N_3  and  C_4 
REMARK    2  A    between atoms: N_9  and  C_10 
REMARK    3  A    between atoms: C_16  and  N_17 
ROOT
HETATM    1  C   UNL     1     -42.502 -47.570  10.041  1.00  0.00     0.080 A 
HETATM    2  C   UNL     1     -43.409 -47.587   8.983  1.00  0.00     0.035 A 
HETATM    3  C   UNL     1     -44.106 -46.429   8.657  1.00  0.00     0.019 A 
HETATM    4  C   UNL     1     -43.885 -45.297   9.416  1.00  0.00     0.090 A 
HETATM    5  N   UNL     1     -42.975 -45.223  10.412  1.00  0.00    -0.351 N 
ATOM      6  HN  UNL     1     -42.834 -44.356  10.930  1.00  0.00     0.166 HD
HETATM    7  C   UNL     1     -42.255 -46.333  10.702  1.00  0.00     0.130 A 
ENDROOT
BRANCH   1   8
HETATM    8  N   UNL     1     -41.853 -48.742  10.515  1.00  0.00    -0.305 N 
HETATM    9  C   UNL     1     -42.163 -49.502  11.618  1.00  0.00     0.321 C 
HETATM   10  O   UNL     1     -43.062 -49.281  12.417  1.00  0.00    -0.247 OA
HETATM   11  N   UNL     1     -41.341 -50.610  11.723  1.00  0.00    -0.338 N 
HETATM   12  H   UNL     1     -40.846 -50.904  10.894  1.00  0.00     0.164 HD
HETATM   13  H   UNL     1     -41.038 -49.001   9.975  1.00  0.00     0.171 HD
BRANCH  11  14
HETATM   14  C   UNL     1     -41.546 -51.591  12.776  1.00  0.00     0.086 C 
HETATM   15  C   UNL     1     -40.272 -52.376  13.128  1.00  0.00     0.025 C 
HETATM   16  C   UNL     1     -40.690 -53.841  13.278  1.00  0.00     0.002 C 
HETATM   17  C   UNL     1     -42.209 -53.823  13.337  1.00  0.00     0.002 C 
HETATM   18  C   UNL     1     -42.578 -52.665  12.422  1.00  0.00     0.025 C 
ENDBRANCH  11  14
ENDBRANCH   1   8
BRANCH   7  19
HETATM   19  N   UNL     1     -41.191 -46.205  11.612  1.00  0.00    -0.361 N 
HETATM   20  C   UNL     1     -41.528 -46.115  13.045  1.00  0.00     0.150 C 
HETATM   21  C   UNL     1     -40.857 -44.945  13.772  1.00  0.00     0.187 C 
HETATM   22  O   UNL     1     -39.472 -44.842  13.424  1.00  0.00    -0.388 OA
HETATM   23  C   UNL     1     -39.382 -44.460  12.057  1.00  0.00     0.187 C 
HETATM   24  C   UNL     1     -40.018 -45.468  11.098  1.00  0.00     0.150 C 
ENDBRANCH   7  19
TORSDOF 3
ENDMDL
MODEL 4
REMARK VINA RESULT:      -5.8      2.547      5.407
REMARK  3 active torsions:
REMARK  status: ('A' for Active; 'I' for Inactive)
REMARK       I    between atoms: C_2  and  N_3 
REMARK       I    between atoms: C_2  and  N_9 
REMARK    1  A    between atoms: N_3  and  C_4 
REMARK    2  A    between atoms: N_9  and  C_10 
REMARK    3  A    between atoms: C_16  and  N_17 
ROOT
HETATM    1  C   UNL     1     -41.836 -48.525  11.343  1.00  0.00     0.080 A 
HETATM    2  C   UNL     1     -42.387 -47.514  10.557  1.00  0.00     0.035 A 
HETATM    3  C   UNL     1     -41.649 -46.363  10.304  1.00  0.00     0.019 A 
HETATM    4  C   UNL     1     -40.391 -46.255  10.864  1.00  0.00     0.090 A 
HETATM    5  N   UNL     1     -39.801 -47.235  11.582  1.00  0.00    -0.351 N 
ATOM      6  HN  UNL     1     -38.859 -47.115  11.957  1.00  0.00     0.166 HD
HETATM    7  C   UNL     1     -40.493 -48.380  11.790  1.00  0.00     0.130 A 
ENDROOT
BRANCH   1   8
HETATM    8  N   UNL     1     -42.576 -49.668  11.752  1.00  0.00    -0.305 N 
HETATM    9  C   UNL     1     -43.261 -49.865  12.928  1.00  0.00     0.321 C 
HETATM   10  O   UNL     1     -43.333 -49.078  13.861  1.00  0.00    -0.247 OA
HETATM   11  N   UNL     1     -43.914 -51.084  12.940  1.00  0.00    -0.338 N 
HETATM   12  H   UNL     1     -44.077 -51.536  12.053  1.00  0.00     0.164 HD
HETATM   13  H   UNL     1     -42.541 -50.432  11.090  1.00  0.00     0.171 HD
BRANCH  11  14
HETATM   14  C   UNL     1     -44.761 -51.462  14.060  1.00  0.00     0.086 C 
HETATM   15  C   UNL     1     -44.531 -52.906  14.533  1.00  0.00     0.025 C 
HETATM   16  C   UNL     1     -45.916 -53.510  14.783  1.00  0.00     0.002 C 
HETATM   17  C   UNL     1     -46.877 -52.332  14.770  1.00  0.00     0.002 C 
HETATM   18  C   UNL     1     -46.259 -51.390  13.748  1.00  0.00     0.025 C 
ENDBRANCH  11  14
ENDBRANCH   1   8
BRANCH   7  19
HETATM   19  N   UNL     1     -39.812 -49.459  12.382  1.00  0.00    -0.361 N 
HETATM   20  C   UNL     1     -39.553 -49.388  13.832  1.00  0.00     0.150 C 
HETATM   21  C   UNL     1     -38.098 -49.671  14.220  1.00  0.00     0.187 C 
HETATM   22  O   UNL     1     -37.587 -50.814  13.526  1.00  0.00    -0.388 OA
HETATM   23  C   UNL     1     -37.490 -50.492  12.144  1.00  0.00     0.187 C 
HETATM   24  C   UNL     1     -38.833 -50.133  11.505  1.00  0.00     0.150 C 
ENDBRANCH   7  19
TORSDOF 3
ENDMDL
MODEL 5
REMARK VINA RESULT:      -5.8      2.558      3.692
REMARK  3 active torsions:
REMARK  status: ('A' for Active; 'I' for Inactive)
REMARK       I    between atoms: C_2  and  N_3 
REMARK       I    between atoms: C_2  and  N_9 
REMARK    1  A    between atoms: N_3  and  C_4 
REMARK    2  A    between atoms: N_9  and  C_10 
REMARK    3  A    between atoms: C_16  and  N_17 
ROOT
HETATM    1  C   UNL     1     -42.083 -52.350  12.680  1.00  0.00     0.080 A 
HETATM    2  C   UNL     1     -40.954 -53.156  12.538  1.00  0.00     0.035 A 
HETATM    3  C   UNL     1     -40.760 -54.226  13.405  1.00  0.00     0.019 A 
HETATM    4  C   UNL     1     -41.696 -54.440  14.399  1.00  0.00     0.090 A 
HETATM    5  N   UNL     1     -42.830 -53.719  14.533  1.00  0.00    -0.351 N 
ATOM      6  HN  UNL     1     -43.501 -53.931  15.272  1.00  0.00     0.166 HD
HETATM    7  C   UNL     1     -43.050 -52.707  13.661  1.00  0.00     0.130 A 
ENDROOT
BRANCH   1   8
HETATM    8  N   UNL     1     -42.281 -51.167  11.918  1.00  0.00    -0.305 N 
HETATM    9  C   UNL     1     -42.043 -49.864  12.289  1.00  0.00     0.321 C 
HETATM   10  O   UNL     1     -41.631 -49.488  13.378  1.00  0.00    -0.247 OA
HETATM   11  N   UNL     1     -42.299 -48.983  11.254  1.00  0.00    -0.338 N 
HETATM   12  H   UNL     1     -42.328 -49.359  10.318  1.00  0.00     0.164 HD
HETATM   13  H   UNL     1     -42.688 -51.333  11.008  1.00  0.00     0.171 HD
BRANCH  11  14
HETATM   14  C   UNL     1     -42.040 -47.561  11.408  1.00  0.00     0.086 C 
HETATM   15  C   UNL     1     -43.036 -46.678  10.637  1.00  0.00     0.025 C 
HETATM   16  C   UNL     1     -42.212 -45.574   9.968  1.00  0.00     0.002 C 
HETATM   17  C   UNL     1     -40.840 -45.644  10.618  1.00  0.00     0.002 C 
HETATM   18  C   UNL     1     -40.663 -47.128  10.896  1.00  0.00     0.025 C 
ENDBRANCH  11  14
ENDBRANCH   1   8
BRANCH   7  19
HETATM   19  N   UNL     1     -44.307 -52.077  13.692  1.00  0.00    -0.361 N 
HETATM   20  C   UNL     1     -44.528 -51.049  14.726  1.00  0.00     0.150 C 
HETATM   21  C   UNL     1     -45.818 -51.240  15.531  1.00  0.00     0.187 C 
HETATM   22  O   UNL     1     -46.924 -51.546  14.675  1.00  0.00    -0.388 OA
HETATM   23  C   UNL     1     -46.709 -52.834  14.109  1.00  0.00     0.187 C 
HETATM   24  C   UNL     1     -45.439 -52.924  13.262  1.00  0.00     0.150 C 
ENDBRANCH   7  19
TORSDOF 3
ENDMDL
MODEL 6
REMARK VINA RESULT:      -5.6      1.998      3.657
REMARK  3 active torsions:
REMARK  status: ('A' for Active; 'I' for Inactive)
REMARK       I    between atoms: C_2  and  N_3 
REMARK       I    between atoms: C_2  and  N_9 
REMARK    1  A    between atoms: N_3  and  C_4 
REMARK    2  A    between atoms: N_9  and  C_10 
REMARK    3  A    between atoms: C_16  and  N_17 
ROOT
HETATM    1  C   UNL     1     -40.485 -51.937  12.418  1.00  0.00     0.080 A 
HETATM    2  C   UNL     1     -41.092 -53.181  12.251  1.00  0.00     0.035 A 
HETATM    3  C   UNL     1     -40.700 -54.249  13.050  1.00  0.00     0.019 A 
HETATM    4  C   UNL     1     -39.699 -54.039  13.978  1.00  0.00     0.090 A 
HETATM    5  N   UNL     1     -39.128 -52.837  14.211  1.00  0.00    -0.351 N 
ATOM      6  HN  UNL     1     -38.406 -52.729  14.924  1.00  0.00     0.166 HD
HETATM    7  C   UNL     1     -39.539 -51.781  13.471  1.00  0.00     0.130 A 
ENDROOT
BRANCH   1   8
HETATM    8  N   UNL     1     -40.738 -50.837  11.554  1.00  0.00    -0.305 N 
HETATM    9  C   UNL     1     -41.709 -49.869  11.667  1.00  0.00     0.321 C 
HETATM   10  O   UNL     1     -42.560 -49.800  12.543  1.00  0.00    -0.247 OA
HETATM   11  N   UNL     1     -41.604 -48.921  10.666  1.00  0.00    -0.338 N 
HETATM   12  H   UNL     1     -40.723 -48.852  10.178  1.00  0.00     0.164 HD
HETATM   13  H   UNL     1     -40.138 -50.813  10.741  1.00  0.00     0.171 HD
BRANCH  11  14
HETATM   14  C   UNL     1     -42.486 -47.765  10.641  1.00  0.00     0.086 C 
HETATM   15  C   UNL     1     -43.296 -47.650   9.340  1.00  0.00     0.025 C 
HETATM   16  C   UNL     1     -43.257 -46.175   8.931  1.00  0.00     0.002 C 
HETATM   17  C   UNL     1     -42.723 -45.434  10.146  1.00  0.00     0.002 C 
HETATM   18  C   UNL     1     -41.749 -46.427  10.758  1.00  0.00     0.025 C 
ENDBRANCH  11  14
ENDBRANCH   1   8
BRANCH   7  19
HETATM   19  N   UNL     1     -39.074 -50.505  13.834  1.00  0.00    -0.361 N 
HETATM   20  C   UNL     1     -37.620 -50.266  13.768  1.00  0.00     0.150 C 
HETATM   21  C   UNL     1     -37.030 -49.648  15.040  1.00  0.00     0.187 C 
HETATM   22  O   UNL     1     -37.842 -48.571  15.520  1.00  0.00    -0.388 OA
HETATM   23  C   UNL     1     -39.078 -49.110  15.973  1.00  0.00     0.187 C 
HETATM   24  C   UNL     1     -39.871 -49.825  14.876  1.00  0.00     0.150 C 
ENDBRANCH   7  19
TORSDOF 3
ENDMDL
MODEL 7
REMARK VINA RESULT:      -5.6      2.603      4.679
REMARK  3 active torsions:
REMARK  status: ('A' for Active; 'I' for Inactive)
REMARK       I    between atoms: C_2  and  N_3 
REMARK       I    between atoms: C_2  and  N_9 
REMARK    1  A    between atoms: N_3  and  C_4 
REMARK    2  A    between atoms: N_9  and  C_10 
REMARK    3  A    between atoms: C_16  and  N_17 
ROOT
HETATM    1  C   UNL     1     -43.589 -52.791  13.016  1.00  0.00     0.080 A 
HETATM    2  C   UNL     1     -44.958 -53.047  12.958  1.00  0.00     0.035 A 
HETATM    3  C   UNL     1     -45.476 -54.161  13.608  1.00  0.00     0.019 A 
HETATM    4  C   UNL     1     -44.601 -54.994  14.278  1.00  0.00     0.090 A 
HETATM    5  N   UNL     1     -43.279 -54.750  14.405  1.00  0.00    -0.351 N 
ATOM      6  HN  UNL     1     -42.677 -55.386  14.929  1.00  0.00     0.166 HD
HETATM    7  C   UNL     1     -42.775 -53.639  13.818  1.00  0.00     0.130 A 
ENDROOT
BRANCH   1   8
HETATM    8  N   UNL     1     -42.971 -51.749  12.272  1.00  0.00    -0.305 N 
HETATM    9  C   UNL     1     -42.855 -50.419  12.600  1.00  0.00     0.321 C 
HETATM   10  O   UNL     1     -43.298 -49.883  13.607  1.00  0.00    -0.247 OA
HETATM   11  N   UNL     1     -42.130 -49.720  11.653  1.00  0.00    -0.338 N 
HETATM   12  H   UNL     1     -41.539 -50.252  11.031  1.00  0.00     0.164 HD
HETATM   13  H   UNL     1     -42.617 -52.048  11.373  1.00  0.00     0.171 HD
BRANCH  11  14
HETATM   14  C   UNL     1     -41.823 -48.311  11.842  1.00  0.00     0.086 C 
HETATM   15  C   UNL     1     -42.727 -47.379  11.019  1.00  0.00     0.025 C 
HETATM   16  C   UNL     1     -41.815 -46.304  10.421  1.00  0.00     0.002 C 
HETATM   17  C   UNL     1     -40.494 -46.439  11.161  1.00  0.00     0.002 C 
HETATM   18  C   UNL     1     -40.397 -47.932  11.429  1.00  0.00     0.025 C 
ENDBRANCH  11  14
ENDBRANCH   1   8
BRANCH   7  19
HETATM   19  N   UNL     1     -41.441 -53.296  14.100  1.00  0.00    -0.361 N 
HETATM   20  C   UNL     1     -40.381 -54.059  13.413  1.00  0.00     0.150 C 
HETATM   21  C   UNL     1     -39.296 -54.602  14.348  1.00  0.00     0.187 C 
HETATM   22  O   UNL     1     -38.873 -53.608  15.287  1.00  0.00    -0.388 OA
HETATM   23  C   UNL     1     -39.953 -53.341  16.174  1.00  0.00     0.187 C 
HETATM   24  C   UNL     1     -41.201 -52.804  15.472  1.00  0.00     0.150 C 
ENDBRANCH   7  19
TORSDOF 3
ENDMDL
MODEL 8
REMARK VINA RESULT:      -5.5      2.167      2.598
REMARK  3 active torsions:
REMARK  status: ('A' for Active; 'I' for Inactive)
REMARK       I    between atoms: C_2  and  N_3 
REMARK       I    between atoms: C_2  and  N_9 
REMARK    1  A    between atoms: N_3  and  C_4 
REMARK    2  A    between atoms: N_9  and  C_10 
REMARK    3  A    between atoms: C_16  and  N_17 
ROOT
HETATM    1  C   UNL     1     -39.361 -49.895  11.843  1.00  0.00     0.080 A 
HETATM    2  C   UNL     1     -37.971 -49.981  11.900  1.00  0.00     0.035 A 
HETATM    3  C   UNL     1     -37.373 -50.865  12.790  1.00  0.00     0.019 A 
HETATM    4  C   UNL     1     -38.189 -51.620  13.610  1.00  0.00     0.090 A 
HETATM    5  N   UNL     1     -39.538 -51.608  13.546  1.00  0.00    -0.351 N 
ATOM      6  HN  UNL     1     -40.097 -52.202  14.160  1.00  0.00     0.166 HD
HETATM    7  C   UNL     1     -40.128 -50.787  12.646  1.00  0.00     0.130 A 
ENDROOT
BRANCH   1   8
HETATM    8  N   UNL     1     -40.039 -48.926  11.056  1.00  0.00    -0.305 N 
HETATM    9  C   UNL     1     -40.282 -47.604  11.351  1.00  0.00     0.321 C 
HETATM   10  O   UNL     1     -39.967 -47.027  12.383  1.00  0.00    -0.247 OA
HETATM   11  N   UNL     1     -40.918 -46.956  10.308  1.00  0.00    -0.338 N 
HETATM   12  H   UNL     1     -40.867 -47.381   9.394  1.00  0.00     0.164 HD
HETATM   13  H   UNL     1     -40.415 -49.295  10.193  1.00  0.00     0.171 HD
BRANCH  11  14
HETATM   14  C   UNL     1     -41.200 -45.531  10.381  1.00  0.00     0.086 C 
HETATM   15  C   UNL     1     -39.934 -44.670  10.514  1.00  0.00     0.025 C 
HETATM   16  C   UNL     1     -40.241 -43.604  11.570  1.00  0.00     0.002 C 
HETATM   17  C   UNL     1     -41.745 -43.663  11.777  1.00  0.00     0.002 C 
HETATM   18  C   UNL     1     -42.065 -45.137  11.582  1.00  0.00     0.025 C 
ENDBRANCH  11  14
ENDBRANCH   1   8
BRANCH   7  19
HETATM   19  N   UNL     1     -41.516 -50.907  12.460  1.00  0.00    -0.361 N 
HETATM   20  C   UNL     1     -42.392 -50.091  13.322  1.00  0.00     0.150 C 
HETATM   21  C   UNL     1     -43.513 -50.883  14.002  1.00  0.00     0.187 C 
HETATM   22  O   UNL     1     -44.156 -51.770  13.080  1.00  0.00    -0.388 OA
HETATM   23  C   UNL     1     -43.228 -52.784  12.713  1.00  0.00     0.187 C 
HETATM   24  C   UNL     1     -41.973 -52.243  12.025  1.00  0.00     0.150 C 
ENDBRANCH   7  19
TORSDOF 3
ENDMDL
MODEL 9
REMARK VINA RESULT:      -5.4      3.501      4.778
REMARK  3 active torsions:
REMARK  status: ('A' for Active; 'I' for Inactive)
REMARK       I    between atoms: C_2  and  N_3 
REMARK       I    between atoms: C_2  and  N_9 
REMARK    1  A    between atoms: N_3  and  C_4 
REMARK    2  A    between atoms: N_9  and  C_10 
REMARK    3  A    between atoms: C_16  and  N_17 
ROOT
HETATM    1  C   UNL     1     -40.105 -50.741  12.856  1.00  0.00     0.080 A 
HETATM    2  C   UNL     1     -39.667 -49.973  11.778  1.00  0.00     0.035 A 
HETATM    3  C   UNL     1     -38.312 -49.931  11.471  1.00  0.00     0.019 A 
HETATM    4  C   UNL     1     -37.438 -50.645  12.267  1.00  0.00     0.090 A 
HETATM    5  N   UNL     1     -37.827 -51.445  13.283  1.00  0.00    -0.351 N 
ATOM      6  HN  UNL     1     -37.144 -51.969  13.829  1.00  0.00     0.166 HD
HETATM    7  C   UNL     1     -39.151 -51.531  13.557  1.00  0.00     0.130 A 
ENDROOT
BRANCH   1   8
HETATM    8  N   UNL     1     -41.452 -50.730  13.309  1.00  0.00    -0.305 N 
HETATM    9  C   UNL     1     -42.480 -51.572  12.953  1.00  0.00     0.321 C 
HETATM   10  O   UNL     1     -42.414 -52.486  12.143  1.00  0.00    -0.247 OA
HETATM   11  N   UNL     1     -43.638 -51.290  13.654  1.00  0.00    -0.338 N 
HETATM   12  H   UNL     1     -43.550 -50.757  14.506  1.00  0.00     0.164 HD
HETATM   13  H   UNL     1     -41.661 -49.970  13.943  1.00  0.00     0.171 HD
BRANCH  11  14
HETATM   14  C   UNL     1     -44.827 -52.111  13.485  1.00  0.00     0.086 C 
HETATM   15  C   UNL     1     -46.122 -51.389  13.890  1.00  0.00     0.025 C 
HETATM   16  C   UNL     1     -46.953 -52.398  14.688  1.00  0.00     0.002 C 
HETATM   17  C   UNL     1     -46.288 -53.745  14.450  1.00  0.00     0.002 C 
HETATM   18  C   UNL     1     -44.815 -53.389  14.330  1.00  0.00     0.025 C 
ENDBRANCH  11  14
ENDBRANCH   1   8
BRANCH   7  19
HETATM   19  N   UNL     1     -39.565 -52.495  14.492  1.00  0.00    -0.361 N 
HETATM   20  C   UNL     1     -39.296 -52.223  15.916  1.00  0.00     0.150 C 
HETATM   21  C   UNL     1     -38.616 -53.380  16.656  1.00  0.00     0.187 C 
HETATM   22  O   UNL     1     -39.233 -54.632  16.342  1.00  0.00    -0.388 OA
HETATM   23  C   UNL     1     -38.971 -54.931  14.976  1.00  0.00     0.187 C 
HETATM   24  C   UNL     1     -39.532 -53.890  14.005  1.00  0.00     0.150 C 
ENDBRANCH   7  19
TORSDOF 3
ENDMDL
