MODEL 1
REMARK VINA RESULT:      -6.2      0.000      0.000
REMARK  6 active torsions:
REMARK  status: ('A' for Active; 'I' for Inactive)
REMARK    1  A    between atoms: C_2  and  N_3 
REMARK    2  A    between atoms: C_7  and  C_8 
REMARK    3  A    between atoms: C_8  and  N_9 
REMARK       I    between atoms: N_9  and  C_10 
REMARK    4  A    between atoms: C_10  and  C_12 
REMARK    5  A    between atoms: C_12  and  C_13 
REMARK    6  A    between atoms: C_16  and  C_19 
ROOT
HETATM    1  N   UNL     1     -41.971 -51.427  11.737  1.00  0.00    -0.359 N 
HETATM    2  C   UNL     1     -40.624 -51.157  11.839  1.00  0.00     0.223 C 
HETATM    3  O   UNL     1     -39.847 -51.866  12.475  1.00  0.00    -0.273 OA
HETATM    4  H   UNL     1     -42.565 -50.804  11.206  1.00  0.00     0.162 HD
ENDROOT
BRANCH   2   5
HETATM    5  C   UNL     1     -40.180 -49.886  11.130  1.00  0.00     0.160 C 
BRANCH   5   6
HETATM    6  C   UNL     1     -41.250 -48.846  11.069  1.00  0.00     0.025 A 
HETATM    7  C   UNL     1     -41.784 -48.139  12.130  1.00  0.00     0.077 A 
HETATM    8  S   UNL     1     -43.049 -47.120  11.592  1.00  0.00    -0.086 SA
HETATM    9  C   UNL     1     -42.823 -47.701   9.988  1.00  0.00     0.054 A 
HETATM   10  N   UNL     1     -41.851 -48.581   9.843  1.00  0.00    -0.356 N 
ATOM     11  HN  UNL     1     -41.579 -49.007   8.957  1.00  0.00     0.166 HD
BRANCH   9  12
HETATM   12  C   UNL     1     -43.721 -47.223   8.875  1.00  0.00     0.035 C 
HETATM   13  C   UNL     1     -43.407 -47.953   7.569  1.00  0.00     0.016 C 
HETATM   14  C   UNL     1     -45.191 -47.408   9.257  1.00  0.00     0.016 C 
ENDBRANCH   9  12
ENDBRANCH   5   6
ENDBRANCH   2   5
BRANCH   1  15
HETATM   15  C   UNL     1     -42.592 -52.566  12.399  1.00  0.00     0.158 C 
BRANCH  15  16
HETATM   16  C   UNL     1     -43.267 -52.203  13.748  1.00  0.00     0.240 C 
HETATM   17  N   UNL     1     -44.403 -53.052  14.163  1.00  0.00     0.094 N 
HETATM   18  C   UNL     1     -45.597 -52.579  13.458  1.00  0.00     0.273 C 
HETATM   19  C   UNL     1     -45.335 -51.110  13.154  1.00  0.00     0.032 C 
HETATM   20  C   UNL     1     -43.947 -50.832  13.709  1.00  0.00     0.039 C 
BRANCH  17  21
HETATM   21  C   UNL     1     -44.170 -54.492  14.046  1.00  0.00     0.268 C 
HETATM   22  C   UNL     1     -45.452 -55.284  13.818  1.00  0.00     0.037 C 
ENDBRANCH  17  21
ENDBRANCH  15  16
ENDBRANCH   1  15
TORSDOF 6
ENDMDL
MODEL 2
REMARK VINA RESULT:      -6.2      1.000      1.881
REMARK  6 active torsions:
REMARK  status: ('A' for Active; 'I' for Inactive)
REMARK    1  A    between atoms: C_2  and  N_3 
REMARK    2  A    between atoms: C_7  and  C_8 
REMARK    3  A    between atoms: C_8  and  N_9 
REMARK       I    between atoms: N_9  and  C_10 
REMARK    4  A    between atoms: C_10  and  C_12 
REMARK    5  A    between atoms: C_12  and  C_13 
REMARK    6  A    between atoms: C_16  and  C_19 
ROOT
HETATM    1  N   UNL     1     -42.349 -50.946  12.099  1.00  0.00    -0.359 N 
HETATM    2  C   UNL     1     -41.054 -50.546  12.350  1.00  0.00     0.223 C 
HETATM    3  O   UNL     1     -40.479 -50.774  13.412  1.00  0.00    -0.273 OA
HETATM    4  H   UNL     1     -42.775 -50.723  11.209  1.00  0.00     0.162 HD
ENDROOT
BRANCH   2   5
HETATM    5  C   UNL     1     -40.406 -49.764  11.218  1.00  0.00     0.160 C 
BRANCH   5   6
HETATM    6  C   UNL     1     -41.148 -48.517  10.868  1.00  0.00     0.025 A 
HETATM    7  C   UNL     1     -41.190 -47.341  11.595  1.00  0.00     0.077 A 
HETATM    8  S   UNL     1     -42.243 -46.217  10.850  1.00  0.00    -0.086 SA
HETATM    9  C   UNL     1     -42.594 -47.371   9.623  1.00  0.00     0.054 A 
HETATM   10  N   UNL     1     -41.953 -48.519   9.734  1.00  0.00    -0.356 N 
ATOM     11  HN  UNL     1     -42.037 -49.297   9.080  1.00  0.00     0.166 HD
BRANCH   9  12
HETATM   12  C   UNL     1     -43.592 -47.046   8.539  1.00  0.00     0.035 C 
HETATM   13  C   UNL     1     -43.502 -48.055   7.396  1.00  0.00     0.016 C 
HETATM   14  C   UNL     1     -45.009 -47.005   9.114  1.00  0.00     0.016 C 
ENDBRANCH   9  12
ENDBRANCH   5   6
ENDBRANCH   2   5
BRANCH   1  15
HETATM   15  C   UNL     1     -43.154 -51.653  13.085  1.00  0.00     0.158 C 
BRANCH  15  16
HETATM   16  C   UNL     1     -43.780 -52.966  12.544  1.00  0.00     0.240 C 
HETATM   17  N   UNL     1     -45.187 -53.224  12.916  1.00  0.00     0.094 N 
HETATM   18  C   UNL     1     -45.195 -53.797  14.264  1.00  0.00     0.273 C 
HETATM   19  C   UNL     1     -43.839 -54.470  14.429  1.00  0.00     0.032 C 
HETATM   20  C   UNL     1     -43.107 -54.214  13.121  1.00  0.00     0.039 C 
BRANCH  17  21
HETATM   21  C   UNL     1     -46.088 -52.085  12.744  1.00  0.00     0.268 C 
HETATM   22  C   UNL     1     -46.603 -51.530  14.067  1.00  0.00     0.037 C 
ENDBRANCH  17  21
ENDBRANCH  15  16
ENDBRANCH   1  15
TORSDOF 6
ENDMDL
MODEL 3
REMARK VINA RESULT:      -6.0      2.560      6.421
REMARK  6 active torsions:
REMARK  status: ('A' for Active; 'I' for Inactive)
REMARK    1  A    between atoms: C_2  and  N_3 
REMARK    2  A    between atoms: C_7  and  C_8 
REMARK    3  A    between atoms: C_8  and  N_9 
REMARK       I    between atoms: N_9  and  C_10 
REMARK    4  A    between atoms: C_10  and  C_12 
REMARK    5  A    between atoms: C_12  and  C_13 
REMARK    6  A    between atoms: C_16  and  C_19 
ROOT
HETATM    1  N   UNL     1     -40.921 -50.079  11.166  1.00  0.00    -0.359 N 
HETATM    2  C   UNL     1     -41.399 -50.817  12.227  1.00  0.00     0.223 C 
HETATM    3  O   UNL     1     -41.592 -50.335  13.342  1.00  0.00    -0.273 OA
HETATM    4  H   UNL     1     -40.774 -50.530  10.273  1.00  0.00     0.162 HD
ENDROOT
BRANCH   2   5
HETATM    5  C   UNL     1     -41.632 -52.288  11.919  1.00  0.00     0.160 C 
BRANCH   5   6
HETATM    6  C   UNL     1     -42.835 -52.846  12.604  1.00  0.00     0.025 A 
HETATM    7  C   UNL     1     -42.929 -54.057  13.265  1.00  0.00     0.077 A 
HETATM    8  S   UNL     1     -44.528 -54.315  13.815  1.00  0.00    -0.086 SA
HETATM    9  C   UNL     1     -45.000 -52.813  13.120  1.00  0.00     0.054 A 
HETATM   10  N   UNL     1     -44.030 -52.138  12.533  1.00  0.00    -0.356 N 
ATOM     11  HN  UNL     1     -44.141 -51.226  12.090  1.00  0.00     0.166 HD
BRANCH   9  12
HETATM   12  C   UNL     1     -46.439 -52.367  13.184  1.00  0.00     0.035 C 
HETATM   13  C   UNL     1     -46.658 -51.399  14.347  1.00  0.00     0.016 C 
HETATM   14  C   UNL     1     -46.858 -51.723  11.861  1.00  0.00     0.016 C 
ENDBRANCH   9  12
ENDBRANCH   5   6
ENDBRANCH   2   5
BRANCH   1  15
HETATM   15  C   UNL     1     -40.581 -48.668  11.284  1.00  0.00     0.158 C 
BRANCH  15  16
HETATM   16  C   UNL     1     -41.586 -47.729  10.565  1.00  0.00     0.240 C 
HETATM   17  N   UNL     1     -41.387 -46.279  10.768  1.00  0.00     0.094 N 
HETATM   18  C   UNL     1     -41.996 -45.918  12.051  1.00  0.00     0.273 C 
HETATM   19  C   UNL     1     -43.084 -46.956  12.291  1.00  0.00     0.032 C 
HETATM   20  C   UNL     1     -43.013 -47.890  11.093  1.00  0.00     0.039 C 
BRANCH  17  21
HETATM   21  C   UNL     1     -40.008 -45.818  10.608  1.00  0.00     0.268 C 
HETATM   22  C   UNL     1     -39.645 -44.689  11.566  1.00  0.00     0.037 C 
ENDBRANCH  17  21
ENDBRANCH  15  16
ENDBRANCH   1  15
TORSDOF 6
ENDMDL
MODEL 4
REMARK VINA RESULT:      -6.0      2.375      6.147
REMARK  6 active torsions:
REMARK  status: ('A' for Active; 'I' for Inactive)
REMARK    1  A    between atoms: C_2  and  N_3 
REMARK    2  A    between atoms: C_7  and  C_8 
REMARK    3  A    between atoms: C_8  and  N_9 
REMARK       I    between atoms: N_9  and  C_10 
REMARK    4  A    between atoms: C_10  and  C_12 
REMARK    5  A    between atoms: C_12  and  C_13 
REMARK    6  A    between atoms: C_16  and  C_19 
ROOT
HETATM    1  N   UNL     1     -41.648 -49.728  11.037  1.00  0.00    -0.359 N 
HETATM    2  C   UNL     1     -41.560 -50.493  12.181  1.00  0.00     0.223 C 
HETATM    3  O   UNL     1     -41.415 -50.004  13.301  1.00  0.00    -0.273 OA
HETATM    4  H   UNL     1     -41.758 -50.185  10.142  1.00  0.00     0.162 HD
ENDROOT
BRANCH   2   5
HETATM    5  C   UNL     1     -41.619 -51.993  11.943  1.00  0.00     0.160 C 
BRANCH   5   6
HETATM    6  C   UNL     1     -42.805 -52.641  12.577  1.00  0.00     0.025 A 
HETATM    7  C   UNL     1     -42.861 -53.899  13.148  1.00  0.00     0.077 A 
HETATM    8  S   UNL     1     -44.453 -54.250  13.665  1.00  0.00    -0.086 SA
HETATM    9  C   UNL     1     -44.973 -52.719  13.076  1.00  0.00     0.054 A 
HETATM   10  N   UNL     1     -44.023 -51.970  12.548  1.00  0.00    -0.356 N 
ATOM     11  HN  UNL     1     -44.163 -51.033  12.171  1.00  0.00     0.166 HD
BRANCH   9  12
HETATM   12  C   UNL     1     -46.427 -52.327  13.161  1.00  0.00     0.035 C 
HETATM   13  C   UNL     1     -46.674 -51.403  14.353  1.00  0.00     0.016 C 
HETATM   14  C   UNL     1     -46.877 -51.661  11.860  1.00  0.00     0.016 C 
ENDBRANCH   9  12
ENDBRANCH   5   6
ENDBRANCH   2   5
BRANCH   1  15
HETATM   15  C   UNL     1     -41.551 -48.276  11.058  1.00  0.00     0.158 C 
BRANCH  15  16
HETATM   16  C   UNL     1     -42.913 -47.570  11.291  1.00  0.00     0.240 C 
HETATM   17  N   UNL     1     -43.230 -46.443  10.389  1.00  0.00     0.094 N 
HETATM   18  C   UNL     1     -42.546 -45.253  10.901  1.00  0.00     0.273 C 
HETATM   19  C   UNL     1     -42.375 -45.493  12.395  1.00  0.00     0.032 C 
HETATM   20  C   UNL     1     -42.979 -46.866  12.648  1.00  0.00     0.039 C 
BRANCH  17  21
HETATM   21  C   UNL     1     -42.994 -46.705   8.969  1.00  0.00     0.268 C 
HETATM   22  C   UNL     1     -44.042 -47.626   8.354  1.00  0.00     0.037 C 
ENDBRANCH  17  21
ENDBRANCH  15  16
ENDBRANCH   1  15
TORSDOF 6
ENDMDL
MODEL 5
REMARK VINA RESULT:      -5.7      2.294      2.747
REMARK  6 active torsions:
REMARK  status: ('A' for Active; 'I' for Inactive)
REMARK    1  A    between atoms: C_2  and  N_3 
REMARK    2  A    between atoms: C_7  and  C_8 
REMARK    3  A    between atoms: C_8  and  N_9 
REMARK       I    between atoms: N_9  and  C_10 
REMARK    4  A    between atoms: C_10  and  C_12 
REMARK    5  A    between atoms: C_12  and  C_13 
REMARK    6  A    between atoms: C_16  and  C_19 
ROOT
HETATM    1  N   UNL     1     -40.373 -51.818  11.954  1.00  0.00    -0.359 N 
HETATM    2  C   UNL     1     -41.028 -50.606  11.914  1.00  0.00     0.223 C 
HETATM    3  O   UNL     1     -42.178 -50.455  12.324  1.00  0.00    -0.273 OA
HETATM    4  H   UNL     1     -39.431 -51.886  11.595  1.00  0.00     0.162 HD
ENDROOT
BRANCH   2   5
HETATM    5  C   UNL     1     -40.227 -49.477  11.286  1.00  0.00     0.160 C 
BRANCH   5   6
HETATM    6  C   UNL     1     -41.071 -48.313  10.885  1.00  0.00     0.025 A 
HETATM    7  C   UNL     1     -41.152 -47.085  11.517  1.00  0.00     0.077 A 
HETATM    8  S   UNL     1     -42.319 -46.096  10.753  1.00  0.00    -0.086 SA
HETATM    9  C   UNL     1     -42.661 -47.368   9.646  1.00  0.00     0.054 A 
HETATM   10  N   UNL     1     -41.939 -48.460   9.808  1.00  0.00    -0.356 N 
ATOM     11  HN  UNL     1     -42.008 -49.294   9.225  1.00  0.00     0.166 HD
BRANCH   9  12
HETATM   12  C   UNL     1     -43.740 -47.198   8.605  1.00  0.00     0.035 C 
HETATM   13  C   UNL     1     -43.485 -48.108   7.403  1.00  0.00     0.016 C 
HETATM   14  C   UNL     1     -45.116 -47.479   9.212  1.00  0.00     0.016 C 
ENDBRANCH   9  12
ENDBRANCH   5   6
ENDBRANCH   2   5
BRANCH   1  15
HETATM   15  C   UNL     1     -41.000 -53.029  12.464  1.00  0.00     0.158 C 
BRANCH  15  16
HETATM   16  C   UNL     1     -40.174 -53.731  13.575  1.00  0.00     0.240 C 
HETATM   17  N   UNL     1     -40.900 -54.073  14.815  1.00  0.00     0.094 N 
HETATM   18  C   UNL     1     -40.960 -52.868  15.646  1.00  0.00     0.273 C 
HETATM   19  C   UNL     1     -39.758 -52.028  15.233  1.00  0.00     0.032 C 
HETATM   20  C   UNL     1     -39.072 -52.830  14.138  1.00  0.00     0.039 C 
BRANCH  17  21
HETATM   21  C   UNL     1     -42.194 -54.725  14.611  1.00  0.00     0.268 C 
HETATM   22  C   UNL     1     -42.669 -55.497  15.837  1.00  0.00     0.037 C 
ENDBRANCH  17  21
ENDBRANCH  15  16
ENDBRANCH   1  15
TORSDOF 6
ENDMDL
MODEL 6
REMARK VINA RESULT:      -5.7      2.204      3.227
REMARK  6 active torsions:
REMARK  status: ('A' for Active; 'I' for Inactive)
REMARK    1  A    between atoms: C_2  and  N_3 
REMARK    2  A    between atoms: C_7  and  C_8 
REMARK    3  A    between atoms: C_8  and  N_9 
REMARK       I    between atoms: N_9  and  C_10 
REMARK    4  A    between atoms: C_10  and  C_12 
REMARK    5  A    between atoms: C_12  and  C_13 
REMARK    6  A    between atoms: C_16  and  C_19 
ROOT
HETATM    1  N   UNL     1     -42.333 -51.145  12.033  1.00  0.00    -0.359 N 
HETATM    2  C   UNL     1     -41.337 -50.234  12.310  1.00  0.00     0.223 C 
HETATM    3  O   UNL     1     -41.017 -49.923  13.457  1.00  0.00    -0.273 OA
HETATM    4  H   UNL     1     -42.560 -51.356  11.070  1.00  0.00     0.162 HD
ENDROOT
BRANCH   2   5
HETATM    5  C   UNL     1     -40.690 -49.613  11.082  1.00  0.00     0.160 C 
BRANCH   5   6
HETATM    6  C   UNL     1     -41.160 -48.222  10.814  1.00  0.00     0.025 A 
HETATM    7  C   UNL     1     -42.402 -47.839  10.340  1.00  0.00     0.077 A 
HETATM    8  S   UNL     1     -42.454 -46.146  10.100  1.00  0.00    -0.086 SA
HETATM    9  C   UNL     1     -40.817 -46.031  10.618  1.00  0.00     0.054 A 
HETATM   10  N   UNL     1     -40.261 -47.173  10.975  1.00  0.00    -0.356 N 
ATOM     11  HN  UNL     1     -39.307 -47.272  11.321  1.00  0.00     0.166 HD
BRANCH   9  12
HETATM   12  C   UNL     1     -40.113 -44.697  10.616  1.00  0.00     0.035 C 
HETATM   13  C   UNL     1     -39.507 -44.398  11.987  1.00  0.00     0.016 C 
HETATM   14  C   UNL     1     -39.035 -44.664   9.531  1.00  0.00     0.016 C 
ENDBRANCH   9  12
ENDBRANCH   5   6
ENDBRANCH   2   5
BRANCH   1  15
HETATM   15  C   UNL     1     -43.108 -51.800  13.078  1.00  0.00     0.158 C 
BRANCH  15  16
HETATM   16  C   UNL     1     -43.825 -53.090  12.598  1.00  0.00     0.240 C 
HETATM   17  N   UNL     1     -45.242 -53.236  12.989  1.00  0.00     0.094 N 
HETATM   18  C   UNL     1     -45.277 -53.748  14.361  1.00  0.00     0.273 C 
HETATM   19  C   UNL     1     -43.968 -54.503  14.549  1.00  0.00     0.032 C 
HETATM   20  C   UNL     1     -43.232 -54.353  13.227  1.00  0.00     0.039 C 
BRANCH  17  21
HETATM   21  C   UNL     1     -46.067 -52.048  12.772  1.00  0.00     0.268 C 
HETATM   22  C   UNL     1     -46.580 -51.435  14.070  1.00  0.00     0.037 C 
ENDBRANCH  17  21
ENDBRANCH  15  16
ENDBRANCH   1  15
TORSDOF 6
ENDMDL
MODEL 7
REMARK VINA RESULT:      -5.6      2.036      3.198
REMARK  6 active torsions:
REMARK  status: ('A' for Active; 'I' for Inactive)
REMARK    1  A    between atoms: C_2  and  N_3 
REMARK    2  A    between atoms: C_7  and  C_8 
REMARK    3  A    between atoms: C_8  and  N_9 
REMARK       I    between atoms: N_9  and  C_10 
REMARK    4  A    between atoms: C_10  and  C_12 
REMARK    5  A    between atoms: C_12  and  C_13 
REMARK    6  A    between atoms: C_16  and  C_19 
ROOT
HETATM    1  N   UNL     1     -43.270 -53.637  12.408  1.00  0.00    -0.359 N 
HETATM    2  C   UNL     1     -42.653 -52.410  12.529  1.00  0.00     0.223 C 
HETATM    3  O   UNL     1     -43.233 -51.410  12.948  1.00  0.00    -0.273 OA
HETATM    4  H   UNL     1     -42.746 -54.423  12.048  1.00  0.00     0.162 HD
ENDROOT
BRANCH   2   5
HETATM    5  C   UNL     1     -41.205 -52.384  12.065  1.00  0.00     0.160 C 
BRANCH   5   6
HETATM    6  C   UNL     1     -40.684 -51.001  11.852  1.00  0.00     0.025 A 
HETATM    7  C   UNL     1     -39.486 -50.483  12.311  1.00  0.00     0.077 A 
HETATM    8  S   UNL     1     -39.356 -48.827  11.902  1.00  0.00    -0.086 SA
HETATM    9  C   UNL     1     -40.908 -48.897  11.162  1.00  0.00     0.054 A 
HETATM   10  N   UNL     1     -41.488 -50.081  11.188  1.00  0.00    -0.356 N 
ATOM     11  HN  UNL     1     -42.399 -50.292  10.780  1.00  0.00     0.166 HD
BRANCH   9  12
HETATM   12  C   UNL     1     -41.522 -47.653  10.568  1.00  0.00     0.035 C 
HETATM   13  C   UNL     1     -43.040 -47.657  10.744  1.00  0.00     0.016 C 
HETATM   14  C   UNL     1     -40.909 -46.402  11.199  1.00  0.00     0.016 C 
ENDBRANCH   9  12
ENDBRANCH   5   6
ENDBRANCH   2   5
BRANCH   1  15
HETATM   15  C   UNL     1     -44.671 -53.844  12.744  1.00  0.00     0.158 C 
BRANCH  15  16
HETATM   16  C   UNL     1     -44.879 -54.736  13.997  1.00  0.00     0.240 C 
HETATM   17  N   UNL     1     -45.637 -54.133  15.113  1.00  0.00     0.094 N 
HETATM   18  C   UNL     1     -44.712 -53.298  15.883  1.00  0.00     0.273 C 
HETATM   19  C   UNL     1     -43.331 -53.894  15.644  1.00  0.00     0.032 C 
HETATM   20  C   UNL     1     -43.562 -55.066  14.702  1.00  0.00     0.039 C 
BRANCH  17  21
HETATM   21  C   UNL     1     -46.873 -53.454  14.722  1.00  0.00     0.268 C 
HETATM   22  C   UNL     1     -46.857 -51.963  15.038  1.00  0.00     0.037 C 
ENDBRANCH  17  21
ENDBRANCH  15  16
ENDBRANCH   1  15
TORSDOF 6
ENDMDL
MODEL 8
REMARK VINA RESULT:      -5.4      1.468      1.853
REMARK  6 active torsions:
REMARK  status: ('A' for Active; 'I' for Inactive)
REMARK    1  A    between atoms: C_2  and  N_3 
REMARK    2  A    between atoms: C_7  and  C_8 
REMARK    3  A    between atoms: C_8  and  N_9 
REMARK       I    between atoms: N_9  and  C_10 
REMARK    4  A    between atoms: C_10  and  C_12 
REMARK    5  A    between atoms: C_12  and  C_13 
REMARK    6  A    between atoms: C_16  and  C_19 
ROOT
HETATM    1  N   UNL     1     -43.435 -50.371  13.012  1.00  0.00    -0.359 N 
HETATM    2  C   UNL     1     -42.285 -50.833  12.409  1.00  0.00     0.223 C 
HETATM    3  O   UNL     1     -42.151 -51.995  12.029  1.00  0.00    -0.273 OA
HETATM    4  H   UNL     1     -43.486 -49.406  13.312  1.00  0.00     0.162 HD
ENDROOT
BRANCH   2   5
HETATM    5  C   UNL     1     -41.177 -49.798  12.286  1.00  0.00     0.160 C 
BRANCH   5   6
HETATM    6  C   UNL     1     -41.607 -48.564  11.564  1.00  0.00     0.025 A 
HETATM    7  C   UNL     1     -41.232 -47.262  11.844  1.00  0.00     0.077 A 
HETATM    8  S   UNL     1     -42.047 -46.170  10.810  1.00  0.00    -0.086 SA
HETATM    9  C   UNL     1     -42.864 -47.493  10.072  1.00  0.00     0.054 A 
HETATM   10  N   UNL     1     -42.541 -48.683  10.540  1.00  0.00    -0.356 N 
ATOM     11  HN  UNL     1     -42.921 -49.565  10.199  1.00  0.00     0.166 HD
BRANCH   9  12
HETATM   12  C   UNL     1     -43.888 -47.244   8.992  1.00  0.00     0.035 C 
HETATM   13  C   UNL     1     -44.156 -45.749   8.829  1.00  0.00     0.016 C 
HETATM   14  C   UNL     1     -43.427 -47.857   7.668  1.00  0.00     0.016 C 
ENDBRANCH   9  12
ENDBRANCH   5   6
ENDBRANCH   2   5
BRANCH   1  15
HETATM   15  C   UNL     1     -44.581 -51.230  13.271  1.00  0.00     0.158 C 
BRANCH  15  16
HETATM   16  C   UNL     1     -44.670 -51.712  14.744  1.00  0.00     0.240 C 
HETATM   17  N   UNL     1     -44.852 -53.164  14.948  1.00  0.00     0.094 N 
HETATM   18  C   UNL     1     -46.276 -53.464  14.783  1.00  0.00     0.273 C 
HETATM   19  C   UNL     1     -47.007 -52.173  15.125  1.00  0.00     0.032 C 
HETATM   20  C   UNL     1     -45.911 -51.173  15.459  1.00  0.00     0.039 C 
BRANCH  17  21
HETATM   21  C   UNL     1     -43.965 -54.014  14.154  1.00  0.00     0.268 C 
HETATM   22  C   UNL     1     -43.296 -55.108  14.979  1.00  0.00     0.037 C 
ENDBRANCH  17  21
ENDBRANCH  15  16
ENDBRANCH   1  15
TORSDOF 6
ENDMDL
MODEL 9
REMARK VINA RESULT:      -5.3      2.367      6.111
REMARK  6 active torsions:
REMARK  status: ('A' for Active; 'I' for Inactive)
REMARK    1  A    between atoms: C_2  and  N_3 
REMARK    2  A    between atoms: C_7  and  C_8 
REMARK    3  A    between atoms: C_8  and  N_9 
REMARK       I    between atoms: N_9  and  C_10 
REMARK    4  A    between atoms: C_10  and  C_12 
REMARK    5  A    between atoms: C_12  and  C_13 
REMARK    6  A    between atoms: C_16  and  C_19 
ROOT
HETATM    1  N   UNL     1     -41.459 -51.652  11.770  1.00  0.00    -0.359 N 
HETATM    2  C   UNL     1     -40.934 -52.656  12.555  1.00  0.00     0.223 C 
HETATM    3  O   UNL     1     -39.827 -52.580  13.084  1.00  0.00    -0.273 OA
HETATM    4  H   UNL     1     -42.372 -51.773  11.353  1.00  0.00     0.162 HD
ENDROOT
BRANCH   2   5
HETATM    5  C   UNL     1     -41.821 -53.885  12.684  1.00  0.00     0.160 C 
BRANCH   5   6
HETATM    6  C   UNL     1     -42.981 -53.676  13.600  1.00  0.00     0.025 A 
HETATM    7  C   UNL     1     -43.103 -54.125  14.903  1.00  0.00     0.077 A 
HETATM    8  S   UNL     1     -44.645 -53.726  15.529  1.00  0.00    -0.086 SA
HETATM    9  C   UNL     1     -45.060 -53.005  14.023  1.00  0.00     0.054 A 
HETATM   10  N   UNL     1     -44.109 -53.029  13.109  1.00  0.00    -0.356 N 
ATOM     11  HN  UNL     1     -44.191 -52.629  12.174  1.00  0.00     0.166 HD
BRANCH   9  12
HETATM   12  C   UNL     1     -46.438 -52.427  13.813  1.00  0.00     0.035 C 
HETATM   13  C   UNL     1     -46.774 -51.411  14.904  1.00  0.00     0.016 C 
HETATM   14  C   UNL     1     -46.544 -51.787  12.428  1.00  0.00     0.016 C 
ENDBRANCH   9  12
ENDBRANCH   5   6
ENDBRANCH   2   5
BRANCH   1  15
HETATM   15  C   UNL     1     -40.732 -50.424  11.480  1.00  0.00     0.158 C 
BRANCH  15  16
HETATM   16  C   UNL     1     -41.168 -49.226  12.365  1.00  0.00     0.240 C 
HETATM   17  N   UNL     1     -41.276 -47.917  11.688  1.00  0.00     0.094 N 
HETATM   18  C   UNL     1     -39.930 -47.344  11.606  1.00  0.00     0.273 C 
HETATM   19  C   UNL     1     -39.154 -47.959  12.762  1.00  0.00     0.032 C 
HETATM   20  C   UNL     1     -40.137 -48.895  13.446  1.00  0.00     0.039 C 
BRANCH  17  21
HETATM   21  C   UNL     1     -41.997 -47.939  10.415  1.00  0.00     0.268 C 
HETATM   22  C   UNL     1     -43.479 -47.615  10.567  1.00  0.00     0.037 C 
ENDBRANCH  17  21
ENDBRANCH  15  16
ENDBRANCH   1  15
TORSDOF 6
ENDMDL
