MODEL 1
REMARK VINA RESULT:      -6.1      0.000      0.000
REMARK  4 active torsions:
REMARK  status: ('A' for Active; 'I' for Inactive)
REMARK       I    between atoms: N_1  and  C_2 
REMARK    1  A    between atoms: C_2  and  C_4 
REMARK    2  A    between atoms: C_4  and  N_5 
REMARK    3  A    between atoms: C_8  and  N_11 
REMARK       I    between atoms: N_11  and  C_12 
REMARK       I    between atoms: C_12  and  N_14 
REMARK    4  A    between atoms: N_14  and  C_15 
ROOT
HETATM    1  N   UNL     1     -41.942 -49.670  11.415  1.00  0.00    -0.338 N 
HETATM    2  C   UNL     1     -42.743 -48.550  11.273  1.00  0.00     0.321 C 
HETATM    3  O   UNL     1     -43.292 -48.013  12.227  1.00  0.00    -0.247 OA
HETATM    4  N   UNL     1     -42.879 -48.176   9.957  1.00  0.00    -0.306 N 
HETATM    5  H   UNL     1     -41.181 -49.755  10.757  1.00  0.00     0.164 HD
HETATM    6  H   UNL     1     -42.606 -48.835   9.244  1.00  0.00     0.171 HD
ENDROOT
BRANCH   1   7
HETATM    7  C   UNL     1     -41.777 -50.263  12.741  1.00  0.00     0.089 C 
HETATM    8  C   UNL     1     -40.341 -50.130  13.261  1.00  0.00     0.055 C 
HETATM    9  C   UNL     1     -39.420 -51.243  12.763  1.00  0.00     0.275 C 
HETATM   10  N   UNL     1     -39.942 -52.607  12.950  1.00  0.00     0.097 N 
HETATM   11  C   UNL     1     -41.255 -52.722  12.295  1.00  0.00     0.275 C 
HETATM   12  C   UNL     1     -42.290 -51.703  12.771  1.00  0.00     0.055 C 
BRANCH  10  13
HETATM   13  C   UNL     1     -40.028 -53.007  14.382  1.00  0.00     0.374 C 
BRANCH  13  14
HETATM   14  C   UNL     1     -39.575 -54.448  14.625  1.00  0.00     0.243 C 
HETATM   15  N   UNL     1     -38.764 -54.986  13.668  1.00  0.00    -0.369 N 
HETATM   16  H   UNL     1     -38.427 -55.931  13.788  1.00  0.00     0.159 HD
HETATM   17  H   UNL     1     -38.402 -54.399  12.927  1.00  0.00     0.159 HD
HETATM   18  O   UNL     1     -39.966 -55.127  15.572  1.00  0.00    -0.272 OA
ENDBRANCH  13  14
ENDBRANCH  10  13
ENDBRANCH   1   7
BRANCH   4  19
HETATM   19  C   UNL     1     -43.654 -47.096   9.569  1.00  0.00     0.070 A 
HETATM   20  C   UNL     1     -43.388 -45.706   9.604  1.00  0.00     0.138 A 
HETATM   21  N   UNL     1     -44.420 -44.981   9.163  1.00  0.00    -0.310 N 
HETATM   22  N   UNL     1     -45.347 -45.902   8.863  1.00  0.00    -0.310 N 
ATOM     23  HN  UNL     1     -44.486 -43.966   9.075  1.00  0.00     0.186 HD
HETATM   24  C   UNL     1     -44.924 -47.188   9.057  1.00  0.00     0.138 A 
HETATM   25  H   UNL     1     -46.252 -45.578   8.537  1.00  0.00     0.186 HD
ENDBRANCH   4  19
TORSDOF 4
ENDMDL
MODEL 2
REMARK VINA RESULT:      -5.9      3.726      7.322
REMARK  4 active torsions:
REMARK  status: ('A' for Active; 'I' for Inactive)
REMARK       I    between atoms: N_1  and  C_2 
REMARK    1  A    between atoms: C_2  and  C_4 
REMARK    2  A    between atoms: C_4  and  N_5 
REMARK    3  A    between atoms: C_8  and  N_11 
REMARK       I    between atoms: N_11  and  C_12 
REMARK       I    between atoms: C_12  and  N_14 
REMARK    4  A    between atoms: N_14  and  C_15 
ROOT
HETATM    1  N   UNL     1     -43.792 -49.720  12.428  1.00  0.00    -0.338 N 
HETATM    2  C   UNL     1     -44.016 -50.882  13.146  1.00  0.00     0.321 C 
HETATM    3  O   UNL     1     -43.241 -51.278  14.007  1.00  0.00    -0.247 OA
HETATM    4  N   UNL     1     -45.153 -51.533  12.733  1.00  0.00    -0.306 N 
HETATM    5  H   UNL     1     -44.616 -49.216  12.135  1.00  0.00     0.164 HD
HETATM    6  H   UNL     1     -45.564 -51.262  11.853  1.00  0.00     0.171 HD
ENDROOT
BRANCH   1   7
HETATM    7  C   UNL     1     -42.567 -48.958  12.670  1.00  0.00     0.089 C 
HETATM    8  C   UNL     1     -42.845 -47.466  12.883  1.00  0.00     0.055 C 
HETATM    9  C   UNL     1     -42.949 -46.685  11.573  1.00  0.00     0.275 C 
HETATM   10  N   UNL     1     -41.834 -46.903  10.635  1.00  0.00     0.097 N 
HETATM   11  C   UNL     1     -41.714 -48.340  10.344  1.00  0.00     0.275 C 
HETATM   12  C   UNL     1     -41.528 -49.221  11.580  1.00  0.00     0.055 C 
BRANCH  10  13
HETATM   13  C   UNL     1     -40.541 -46.352  11.127  1.00  0.00     0.374 C 
BRANCH  13  14
HETATM   14  C   UNL     1     -40.099 -45.102  10.364  1.00  0.00     0.243 C 
HETATM   15  N   UNL     1     -39.076 -45.276   9.478  1.00  0.00    -0.369 N 
HETATM   16  H   UNL     1     -38.755 -44.483   8.939  1.00  0.00     0.159 HD
HETATM   17  H   UNL     1     -38.744 -46.210   9.271  1.00  0.00     0.159 HD
HETATM   18  O   UNL     1     -40.564 -43.984  10.575  1.00  0.00    -0.272 OA
ENDBRANCH  13  14
ENDBRANCH  10  13
ENDBRANCH   1   7
BRANCH   4  19
HETATM   19  C   UNL     1     -45.567 -52.731  13.292  1.00  0.00     0.070 A 
HETATM   20  C   UNL     1     -45.093 -54.051  13.107  1.00  0.00     0.138 A 
HETATM   21  N   UNL     1     -45.790 -54.945  13.814  1.00  0.00    -0.310 N 
HETATM   22  N   UNL     1     -46.717 -54.201  14.436  1.00  0.00    -0.310 N 
ATOM     23  HN  UNL     1     -45.651 -55.954  13.868  1.00  0.00     0.186 HD
HETATM   24  C   UNL     1     -46.604 -52.862  14.183  1.00  0.00     0.138 A 
HETATM   25  H   UNL     1     -47.401 -54.678  15.014  1.00  0.00     0.186 HD
ENDBRANCH   4  19
TORSDOF 4
ENDMDL
MODEL 3
REMARK VINA RESULT:      -5.6      2.021      2.212
REMARK  4 active torsions:
REMARK  status: ('A' for Active; 'I' for Inactive)
REMARK       I    between atoms: N_1  and  C_2 
REMARK    1  A    between atoms: C_2  and  C_4 
REMARK    2  A    between atoms: C_4  and  N_5 
REMARK    3  A    between atoms: C_8  and  N_11 
REMARK       I    between atoms: N_11  and  C_12 
REMARK       I    between atoms: C_12  and  N_14 
REMARK    4  A    between atoms: N_14  and  C_15 
ROOT
HETATM    1  N   UNL     1     -41.976 -50.005  11.669  1.00  0.00    -0.338 N 
HETATM    2  C   UNL     1     -42.588 -48.768  11.562  1.00  0.00     0.321 C 
HETATM    3  O   UNL     1     -43.016 -48.163  12.537  1.00  0.00    -0.247 OA
HETATM    4  N   UNL     1     -42.696 -48.357  10.255  1.00  0.00    -0.306 N 
HETATM    5  H   UNL     1     -41.257 -50.203  10.989  1.00  0.00     0.164 HD
HETATM    6  H   UNL     1     -42.552 -49.041   9.528  1.00  0.00     0.171 HD
ENDROOT
BRANCH   1   7
HETATM    7  C   UNL     1     -41.874 -50.637  12.985  1.00  0.00     0.089 C 
HETATM    8  C   UNL     1     -40.669 -51.579  13.084  1.00  0.00     0.055 C 
HETATM    9  C   UNL     1     -40.962 -52.981  12.548  1.00  0.00     0.275 C 
HETATM   10  N   UNL     1     -42.185 -53.603  13.083  1.00  0.00     0.097 N 
HETATM   11  C   UNL     1     -43.336 -52.723  12.820  1.00  0.00     0.275 C 
HETATM   12  C   UNL     1     -43.190 -51.308  13.379  1.00  0.00     0.055 C 
BRANCH  10  13
HETATM   13  C   UNL     1     -42.088 -53.929  14.533  1.00  0.00     0.374 C 
BRANCH  13  14
HETATM   14  C   UNL     1     -43.384 -54.513  15.099  1.00  0.00     0.243 C 
HETATM   15  N   UNL     1     -43.931 -53.838  16.151  1.00  0.00    -0.369 N 
HETATM   16  H   UNL     1     -44.794 -54.177  16.553  1.00  0.00     0.159 HD
HETATM   17  H   UNL     1     -43.549 -52.943  16.428  1.00  0.00     0.159 HD
HETATM   18  O   UNL     1     -43.877 -55.566  14.702  1.00  0.00    -0.272 OA
ENDBRANCH  13  14
ENDBRANCH  10  13
ENDBRANCH   1   7
BRANCH   4  19
HETATM   19  C   UNL     1     -43.294 -47.160   9.900  1.00  0.00     0.070 A 
HETATM   20  C   UNL     1     -42.905 -45.822  10.145  1.00  0.00     0.138 A 
HETATM   21  N   UNL     1     -43.782 -44.940   9.658  1.00  0.00    -0.310 N 
HETATM   22  N   UNL     1     -44.737 -45.711   9.118  1.00  0.00    -0.310 N 
ATOM     23  HN  UNL     1     -43.736 -43.921   9.690  1.00  0.00     0.186 HD
HETATM   24  C   UNL     1     -44.474 -47.050   9.206  1.00  0.00     0.138 A 
HETATM   25  H   UNL     1     -45.546 -45.252   8.711  1.00  0.00     0.186 HD
ENDBRANCH   4  19
TORSDOF 4
ENDMDL
MODEL 4
REMARK VINA RESULT:      -5.5      3.478      4.098
REMARK  4 active torsions:
REMARK  status: ('A' for Active; 'I' for Inactive)
REMARK       I    between atoms: N_1  and  C_2 
REMARK    1  A    between atoms: C_2  and  C_4 
REMARK    2  A    between atoms: C_4  and  N_5 
REMARK    3  A    between atoms: C_8  and  N_11 
REMARK       I    between atoms: N_11  and  C_12 
REMARK       I    between atoms: C_12  and  N_14 
REMARK    4  A    between atoms: N_14  and  C_15 
ROOT
HETATM    1  N   UNL     1     -42.367 -50.932  12.350  1.00  0.00    -0.338 N 
HETATM    2  C   UNL     1     -42.315 -49.563  12.157  1.00  0.00     0.321 C 
HETATM    3  O   UNL     1     -42.688 -48.767  13.010  1.00  0.00    -0.247 OA
HETATM    4  N   UNL     1     -41.861 -49.234  10.902  1.00  0.00    -0.306 N 
HETATM    5  H   UNL     1     -41.649 -51.471  11.888  1.00  0.00     0.164 HD
HETATM    6  H   UNL     1     -41.835 -49.959  10.201  1.00  0.00     0.171 HD
ENDROOT
BRANCH   1   7
HETATM    7  C   UNL     1     -42.926 -51.454  13.597  1.00  0.00     0.089 C 
HETATM    8  C   UNL     1     -42.247 -52.757  14.036  1.00  0.00     0.055 C 
HETATM    9  C   UNL     1     -42.845 -53.996  13.370  1.00  0.00     0.275 C 
HETATM   10  N   UNL     1     -44.313 -54.093  13.451  1.00  0.00     0.097 N 
HETATM   11  C   UNL     1     -44.915 -52.881  12.871  1.00  0.00     0.275 C 
HETATM   12  C   UNL     1     -44.448 -51.575  13.513  1.00  0.00     0.055 C 
BRANCH  10  13
HETATM   13  C   UNL     1     -44.807 -54.319  14.837  1.00  0.00     0.374 C 
BRANCH  13  14
HETATM   14  C   UNL     1     -46.331 -54.247  14.944  1.00  0.00     0.243 C 
HETATM   15  N   UNL     1     -47.016 -55.296  14.401  1.00  0.00    -0.369 N 
HETATM   16  H   UNL     1     -48.025 -55.302  14.457  1.00  0.00     0.159 HD
HETATM   17  H   UNL     1     -46.511 -56.110  14.074  1.00  0.00     0.159 HD
HETATM   18  O   UNL     1     -46.929 -53.281  15.411  1.00  0.00    -0.272 OA
ENDBRANCH  13  14
ENDBRANCH  10  13
ENDBRANCH   1   7
BRANCH   4  19
HETATM   19  C   UNL     1     -41.746 -47.923  10.473  1.00  0.00     0.070 A 
HETATM   20  C   UNL     1     -40.777 -46.934  10.767  1.00  0.00     0.138 A 
HETATM   21  N   UNL     1     -41.043 -45.769  10.171  1.00  0.00    -0.310 N 
HETATM   22  N   UNL     1     -42.187 -46.006   9.512  1.00  0.00    -0.310 N 
ATOM     23  HN  UNL     1     -40.505 -44.903  10.209  1.00  0.00     0.186 HD
HETATM   24  C   UNL     1     -42.631 -47.294   9.633  1.00  0.00     0.138 A 
HETATM   25  H   UNL     1     -42.612 -45.237   9.005  1.00  0.00     0.186 HD
ENDBRANCH   4  19
TORSDOF 4
ENDMDL
MODEL 5
REMARK VINA RESULT:      -5.4      3.082      3.543
REMARK  4 active torsions:
REMARK  status: ('A' for Active; 'I' for Inactive)
REMARK       I    between atoms: N_1  and  C_2 
REMARK    1  A    between atoms: C_2  and  C_4 
REMARK    2  A    between atoms: C_4  and  N_5 
REMARK    3  A    between atoms: C_8  and  N_11 
REMARK       I    between atoms: N_11  and  C_12 
REMARK       I    between atoms: C_12  and  N_14 
REMARK    4  A    between atoms: N_14  and  C_15 
ROOT
HETATM    1  N   UNL     1     -41.418 -49.030  10.858  1.00  0.00    -0.338 N 
HETATM    2  C   UNL     1     -42.571 -48.268  10.787  1.00  0.00     0.321 C 
HETATM    3  O   UNL     1     -43.189 -47.922  11.786  1.00  0.00    -0.247 OA
HETATM    4  N   UNL     1     -42.944 -48.014   9.489  1.00  0.00    -0.306 N 
HETATM    5  H   UNL     1     -40.736 -48.867  10.132  1.00  0.00     0.164 HD
HETATM    6  H   UNL     1     -42.518 -48.561   8.756  1.00  0.00     0.171 HD
ENDROOT
BRANCH   1   7
HETATM    7  C   UNL     1     -40.940 -49.478  12.165  1.00  0.00     0.089 C 
HETATM    8  C   UNL     1     -40.521 -48.307  13.062  1.00  0.00     0.055 C 
HETATM    9  C   UNL     1     -39.085 -47.846  12.811  1.00  0.00     0.275 C 
HETATM   10  N   UNL     1     -38.081 -48.924  12.818  1.00  0.00     0.097 N 
HETATM   11  C   UNL     1     -38.453 -49.945  11.825  1.00  0.00     0.275 C 
HETATM   12  C   UNL     1     -39.848 -50.539  12.021  1.00  0.00     0.055 C 
BRANCH  10  13
HETATM   13  C   UNL     1     -37.892 -49.537  14.162  1.00  0.00     0.374 C 
BRANCH  13  14
HETATM   14  C   UNL     1     -37.328 -48.553  15.189  1.00  0.00     0.243 C 
HETATM   15  N   UNL     1     -37.983 -48.500  16.385  1.00  0.00    -0.369 N 
HETATM   16  H   UNL     1     -37.642 -47.875  17.102  1.00  0.00     0.159 HD
HETATM   17  H   UNL     1     -38.710 -49.175  16.590  1.00  0.00     0.159 HD
HETATM   18  O   UNL     1     -36.395 -47.790  14.949  1.00  0.00    -0.272 OA
ENDBRANCH  13  14
ENDBRANCH  10  13
ENDBRANCH   1   7
BRANCH   4  19
HETATM   19  C   UNL     1     -44.080 -47.289   9.171  1.00  0.00     0.070 A 
HETATM   20  C   UNL     1     -44.279 -45.895   9.031  1.00  0.00     0.138 A 
HETATM   21  N   UNL     1     -45.548 -45.589   8.744  1.00  0.00    -0.310 N 
HETATM   22  N   UNL     1     -46.160 -46.782   8.716  1.00  0.00    -0.310 N 
ATOM     23  HN  UNL     1     -45.954 -44.667   8.584  1.00  0.00     0.186 HD
HETATM   24  C   UNL     1     -45.316 -47.836   8.932  1.00  0.00     0.138 A 
HETATM   25  H   UNL     1     -47.161 -46.799   8.550  1.00  0.00     0.186 HD
ENDBRANCH   4  19
TORSDOF 4
ENDMDL
MODEL 6
REMARK VINA RESULT:      -5.3      2.044      2.911
REMARK  4 active torsions:
REMARK  status: ('A' for Active; 'I' for Inactive)
REMARK       I    between atoms: N_1  and  C_2 
REMARK    1  A    between atoms: C_2  and  C_4 
REMARK    2  A    between atoms: C_4  and  N_5 
REMARK    3  A    between atoms: C_8  and  N_11 
REMARK       I    between atoms: N_11  and  C_12 
REMARK       I    between atoms: C_12  and  N_14 
REMARK    4  A    between atoms: N_14  and  C_15 
ROOT
HETATM    1  N   UNL     1     -41.506 -51.194  12.384  1.00  0.00    -0.338 N 
HETATM    2  C   UNL     1     -41.199 -50.127  11.559  1.00  0.00     0.321 C 
HETATM    3  O   UNL     1     -40.088 -49.981  11.063  1.00  0.00    -0.247 OA
HETATM    4  N   UNL     1     -42.253 -49.256  11.426  1.00  0.00    -0.306 N 
HETATM    5  H   UNL     1     -42.461 -51.519  12.349  1.00  0.00     0.164 HD
HETATM    6  H   UNL     1     -43.019 -49.332  12.079  1.00  0.00     0.171 HD
ENDROOT
BRANCH   1   7
HETATM    7  C   UNL     1     -40.461 -52.162  12.715  1.00  0.00     0.089 C 
HETATM    8  C   UNL     1     -40.945 -53.610  12.572  1.00  0.00     0.055 C 
HETATM    9  C   UNL     1     -41.668 -54.123  13.817  1.00  0.00     0.275 C 
HETATM   10  N   UNL     1     -40.944 -53.912  15.083  1.00  0.00     0.097 N 
HETATM   11  C   UNL     1     -40.644 -52.480  15.241  1.00  0.00     0.275 C 
HETATM   12  C   UNL     1     -39.850 -51.870  14.086  1.00  0.00     0.055 C 
BRANCH  10  13
HETATM   13  C   UNL     1     -39.704 -54.729  15.188  1.00  0.00     0.374 C 
BRANCH  13  14
HETATM   14  C   UNL     1     -39.785 -55.795  16.284  1.00  0.00     0.243 C 
HETATM   15  N   UNL     1     -40.874 -55.723  17.104  1.00  0.00    -0.369 N 
HETATM   16  H   UNL     1     -40.981 -56.412  17.835  1.00  0.00     0.159 HD
HETATM   17  H   UNL     1     -41.623 -55.076  16.890  1.00  0.00     0.159 HD
HETATM   18  O   UNL     1     -38.900 -56.623  16.485  1.00  0.00    -0.272 OA
ENDBRANCH  13  14
ENDBRANCH  10  13
ENDBRANCH   1   7
BRANCH   4  19
HETATM   19  C   UNL     1     -42.172 -48.101  10.667  1.00  0.00     0.070 A 
HETATM   20  C   UNL     1     -42.852 -47.720   9.486  1.00  0.00     0.138 A 
HETATM   21  N   UNL     1     -42.463 -46.523   9.039  1.00  0.00    -0.310 N 
HETATM   22  N   UNL     1     -41.526 -46.147   9.921  1.00  0.00    -0.310 N 
ATOM     23  HN  UNL     1     -42.799 -46.015   8.220  1.00  0.00     0.186 HD
HETATM   24  C   UNL     1     -41.339 -47.044  10.936  1.00  0.00     0.138 A 
HETATM   25  H   UNL     1     -41.048 -45.266   9.762  1.00  0.00     0.186 HD
ENDBRANCH   4  19
TORSDOF 4
ENDMDL
MODEL 7
REMARK VINA RESULT:      -5.1      2.873      8.014
REMARK  4 active torsions:
REMARK  status: ('A' for Active; 'I' for Inactive)
REMARK       I    between atoms: N_1  and  C_2 
REMARK    1  A    between atoms: C_2  and  C_4 
REMARK    2  A    between atoms: C_4  and  N_5 
REMARK    3  A    between atoms: C_8  and  N_11 
REMARK       I    between atoms: N_11  and  C_12 
REMARK       I    between atoms: C_12  and  N_14 
REMARK    4  A    between atoms: N_14  and  C_15 
ROOT
HETATM    1  N   UNL     1     -41.498 -48.704  11.584  1.00  0.00    -0.338 N 
HETATM    2  C   UNL     1     -41.766 -49.850  12.312  1.00  0.00     0.321 C 
HETATM    3  O   UNL     1     -42.001 -49.822  13.514  1.00  0.00    -0.247 OA
HETATM    4  N   UNL     1     -41.677 -50.984  11.541  1.00  0.00    -0.306 N 
HETATM    5  H   UNL     1     -41.794 -48.714  10.619  1.00  0.00     0.164 HD
HETATM    6  H   UNL     1     -41.225 -50.914  10.642  1.00  0.00     0.171 HD
ENDROOT
BRANCH   1   7
HETATM    7  C   UNL     1     -41.449 -47.417  12.277  1.00  0.00     0.089 C 
HETATM    8  C   UNL     1     -42.647 -46.525  11.930  1.00  0.00     0.055 C 
HETATM    9  C   UNL     1     -42.444 -45.724  10.644  1.00  0.00     0.275 C 
HETATM   10  N   UNL     1     -41.173 -44.981  10.575  1.00  0.00     0.097 N 
HETATM   11  C   UNL     1     -40.050 -45.914  10.758  1.00  0.00     0.275 C 
HETATM   12  C   UNL     1     -40.105 -46.721  12.056  1.00  0.00     0.055 C 
BRANCH  10  13
HETATM   13  C   UNL     1     -41.098 -43.862  11.555  1.00  0.00     0.374 C 
BRANCH  13  14
HETATM   14  C   UNL     1     -42.191 -42.812  11.343  1.00  0.00     0.243 C 
HETATM   15  N   UNL     1     -43.030 -42.605  12.399  1.00  0.00    -0.369 N 
HETATM   16  H   UNL     1     -43.761 -41.912  12.313  1.00  0.00     0.159 HD
HETATM   17  H   UNL     1     -42.833 -43.040  13.291  1.00  0.00     0.159 HD
HETATM   18  O   UNL     1     -42.373 -42.236  10.272  1.00  0.00    -0.272 OA
ENDBRANCH  13  14
ENDBRANCH  10  13
ENDBRANCH   1   7
BRANCH   4  19
HETATM   19  C   UNL     1     -41.882 -52.252  12.059  1.00  0.00     0.070 A 
HETATM   20  C   UNL     1     -43.073 -52.917  12.435  1.00  0.00     0.138 A 
HETATM   21  N   UNL     1     -42.840 -54.137  12.928  1.00  0.00    -0.310 N 
HETATM   22  N   UNL     1     -41.504 -54.245  12.882  1.00  0.00    -0.310 N 
ATOM     23  HN  UNL     1     -43.518 -54.823  13.261  1.00  0.00     0.186 HD
HETATM   24  C   UNL     1     -40.885 -53.155  12.336  1.00  0.00     0.138 A 
HETATM   25  H   UNL     1     -41.083 -55.092  13.249  1.00  0.00     0.186 HD
ENDBRANCH   4  19
TORSDOF 4
ENDMDL
MODEL 8
REMARK VINA RESULT:      -5.0      5.751      7.977
REMARK  4 active torsions:
REMARK  status: ('A' for Active; 'I' for Inactive)
REMARK       I    between atoms: N_1  and  C_2 
REMARK    1  A    between atoms: C_2  and  C_4 
REMARK    2  A    between atoms: C_4  and  N_5 
REMARK    3  A    between atoms: C_8  and  N_11 
REMARK       I    between atoms: N_11  and  C_12 
REMARK       I    between atoms: C_12  and  N_14 
REMARK    4  A    between atoms: N_14  and  C_15 
ROOT
HETATM    1  N   UNL     1     -38.062 -50.275  15.385  1.00  0.00    -0.338 N 
HETATM    2  C   UNL     1     -38.389 -50.982  14.241  1.00  0.00     0.321 C 
HETATM    3  O   UNL     1     -37.603 -51.122  13.312  1.00  0.00    -0.247 OA
HETATM    4  N   UNL     1     -39.685 -51.436  14.267  1.00  0.00    -0.306 N 
HETATM    5  H   UNL     1     -38.497 -50.591  16.239  1.00  0.00     0.164 HD
HETATM    6  H   UNL     1     -40.313 -51.043  14.951  1.00  0.00     0.171 HD
ENDROOT
BRANCH   1   7
HETATM    7  C   UNL     1     -36.751 -49.632  15.475  1.00  0.00     0.089 C 
HETATM    8  C   UNL     1     -35.958 -50.102  16.700  1.00  0.00     0.055 C 
HETATM    9  C   UNL     1     -36.309 -49.328  17.971  1.00  0.00     0.275 C 
HETATM   10  N   UNL     1     -36.276 -47.862  17.830  1.00  0.00     0.097 N 
HETATM   11  C   UNL     1     -37.178 -47.456  16.740  1.00  0.00     0.275 C 
HETATM   12  C   UNL     1     -36.873 -48.110  15.392  1.00  0.00     0.055 C 
BRANCH  10  13
HETATM   13  C   UNL     1     -34.904 -47.328  17.610  1.00  0.00     0.374 C 
BRANCH  13  14
HETATM   14  C   UNL     1     -34.504 -46.273  18.644  1.00  0.00     0.243 C 
HETATM   15  N   UNL     1     -33.392 -46.557  19.384  1.00  0.00    -0.369 N 
HETATM   16  H   UNL     1     -33.079 -45.886  20.072  1.00  0.00     0.159 HD
HETATM   17  H   UNL     1     -32.822 -47.359  19.147  1.00  0.00     0.159 HD
HETATM   18  O   UNL     1     -35.169 -45.265  18.869  1.00  0.00    -0.272 OA
ENDBRANCH  13  14
ENDBRANCH  10  13
ENDBRANCH   1   7
BRANCH   4  19
HETATM   19  C   UNL     1     -40.243 -52.150  13.220  1.00  0.00     0.070 A 
HETATM   20  C   UNL     1     -40.854 -51.711  12.022  1.00  0.00     0.138 A 
HETATM   21  N   UNL     1     -41.300 -52.726  11.276  1.00  0.00    -0.310 N 
HETATM   22  N   UNL     1     -40.988 -53.810  12.002  1.00  0.00    -0.310 N 
ATOM     23  HN  UNL     1     -41.766 -52.686  10.370  1.00  0.00     0.186 HD
HETATM   24  C   UNL     1     -40.322 -53.519  13.161  1.00  0.00     0.138 A 
HETATM   25  H   UNL     1     -41.270 -54.717  11.647  1.00  0.00     0.186 HD
ENDBRANCH   4  19
TORSDOF 4
ENDMDL
MODEL 9
REMARK VINA RESULT:      -4.8      4.179      8.727
REMARK  4 active torsions:
REMARK  status: ('A' for Active; 'I' for Inactive)
REMARK       I    between atoms: N_1  and  C_2 
REMARK    1  A    between atoms: C_2  and  C_4 
REMARK    2  A    between atoms: C_4  and  N_5 
REMARK    3  A    between atoms: C_8  and  N_11 
REMARK       I    between atoms: N_11  and  C_12 
REMARK       I    between atoms: C_12  and  N_14 
REMARK    4  A    between atoms: N_14  and  C_15 
ROOT
HETATM    1  N   UNL     1     -39.057 -47.650  13.276  1.00  0.00    -0.338 N 
HETATM    2  C   UNL     1     -38.609 -47.993  14.540  1.00  0.00     0.321 C 
HETATM    3  O   UNL     1     -39.319 -47.900  15.533  1.00  0.00    -0.247 OA
HETATM    4  N   UNL     1     -37.291 -48.381  14.533  1.00  0.00    -0.306 N 
HETATM    5  H   UNL     1     -38.662 -48.174  12.510  1.00  0.00     0.164 HD
HETATM    6  H   UNL     1     -36.737 -48.169  13.717  1.00  0.00     0.171 HD
ENDROOT
BRANCH   1   7
HETATM    7  C   UNL     1     -40.409 -47.115  13.121  1.00  0.00     0.089 C 
HETATM    8  C   UNL     1     -41.374 -48.143  12.517  1.00  0.00     0.055 C 
HETATM    9  C   UNL     1     -41.326 -48.181  10.990  1.00  0.00     0.275 C 
HETATM   10  N   UNL     1     -41.450 -46.867  10.336  1.00  0.00     0.097 N 
HETATM   11  C   UNL     1     -40.400 -45.968  10.841  1.00  0.00     0.275 C 
HETATM   12  C   UNL     1     -40.397 -45.790  12.359  1.00  0.00     0.055 C 
BRANCH  10  13
HETATM   13  C   UNL     1     -42.797 -46.256  10.506  1.00  0.00     0.374 C 
BRANCH  13  14
HETATM   14  C   UNL     1     -43.409 -45.789   9.184  1.00  0.00     0.243 C 
HETATM   15  N   UNL     1     -43.200 -46.605   8.110  1.00  0.00    -0.369 N 
HETATM   16  H   UNL     1     -43.595 -46.347   7.216  1.00  0.00     0.159 HD
HETATM   17  H   UNL     1     -42.776 -47.514   8.245  1.00  0.00     0.159 HD
HETATM   18  O   UNL     1     -43.988 -44.712   9.053  1.00  0.00    -0.272 OA
ENDBRANCH  13  14
ENDBRANCH  10  13
ENDBRANCH   1   7
BRANCH   4  19
HETATM   19  C   UNL     1     -36.619 -48.748  15.687  1.00  0.00     0.070 A 
HETATM   20  C   UNL     1     -36.357 -50.024  16.239  1.00  0.00     0.138 A 
HETATM   21  N   UNL     1     -35.697 -49.950  17.398  1.00  0.00    -0.310 N 
HETATM   22  N   UNL     1     -35.550 -48.632  17.594  1.00  0.00    -0.310 N 
ATOM     23  HN  UNL     1     -35.379 -50.716  17.993  1.00  0.00     0.186 HD
HETATM   24  C   UNL     1     -36.056 -47.868  16.578  1.00  0.00     0.138 A 
HETATM   25  H   UNL     1     -35.100 -48.325  18.450  1.00  0.00     0.186 HD
ENDBRANCH   4  19
TORSDOF 4
ENDMDL
