MODEL 1
REMARK VINA RESULT:      -6.0      0.000      0.000
REMARK  5 active torsions:
REMARK  status: ('A' for Active; 'I' for Inactive)
REMARK    1  A    between atoms: C_2  and  C_3 
REMARK    2  A    between atoms: C_2  and  N_15 
REMARK       I    between atoms: C_3  and  N_5 
REMARK    3  A    between atoms: N_5  and  C_6 
REMARK    4  A    between atoms: C_6  and  C_7 
REMARK    5  A    between atoms: C_7  and  N_8 
ROOT
HETATM    1  C   UNL     1     -40.890 -50.333  12.176  1.00  0.00     0.242 C 
HETATM    2  O   UNL     1     -40.850 -50.245  13.405  1.00  0.00    -0.271 OA
HETATM    3  N   UNL     1     -41.168 -51.526  11.531  1.00  0.00    -0.358 N 
HETATM    4  H   UNL     1     -41.503 -51.456  10.568  1.00  0.00     0.162 HD
ENDROOT
BRANCH   1   5
HETATM    5  C   UNL     1     -40.584 -49.148  11.270  1.00  0.00     0.196 C 
HETATM    6  C   UNL     1     -39.687 -48.140  11.992  1.00  0.00     0.044 C 
BRANCH   5   7
HETATM    7  N   UNL     1     -41.817 -48.565  10.772  1.00  0.00    -0.273 N 
HETATM    8  C   UNL     1     -42.974 -48.296  11.436  1.00  0.00     0.202 A 
HETATM    9  N   UNL     1     -43.831 -47.727  10.619  1.00  0.00    -0.346 N 
HETATM   10  C   UNL     1     -43.150 -47.683   9.438  1.00  0.00     0.198 A 
ATOM     11  HN  UNL     1     -44.775 -47.398  10.819  1.00  0.00     0.167 HD
HETATM   12  N   UNL     1     -41.921 -48.210   9.471  1.00  0.00    -0.292 N 
ATOM     13  HN  UNL     1     -41.244 -48.315   8.715  1.00  0.00     0.188 HD
ENDBRANCH   5   7
ENDBRANCH   1   5
BRANCH   3  14
HETATM   14  C   UNL     1     -41.596 -52.664  12.325  1.00  0.00     0.152 C 
BRANCH  14  15
HETATM   15  C   UNL     1     -43.084 -53.018  12.167  1.00  0.00     0.292 C 
BRANCH  15  16
HETATM   16  N   UNL     1     -43.776 -53.227  13.455  1.00  0.00     0.090 N 
HETATM   17  C   UNL     1     -45.156 -53.701  13.274  1.00  0.00     0.273 C 
HETATM   18  C   UNL     1     -46.128 -52.622  12.778  1.00  0.00     0.034 C 
HETATM   19  C   UNL     1     -46.065 -51.324  13.602  1.00  0.00    -0.015 C 
HETATM   20  C   UNL     1     -46.807 -51.464  14.934  1.00  0.00     0.010 C 
HETATM   21  C   UNL     1     -44.607 -50.901  13.826  1.00  0.00     0.034 C 
HETATM   22  C   UNL     1     -43.757 -52.059  14.348  1.00  0.00     0.273 C 
ENDBRANCH  15  16
ENDBRANCH  14  15
ENDBRANCH   3  14
TORSDOF 5
ENDMDL
MODEL 2
REMARK VINA RESULT:      -6.0      1.336      1.709
REMARK  5 active torsions:
REMARK  status: ('A' for Active; 'I' for Inactive)
REMARK    1  A    between atoms: C_2  and  C_3 
REMARK    2  A    between atoms: C_2  and  N_15 
REMARK       I    between atoms: C_3  and  N_5 
REMARK    3  A    between atoms: N_5  and  C_6 
REMARK    4  A    between atoms: C_6  and  C_7 
REMARK    5  A    between atoms: C_7  and  N_8 
ROOT
HETATM    1  C   UNL     1     -42.045 -48.908  11.640  1.00  0.00     0.242 C 
HETATM    2  O   UNL     1     -42.467 -48.430  12.695  1.00  0.00    -0.271 OA
HETATM    3  N   UNL     1     -41.657 -50.232  11.533  1.00  0.00    -0.358 N 
HETATM    4  H   UNL     1     -41.640 -50.628  10.591  1.00  0.00     0.162 HD
ENDROOT
BRANCH   1   5
HETATM    5  C   UNL     1     -41.868 -48.064  10.385  1.00  0.00     0.196 C 
HETATM    6  C   UNL     1     -41.094 -46.784  10.705  1.00  0.00     0.044 C 
BRANCH   5   7
HETATM    7  N   UNL     1     -43.155 -47.814   9.761  1.00  0.00    -0.273 N 
HETATM    8  C   UNL     1     -43.442 -47.512   8.466  1.00  0.00     0.202 A 
HETATM    9  N   UNL     1     -44.743 -47.406   8.314  1.00  0.00    -0.346 N 
HETATM   10  C   UNL     1     -45.221 -47.636   9.571  1.00  0.00     0.198 A 
ATOM     11  HN  UNL     1     -45.267 -47.201   7.464  1.00  0.00     0.167 HD
HETATM   12  N   UNL     1     -44.288 -47.863  10.501  1.00  0.00    -0.292 N 
ATOM     13  HN  UNL     1     -44.400 -48.029  11.501  1.00  0.00     0.188 HD
ENDBRANCH   5   7
ENDBRANCH   1   5
BRANCH   3  14
HETATM   14  C   UNL     1     -41.918 -51.126  12.647  1.00  0.00     0.152 C 
BRANCH  14  15
HETATM   15  C   UNL     1     -42.802 -52.334  12.291  1.00  0.00     0.292 C 
BRANCH  15  16
HETATM   16  N   UNL     1     -43.530 -52.888  13.451  1.00  0.00     0.090 N 
HETATM   17  C   UNL     1     -44.790 -53.537  13.057  1.00  0.00     0.273 C 
HETATM   18  C   UNL     1     -45.902 -52.557  12.661  1.00  0.00     0.034 C 
HETATM   19  C   UNL     1     -46.124 -51.443  13.698  1.00  0.00    -0.015 C 
HETATM   20  C   UNL     1     -46.917 -51.945  14.907  1.00  0.00     0.010 C 
HETATM   21  C   UNL     1     -44.782 -50.838  14.133  1.00  0.00     0.034 C 
HETATM   22  C   UNL     1     -43.778 -51.919  14.529  1.00  0.00     0.273 C 
ENDBRANCH  15  16
ENDBRANCH  14  15
ENDBRANCH   3  14
TORSDOF 5
ENDMDL
MODEL 3
REMARK VINA RESULT:      -5.5      2.450      3.559
REMARK  5 active torsions:
REMARK  status: ('A' for Active; 'I' for Inactive)
REMARK    1  A    between atoms: C_2  and  C_3 
REMARK    2  A    between atoms: C_2  and  N_15 
REMARK       I    between atoms: C_3  and  N_5 
REMARK    3  A    between atoms: N_5  and  C_6 
REMARK    4  A    between atoms: C_6  and  C_7 
REMARK    5  A    between atoms: C_7  and  N_8 
ROOT
HETATM    1  C   UNL     1     -40.074 -53.021  13.710  1.00  0.00     0.242 C 
HETATM    2  O   UNL     1     -40.389 -53.552  12.642  1.00  0.00    -0.271 OA
HETATM    3  N   UNL     1     -40.770 -53.256  14.883  1.00  0.00    -0.358 N 
HETATM    4  H   UNL     1     -40.274 -53.060  15.755  1.00  0.00     0.162 HD
ENDROOT
BRANCH   1   5
HETATM    5  C   UNL     1     -38.928 -52.024  13.810  1.00  0.00     0.196 C 
HETATM    6  C   UNL     1     -38.912 -51.363  15.190  1.00  0.00     0.044 C 
BRANCH   5   7
HETATM    7  N   UNL     1     -38.997 -51.068  12.719  1.00  0.00    -0.273 N 
HETATM    8  C   UNL     1     -37.991 -50.545  11.966  1.00  0.00     0.202 A 
HETATM    9  N   UNL     1     -38.493 -49.745  11.053  1.00  0.00    -0.346 N 
HETATM   10  C   UNL     1     -39.833 -49.794  11.300  1.00  0.00     0.198 A 
ATOM     11  HN  UNL     1     -38.000 -49.215  10.333  1.00  0.00     0.167 HD
HETATM   12  N   UNL     1     -40.193 -50.568  12.329  1.00  0.00    -0.292 N 
ATOM     13  HN  UNL     1     -41.121 -50.737  12.717  1.00  0.00     0.188 HD
ENDBRANCH   5   7
ENDBRANCH   1   5
BRANCH   3  14
HETATM   14  C   UNL     1     -41.789 -54.290  14.893  1.00  0.00     0.152 C 
BRANCH  14  15
HETATM   15  C   UNL     1     -43.231 -53.754  14.867  1.00  0.00     0.292 C 
BRANCH  15  16
HETATM   16  N   UNL     1     -43.805 -53.685  13.508  1.00  0.00     0.090 N 
HETATM   17  C   UNL     1     -43.689 -52.340  12.924  1.00  0.00     0.273 C 
HETATM   18  C   UNL     1     -44.654 -51.310  13.526  1.00  0.00     0.034 C 
HETATM   19  C   UNL     1     -46.112 -51.799  13.567  1.00  0.00    -0.015 C 
HETATM   20  C   UNL     1     -46.779 -51.707  12.192  1.00  0.00     0.010 C 
HETATM   21  C   UNL     1     -46.184 -53.229  14.119  1.00  0.00     0.034 C 
HETATM   22  C   UNL     1     -45.195 -54.156  13.414  1.00  0.00     0.273 C 
ENDBRANCH  15  16
ENDBRANCH  14  15
ENDBRANCH   3  14
TORSDOF 5
ENDMDL
MODEL 4
REMARK VINA RESULT:      -5.5      2.109      2.517
REMARK  5 active torsions:
REMARK  status: ('A' for Active; 'I' for Inactive)
REMARK    1  A    between atoms: C_2  and  C_3 
REMARK    2  A    between atoms: C_2  and  N_15 
REMARK       I    between atoms: C_3  and  N_5 
REMARK    3  A    between atoms: N_5  and  C_6 
REMARK    4  A    between atoms: C_6  and  C_7 
REMARK    5  A    between atoms: C_7  and  N_8 
ROOT
HETATM    1  C   UNL     1     -39.772 -50.833  12.180  1.00  0.00     0.242 C 
HETATM    2  O   UNL     1     -39.445 -51.244  13.296  1.00  0.00    -0.271 OA
HETATM    3  N   UNL     1     -40.829 -51.378  11.474  1.00  0.00    -0.358 N 
HETATM    4  H   UNL     1     -41.238 -50.794  10.742  1.00  0.00     0.162 HD
ENDROOT
BRANCH   1   5
HETATM    5  C   UNL     1     -39.003 -49.727  11.470  1.00  0.00     0.196 C 
HETATM    6  C   UNL     1     -37.515 -50.076  11.388  1.00  0.00     0.044 C 
BRANCH   5   7
HETATM    7  N   UNL     1     -39.257 -48.448  12.109  1.00  0.00    -0.273 N 
HETATM    8  C   UNL     1     -39.867 -47.339  11.609  1.00  0.00     0.202 A 
HETATM    9  N   UNL     1     -39.928 -46.411  12.537  1.00  0.00    -0.346 N 
HETATM   10  C   UNL     1     -39.314 -46.999  13.603  1.00  0.00     0.198 A 
ATOM     11  HN  UNL     1     -40.335 -45.478  12.474  1.00  0.00     0.167 HD
HETATM   12  N   UNL     1     -38.859 -48.237  13.386  1.00  0.00    -0.292 N 
ATOM     13  HN  UNL     1     -38.348 -48.857  14.014  1.00  0.00     0.188 HD
ENDBRANCH   5   7
ENDBRANCH   1   5
BRANCH   3  14
HETATM   14  C   UNL     1     -41.686 -52.344  12.138  1.00  0.00     0.152 C 
BRANCH  14  15
HETATM   15  C   UNL     1     -42.975 -51.743  12.725  1.00  0.00     0.292 C 
BRANCH  15  16
HETATM   16  N   UNL     1     -43.789 -52.723  13.473  1.00  0.00     0.090 N 
HETATM   17  C   UNL     1     -45.061 -53.020  12.796  1.00  0.00     0.273 C 
HETATM   18  C   UNL     1     -46.097 -51.892  12.889  1.00  0.00     0.034 C 
HETATM   19  C   UNL     1     -46.311 -51.382  14.324  1.00  0.00    -0.015 C 
HETATM   20  C   UNL     1     -47.189 -52.335  15.138  1.00  0.00     0.010 C 
HETATM   21  C   UNL     1     -44.962 -51.149  15.018  1.00  0.00     0.034 C 
HETATM   22  C   UNL     1     -44.038 -52.359  14.875  1.00  0.00     0.273 C 
ENDBRANCH  15  16
ENDBRANCH  14  15
ENDBRANCH   3  14
TORSDOF 5
ENDMDL
MODEL 5
REMARK VINA RESULT:      -5.3      1.978      2.778
REMARK  5 active torsions:
REMARK  status: ('A' for Active; 'I' for Inactive)
REMARK    1  A    between atoms: C_2  and  C_3 
REMARK    2  A    between atoms: C_2  and  N_15 
REMARK       I    between atoms: C_3  and  N_5 
REMARK    3  A    between atoms: N_5  and  C_6 
REMARK    4  A    between atoms: C_6  and  C_7 
REMARK    5  A    between atoms: C_7  and  N_8 
ROOT
HETATM    1  C   UNL     1     -41.436 -49.058  11.282  1.00  0.00     0.242 C 
HETATM    2  O   UNL     1     -40.242 -49.214  11.015  1.00  0.00    -0.271 OA
HETATM    3  N   UNL     1     -42.215 -50.079  11.798  1.00  0.00    -0.358 N 
HETATM    4  H   UNL     1     -43.066 -49.799  12.290  1.00  0.00     0.162 HD
ENDROOT
BRANCH   1   5
HETATM    5  C   UNL     1     -42.159 -47.745  11.014  1.00  0.00     0.196 C 
HETATM    6  C   UNL     1     -42.807 -47.764   9.628  1.00  0.00     0.044 C 
BRANCH   5   7
HETATM    7  N   UNL     1     -41.255 -46.625  11.209  1.00  0.00    -0.273 N 
HETATM    8  C   UNL     1     -41.111 -45.811  12.290  1.00  0.00     0.202 A 
HETATM    9  N   UNL     1     -40.147 -44.947  12.066  1.00  0.00    -0.346 N 
HETATM   10  C   UNL     1     -39.735 -45.262  10.805  1.00  0.00     0.198 A 
ATOM     11  HN  UNL     1     -39.793 -44.217  12.685  1.00  0.00     0.167 HD
HETATM   12  N   UNL     1     -40.401 -46.265  10.223  1.00  0.00    -0.292 N 
ATOM     13  HN  UNL     1     -40.293 -46.654   9.286  1.00  0.00     0.188 HD
ENDBRANCH   5   7
ENDBRANCH   1   5
BRANCH   3  14
HETATM   14  C   UNL     1     -41.568 -51.315  12.199  1.00  0.00     0.152 C 
BRANCH  14  15
HETATM   15  C   UNL     1     -42.538 -52.483  12.445  1.00  0.00     0.292 C 
BRANCH  15  16
HETATM   16  N   UNL     1     -43.392 -52.293  13.635  1.00  0.00     0.090 N 
HETATM   17  C   UNL     1     -43.247 -53.391  14.604  1.00  0.00     0.273 C 
HETATM   18  C   UNL     1     -43.916 -54.701  14.170  1.00  0.00     0.034 C 
HETATM   19  C   UNL     1     -45.375 -54.517  13.721  1.00  0.00    -0.015 C 
HETATM   20  C   UNL     1     -46.320 -54.361  14.916  1.00  0.00     0.010 C 
HETATM   21  C   UNL     1     -45.496 -53.322  12.765  1.00  0.00     0.034 C 
HETATM   22  C   UNL     1     -44.814 -52.076  13.330  1.00  0.00     0.273 C 
ENDBRANCH  15  16
ENDBRANCH  14  15
ENDBRANCH   3  14
TORSDOF 5
ENDMDL
MODEL 6
REMARK VINA RESULT:      -5.2      1.554      1.898
REMARK  5 active torsions:
REMARK  status: ('A' for Active; 'I' for Inactive)
REMARK    1  A    between atoms: C_2  and  C_3 
REMARK    2  A    between atoms: C_2  and  N_15 
REMARK       I    between atoms: C_3  and  N_5 
REMARK    3  A    between atoms: N_5  and  C_6 
REMARK    4  A    between atoms: C_6  and  C_7 
REMARK    5  A    between atoms: C_7  and  N_8 
ROOT
HETATM    1  C   UNL     1     -40.010 -52.098  13.172  1.00  0.00     0.242 C 
HETATM    2  O   UNL     1     -39.887 -52.233  14.391  1.00  0.00    -0.271 OA
HETATM    3  N   UNL     1     -40.780 -52.959  12.410  1.00  0.00    -0.358 N 
HETATM    4  H   UNL     1     -41.097 -52.607  11.504  1.00  0.00     0.162 HD
ENDROOT
BRANCH   1   5
HETATM    5  C   UNL     1     -39.281 -51.006  12.402  1.00  0.00     0.196 C 
HETATM    6  C   UNL     1     -38.117 -50.454  13.227  1.00  0.00     0.044 C 
BRANCH   5   7
HETATM    7  N   UNL     1     -40.217 -49.981  11.975  1.00  0.00    -0.273 N 
HETATM    8  C   UNL     1     -40.932 -49.100  12.726  1.00  0.00     0.202 A 
HETATM    9  N   UNL     1     -41.630 -48.313  11.939  1.00  0.00    -0.346 N 
HETATM   10  C   UNL     1     -41.320 -48.769  10.692  1.00  0.00     0.198 A 
ATOM     11  HN  UNL     1     -42.252 -47.547  12.198  1.00  0.00     0.167 HD
HETATM   12  N   UNL     1     -40.480 -49.809  10.659  1.00  0.00    -0.292 N 
ATOM     13  HN  UNL     1     -40.131 -50.332   9.856  1.00  0.00     0.188 HD
ENDBRANCH   5   7
ENDBRANCH   1   5
BRANCH   3  14
HETATM   14  C   UNL     1     -41.606 -53.942  13.088  1.00  0.00     0.152 C 
BRANCH  14  15
HETATM   15  C   UNL     1     -43.116 -53.658  13.010  1.00  0.00     0.292 C 
BRANCH  15  16
HETATM   16  N   UNL     1     -43.715 -53.317  14.317  1.00  0.00     0.090 N 
HETATM   17  C   UNL     1     -45.041 -53.930  14.496  1.00  0.00     0.273 C 
HETATM   18  C   UNL     1     -46.151 -53.272  13.667  1.00  0.00     0.034 C 
HETATM   19  C   UNL     1     -46.196 -51.742  13.819  1.00  0.00    -0.015 C 
HETATM   20  C   UNL     1     -46.851 -51.324  15.138  1.00  0.00     0.010 C 
HETATM   21  C   UNL     1     -44.786 -51.149  13.693  1.00  0.00     0.034 C 
HETATM   22  C   UNL     1     -43.786 -51.874  14.592  1.00  0.00     0.273 C 
ENDBRANCH  15  16
ENDBRANCH  14  15
ENDBRANCH   3  14
TORSDOF 5
ENDMDL
MODEL 7
REMARK VINA RESULT:      -4.9      2.481      3.969
REMARK  5 active torsions:
REMARK  status: ('A' for Active; 'I' for Inactive)
REMARK    1  A    between atoms: C_2  and  C_3 
REMARK    2  A    between atoms: C_2  and  N_15 
REMARK       I    between atoms: C_3  and  N_5 
REMARK    3  A    between atoms: N_5  and  C_6 
REMARK    4  A    between atoms: C_6  and  C_7 
REMARK    5  A    between atoms: C_7  and  N_8 
ROOT
HETATM    1  C   UNL     1     -42.481 -48.446  11.762  1.00  0.00     0.242 C 
HETATM    2  O   UNL     1     -42.988 -47.805  12.685  1.00  0.00    -0.271 OA
HETATM    3  N   UNL     1     -42.321 -49.819  11.819  1.00  0.00    -0.358 N 
HETATM    4  H   UNL     1     -42.211 -50.303  10.926  1.00  0.00     0.162 HD
ENDROOT
BRANCH   1   5
HETATM    5  C   UNL     1     -41.942 -47.770  10.509  1.00  0.00     0.196 C 
HETATM    6  C   UNL     1     -41.413 -46.372  10.840  1.00  0.00     0.044 C 
BRANCH   5   7
HETATM    7  N   UNL     1     -42.951 -47.767   9.465  1.00  0.00    -0.273 N 
HETATM    8  C   UNL     1     -44.262 -47.405   9.533  1.00  0.00     0.202 A 
HETATM    9  N   UNL     1     -44.812 -47.515   8.345  1.00  0.00    -0.346 N 
HETATM   10  C   UNL     1     -43.788 -47.974   7.570  1.00  0.00     0.198 A 
ATOM     11  HN  UNL     1     -45.772 -47.307   8.070  1.00  0.00     0.167 HD
HETATM   12  N   UNL     1     -42.634 -48.173   8.214  1.00  0.00    -0.292 N 
ATOM     13  HN  UNL     1     -41.749 -48.535   7.857  1.00  0.00     0.188 HD
ENDBRANCH   5   7
ENDBRANCH   1   5
BRANCH   3  14
HETATM   14  C   UNL     1     -42.926 -50.545  12.922  1.00  0.00     0.152 C 
BRANCH  14  15
HETATM   15  C   UNL     1     -41.990 -50.761  14.123  1.00  0.00     0.292 C 
BRANCH  15  16
HETATM   16  N   UNL     1     -41.996 -52.149  14.628  1.00  0.00     0.090 N 
HETATM   17  C   UNL     1     -41.038 -52.344  15.727  1.00  0.00     0.273 C 
HETATM   18  C   UNL     1     -39.570 -52.373  15.280  1.00  0.00     0.034 C 
HETATM   19  C   UNL     1     -39.312 -53.338  14.110  1.00  0.00    -0.015 C 
HETATM   20  C   UNL     1     -39.260 -54.794  14.579  1.00  0.00     0.010 C 
HETATM   21  C   UNL     1     -40.372 -53.149  13.016  1.00  0.00     0.034 C 
HETATM   22  C   UNL     1     -41.787 -53.170  13.591  1.00  0.00     0.273 C 
ENDBRANCH  15  16
ENDBRANCH  14  15
ENDBRANCH   3  14
TORSDOF 5
ENDMDL
MODEL 8
REMARK VINA RESULT:      -4.8      2.700      6.173
REMARK  5 active torsions:
REMARK  status: ('A' for Active; 'I' for Inactive)
REMARK    1  A    between atoms: C_2  and  C_3 
REMARK    2  A    between atoms: C_2  and  N_15 
REMARK       I    between atoms: C_3  and  N_5 
REMARK    3  A    between atoms: N_5  and  C_6 
REMARK    4  A    between atoms: C_6  and  C_7 
REMARK    5  A    between atoms: C_7  and  N_8 
ROOT
HETATM    1  C   UNL     1     -43.318 -54.056  14.650  1.00  0.00     0.242 C 
HETATM    2  O   UNL     1     -42.562 -53.793  15.588  1.00  0.00    -0.271 OA
HETATM    3  N   UNL     1     -42.875 -54.113  13.341  1.00  0.00    -0.358 N 
HETATM    4  H   UNL     1     -43.454 -54.643  12.686  1.00  0.00     0.162 HD
ENDROOT
BRANCH   1   5
HETATM    5  C   UNL     1     -44.809 -54.288  14.855  1.00  0.00     0.196 C 
HETATM    6  C   UNL     1     -45.363 -55.205  13.763  1.00  0.00     0.044 C 
BRANCH   5   7
HETATM    7  N   UNL     1     -45.507 -53.017  14.945  1.00  0.00    -0.273 N 
HETATM    8  C   UNL     1     -46.504 -52.524  14.161  1.00  0.00     0.202 A 
HETATM    9  N   UNL     1     -46.883 -51.351  14.614  1.00  0.00    -0.346 N 
HETATM   10  C   UNL     1     -46.062 -51.153  15.686  1.00  0.00     0.198 A 
ATOM     11  HN  UNL     1     -47.613 -50.737  14.253  1.00  0.00     0.167 HD
HETATM   12  N   UNL     1     -45.180 -52.131  15.914  1.00  0.00    -0.292 N 
ATOM     13  HN  UNL     1     -44.455 -52.194  16.629  1.00  0.00     0.188 HD
ENDBRANCH   5   7
ENDBRANCH   1   5
BRANCH   3  14
HETATM   14  C   UNL     1     -41.449 -54.032  13.083  1.00  0.00     0.152 C 
BRANCH  14  15
HETATM   15  C   UNL     1     -41.025 -52.801  12.264  1.00  0.00     0.292 C 
BRANCH  15  16
HETATM   16  N   UNL     1     -41.047 -51.545  13.042  1.00  0.00     0.090 N 
HETATM   17  C   UNL     1     -41.494 -50.400  12.234  1.00  0.00     0.273 C 
HETATM   18  C   UNL     1     -40.454 -49.906  11.219  1.00  0.00     0.034 C 
HETATM   19  C   UNL     1     -39.066 -49.671  11.840  1.00  0.00    -0.015 C 
HETATM   20  C   UNL     1     -39.012 -48.357  12.623  1.00  0.00     0.010 C 
HETATM   21  C   UNL     1     -38.667 -50.857  12.728  1.00  0.00     0.034 C 
HETATM   22  C   UNL     1     -39.778 -51.226  13.711  1.00  0.00     0.273 C 
ENDBRANCH  15  16
ENDBRANCH  14  15
ENDBRANCH   3  14
TORSDOF 5
ENDMDL
MODEL 9
REMARK VINA RESULT:      -4.8      2.099      7.019
REMARK  5 active torsions:
REMARK  status: ('A' for Active; 'I' for Inactive)
REMARK    1  A    between atoms: C_2  and  C_3 
REMARK    2  A    between atoms: C_2  and  N_15 
REMARK       I    between atoms: C_3  and  N_5 
REMARK    3  A    between atoms: N_5  and  C_6 
REMARK    4  A    between atoms: C_6  and  C_7 
REMARK    5  A    between atoms: C_7  and  N_8 
ROOT
HETATM    1  C   UNL     1     -44.333 -50.694  13.761  1.00  0.00     0.242 C 
HETATM    2  O   UNL     1     -44.016 -50.190  14.840  1.00  0.00    -0.271 OA
HETATM    3  N   UNL     1     -43.824 -50.239  12.557  1.00  0.00    -0.358 N 
HETATM    4  H   UNL     1     -43.865 -50.889  11.770  1.00  0.00     0.162 HD
ENDROOT
BRANCH   1   5
HETATM    5  C   UNL     1     -45.352 -51.822  13.663  1.00  0.00     0.196 C 
HETATM    6  C   UNL     1     -46.665 -51.418  14.338  1.00  0.00     0.044 C 
BRANCH   5   7
HETATM    7  N   UNL     1     -44.791 -53.052  14.193  1.00  0.00    -0.273 N 
HETATM    8  C   UNL     1     -44.672 -54.271  13.600  1.00  0.00     0.202 A 
HETATM    9  N   UNL     1     -44.066 -55.103  14.416  1.00  0.00    -0.346 N 
HETATM   10  C   UNL     1     -43.846 -54.341  15.526  1.00  0.00     0.198 A 
ATOM     11  HN  UNL     1     -43.821 -56.081  14.259  1.00  0.00     0.167 HD
HETATM   12  N   UNL     1     -44.296 -53.085  15.452  1.00  0.00    -0.292 N 
ATOM     13  HN  UNL     1     -44.273 -52.348  16.157  1.00  0.00     0.188 HD
ENDBRANCH   5   7
ENDBRANCH   1   5
BRANCH   3  14
HETATM   14  C   UNL     1     -42.754 -49.257  12.580  1.00  0.00     0.152 C 
BRANCH  14  15
HETATM   15  C   UNL     1     -43.078 -47.955  11.828  1.00  0.00     0.292 C 
BRANCH  15  16
HETATM   16  N   UNL     1     -42.170 -47.694  10.692  1.00  0.00     0.090 N 
HETATM   17  C   UNL     1     -40.754 -47.812  11.076  1.00  0.00     0.273 C 
HETATM   18  C   UNL     1     -40.237 -46.645  11.927  1.00  0.00     0.034 C 
HETATM   19  C   UNL     1     -40.562 -45.267  11.326  1.00  0.00    -0.015 C 
HETATM   20  C   UNL     1     -39.620 -44.918  10.170  1.00  0.00     0.010 C 
HETATM   21  C   UNL     1     -42.028 -45.208  10.878  1.00  0.00     0.034 C 
HETATM   22  C   UNL     1     -42.403 -46.411  10.014  1.00  0.00     0.273 C 
ENDBRANCH  15  16
ENDBRANCH  14  15
ENDBRANCH   3  14
TORSDOF 5
ENDMDL
