MODEL 1
REMARK VINA RESULT:      -6.1      0.000      0.000
REMARK  2 active torsions:
REMARK  status: ('A' for Active; 'I' for Inactive)
REMARK    1  A    between atoms: C_5  and  N_8 
REMARK       I    between atoms: N_8  and  C_9 
REMARK       I    between atoms: C_9  and  N_11 
REMARK    2  A    between atoms: N_11  and  C_12 
ROOT
HETATM    1  N   UNL     1     -42.815 -51.156  12.790  1.00  0.00    -0.338 N 
HETATM    2  C   UNL     1     -42.819 -49.802  12.526  1.00  0.00     0.322 C 
HETATM    3  O   UNL     1     -43.415 -48.990  13.220  1.00  0.00    -0.247 OA
HETATM    4  N   UNL     1     -42.138 -49.518  11.365  1.00  0.00    -0.295 N 
HETATM    5  H   UNL     1     -41.952 -51.626  12.553  1.00  0.00     0.164 HD
HETATM    6  H   UNL     1     -42.257 -50.203  10.630  1.00  0.00     0.172 HD
ENDROOT
BRANCH   1   7
HETATM    7  C   UNL     1     -43.615 -51.693  13.888  1.00  0.00     0.089 C 
HETATM    8  C   UNL     1     -43.096 -53.044  14.390  1.00  0.00     0.055 C 
HETATM    9  C   UNL     1     -43.470 -54.189  13.450  1.00  0.00     0.274 C 
HETATM   10  N   UNL     1     -44.899 -54.256  13.119  1.00  0.00     0.084 N 
HETATM   11  C   UNL     1     -45.704 -54.752  14.234  1.00  0.00     0.309 C 
HETATM   12  C   UNL     1     -45.391 -52.975  12.601  1.00  0.00     0.274 C 
HETATM   13  C   UNL     1     -45.092 -51.777  13.502  1.00  0.00     0.055 C 
ENDBRANCH   1   7
BRANCH   4  14
HETATM   14  C   UNL     1     -42.061 -48.217  10.857  1.00  0.00     0.109 A 
HETATM   15  C   UNL     1     -40.961 -47.404  11.109  1.00  0.00     0.055 A 
HETATM   16  C   UNL     1     -40.944 -46.111  10.585  1.00  0.00    -0.057 A 
HETATM   17  C   UNL     1     -39.761 -45.214  10.778  1.00  0.00     0.048 C 
HETATM   18  C   UNL     1     -42.059 -45.672   9.875  1.00  0.00     0.031 A 
HETATM   19  C   UNL     1     -43.117 -46.549   9.660  1.00  0.00     0.007 A 
HETATM   20  C   UNL     1     -44.365 -46.086   8.968  1.00  0.00     0.068 C 
HETATM   21  N   UNL     1     -43.111 -47.829  10.102  1.00  0.00    -0.346 N 
ATOM     22  HN  UNL     1     -43.867 -48.473   9.874  1.00  0.00     0.167 HD
ENDBRANCH   4  14
TORSDOF 2
ENDMDL
MODEL 2
REMARK VINA RESULT:      -5.9      2.159      7.434
REMARK  2 active torsions:
REMARK  status: ('A' for Active; 'I' for Inactive)
REMARK    1  A    between atoms: C_5  and  N_8 
REMARK       I    between atoms: N_8  and  C_9 
REMARK       I    between atoms: C_9  and  N_11 
REMARK    2  A    between atoms: N_11  and  C_12 
ROOT
HETATM    1  N   UNL     1     -41.404 -48.129  11.101  1.00  0.00    -0.338 N 
HETATM    2  C   UNL     1     -41.871 -49.228  11.791  1.00  0.00     0.322 C 
HETATM    3  O   UNL     1     -42.755 -49.158  12.634  1.00  0.00    -0.247 OA
HETATM    4  N   UNL     1     -41.171 -50.364  11.457  1.00  0.00    -0.295 N 
HETATM    5  H   UNL     1     -41.130 -48.320  10.147  1.00  0.00     0.164 HD
HETATM    6  H   UNL     1     -40.182 -50.215  11.299  1.00  0.00     0.172 HD
ENDROOT
BRANCH   1   7
HETATM    7  C   UNL     1     -41.901 -46.793  11.422  1.00  0.00     0.089 C 
HETATM    8  C   UNL     1     -41.630 -45.779  10.306  1.00  0.00     0.055 C 
HETATM    9  C   UNL     1     -40.172 -45.321  10.288  1.00  0.00     0.274 C 
HETATM   10  N   UNL     1     -39.675 -44.837  11.582  1.00  0.00     0.084 N 
HETATM   11  C   UNL     1     -40.209 -43.519  11.922  1.00  0.00     0.309 C 
HETATM   12  C   UNL     1     -39.898 -45.821  12.646  1.00  0.00     0.274 C 
HETATM   13  C   UNL     1     -41.343 -46.306  12.760  1.00  0.00     0.055 C 
ENDBRANCH   1   7
BRANCH   4  14
HETATM   14  C   UNL     1     -41.422 -51.592  12.076  1.00  0.00     0.109 A 
HETATM   15  C   UNL     1     -40.392 -52.355  12.615  1.00  0.00     0.055 A 
HETATM   16  C   UNL     1     -40.702 -53.579  13.212  1.00  0.00    -0.057 A 
HETATM   17  C   UNL     1     -39.641 -54.414  13.858  1.00  0.00     0.048 C 
HETATM   18  C   UNL     1     -42.027 -54.007  13.191  1.00  0.00     0.031 A 
HETATM   19  C   UNL     1     -43.001 -53.181  12.637  1.00  0.00     0.007 A 
HETATM   20  C   UNL     1     -44.423 -53.644  12.527  1.00  0.00     0.068 C 
HETATM   21  N   UNL     1     -42.720 -51.960  12.122  1.00  0.00    -0.346 N 
ATOM     22  HN  UNL     1     -43.459 -51.344  11.784  1.00  0.00     0.167 HD
ENDBRANCH   4  14
TORSDOF 2
ENDMDL
MODEL 3
REMARK VINA RESULT:      -5.9      1.533      7.500
REMARK  2 active torsions:
REMARK  status: ('A' for Active; 'I' for Inactive)
REMARK    1  A    between atoms: C_5  and  N_8 
REMARK       I    between atoms: N_8  and  C_9 
REMARK       I    between atoms: C_9  and  N_11 
REMARK    2  A    between atoms: N_11  and  C_12 
ROOT
HETATM    1  N   UNL     1     -42.740 -49.621  11.947  1.00  0.00    -0.338 N 
HETATM    2  C   UNL     1     -43.116 -50.573  12.871  1.00  0.00     0.322 C 
HETATM    3  O   UNL     1     -43.745 -50.306  13.885  1.00  0.00    -0.247 OA
HETATM    4  N   UNL     1     -42.633 -51.816  12.531  1.00  0.00    -0.295 N 
HETATM    5  H   UNL     1     -42.738 -49.944  10.989  1.00  0.00     0.164 HD
HETATM    6  H   UNL     1     -41.708 -51.809  12.121  1.00  0.00     0.172 HD
ENDROOT
BRANCH   1   7
HETATM    7  C   UNL     1     -43.012 -48.207  12.197  1.00  0.00     0.089 C 
HETATM    8  C   UNL     1     -43.544 -47.480  10.958  1.00  0.00     0.055 C 
HETATM    9  C   UNL     1     -42.436 -47.173   9.951  1.00  0.00     0.274 C 
HETATM   10  N   UNL     1     -41.278 -46.475  10.523  1.00  0.00     0.084 N 
HETATM   11  C   UNL     1     -41.565 -45.071  10.814  1.00  0.00     0.309 C 
HETATM   12  C   UNL     1     -40.741 -47.188  11.686  1.00  0.00     0.274 C 
HETATM   13  C   UNL     1     -41.778 -47.502  12.764  1.00  0.00     0.055 C 
ENDBRANCH   1   7
BRANCH   4  14
HETATM   14  C   UNL     1     -42.831 -52.932  13.351  1.00  0.00     0.109 A 
HETATM   15  C   UNL     1     -41.811 -53.431  14.154  1.00  0.00     0.055 A 
HETATM   16  C   UNL     1     -42.064 -54.554  14.944  1.00  0.00    -0.057 A 
HETATM   17  C   UNL     1     -41.021 -55.099  15.868  1.00  0.00     0.048 C 
HETATM   18  C   UNL     1     -43.316 -55.158  14.851  1.00  0.00     0.031 A 
HETATM   19  C   UNL     1     -44.286 -54.591  14.029  1.00  0.00     0.007 A 
HETATM   20  C   UNL     1     -45.616 -55.259  13.846  1.00  0.00     0.068 C 
HETATM   21  N   UNL     1     -44.073 -53.461  13.316  1.00  0.00    -0.346 N 
ATOM     22  HN  UNL     1     -44.820 -53.027  12.774  1.00  0.00     0.167 HD
ENDBRANCH   4  14
TORSDOF 2
ENDMDL
MODEL 4
REMARK VINA RESULT:      -5.9      1.547      7.723
REMARK  2 active torsions:
REMARK  status: ('A' for Active; 'I' for Inactive)
REMARK    1  A    between atoms: C_5  and  N_8 
REMARK       I    between atoms: N_8  and  C_9 
REMARK       I    between atoms: C_9  and  N_11 
REMARK    2  A    between atoms: N_11  and  C_12 
ROOT
HETATM    1  N   UNL     1     -42.695 -49.331  11.996  1.00  0.00    -0.338 N 
HETATM    2  C   UNL     1     -42.953 -50.324  12.916  1.00  0.00     0.322 C 
HETATM    3  O   UNL     1     -43.128 -50.101  14.106  1.00  0.00    -0.247 OA
HETATM    4  N   UNL     1     -42.914 -51.569  12.332  1.00  0.00    -0.295 N 
HETATM    5  H   UNL     1     -43.087 -49.497  11.079  1.00  0.00     0.164 HD
HETATM    6  H   UNL     1     -42.203 -51.675  11.619  1.00  0.00     0.172 HD
ENDROOT
BRANCH   1   7
HETATM    7  C   UNL     1     -42.532 -47.946  12.434  1.00  0.00     0.089 C 
HETATM    8  C   UNL     1     -43.100 -46.938  11.431  1.00  0.00     0.055 C 
HETATM    9  C   UNL     1     -42.183 -46.749  10.223  1.00  0.00     0.274 C 
HETATM   10  N   UNL     1     -40.790 -46.434  10.567  1.00  0.00     0.084 N 
HETATM   11  C   UNL     1     -40.635 -45.062  11.048  1.00  0.00     0.309 C 
HETATM   12  C   UNL     1     -40.229 -47.419  11.497  1.00  0.00     0.274 C 
HETATM   13  C   UNL     1     -41.068 -47.641  12.756  1.00  0.00     0.055 C 
ENDBRANCH   1   7
BRANCH   4  14
HETATM   14  C   UNL     1     -43.081 -52.739  13.080  1.00  0.00     0.109 A 
HETATM   15  C   UNL     1     -44.285 -53.435  13.076  1.00  0.00     0.055 A 
HETATM   16  C   UNL     1     -44.397 -54.591  13.850  1.00  0.00    -0.057 A 
HETATM   17  C   UNL     1     -45.650 -55.410  13.839  1.00  0.00     0.048 C 
HETATM   18  C   UNL     1     -43.311 -54.966  14.638  1.00  0.00     0.031 A 
HETATM   19  C   UNL     1     -42.139 -54.219  14.580  1.00  0.00     0.007 A 
HETATM   20  C   UNL     1     -40.979 -54.549  15.472  1.00  0.00     0.068 C 
HETATM   21  N   UNL     1     -41.996 -53.140  13.776  1.00  0.00    -0.346 N 
ATOM     22  HN  UNL     1     -41.106 -52.649  13.699  1.00  0.00     0.167 HD
ENDBRANCH   4  14
TORSDOF 2
ENDMDL
MODEL 5
REMARK VINA RESULT:      -5.8      1.677      1.955
REMARK  2 active torsions:
REMARK  status: ('A' for Active; 'I' for Inactive)
REMARK    1  A    between atoms: C_5  and  N_8 
REMARK       I    between atoms: N_8  and  C_9 
REMARK       I    between atoms: C_9  and  N_11 
REMARK    2  A    between atoms: N_11  and  C_12 
ROOT
HETATM    1  N   UNL     1     -43.724 -50.091  12.541  1.00  0.00    -0.338 N 
HETATM    2  C   UNL     1     -43.031 -48.921  12.774  1.00  0.00     0.322 C 
HETATM    3  O   UNL     1     -42.630 -48.594  13.882  1.00  0.00    -0.247 OA
HETATM    4  N   UNL     1     -42.925 -48.166  11.628  1.00  0.00    -0.295 N 
HETATM    5  H   UNL     1     -43.538 -50.515  11.642  1.00  0.00     0.164 HD
HETATM    6  H   UNL     1     -43.743 -48.191  11.033  1.00  0.00     0.172 HD
ENDROOT
BRANCH   1   7
HETATM    7  C   UNL     1     -44.088 -50.964  13.654  1.00  0.00     0.089 C 
HETATM    8  C   UNL     1     -43.236 -52.236  13.710  1.00  0.00     0.055 C 
HETATM    9  C   UNL     1     -43.664 -53.261  12.660  1.00  0.00     0.274 C 
HETATM   10  N   UNL     1     -45.098 -53.577  12.675  1.00  0.00     0.084 N 
HETATM   11  C   UNL     1     -45.469 -54.414  13.815  1.00  0.00     0.309 C 
HETATM   12  C   UNL     1     -45.917 -52.364  12.582  1.00  0.00     0.274 C 
HETATM   13  C   UNL     1     -45.580 -51.298  13.624  1.00  0.00     0.055 C 
ENDBRANCH   1   7
BRANCH   4  14
HETATM   14  C   UNL     1     -42.319 -46.906  11.631  1.00  0.00     0.109 A 
HETATM   15  C   UNL     1     -41.223 -46.628  10.822  1.00  0.00     0.055 A 
HETATM   16  C   UNL     1     -40.653 -45.355  10.874  1.00  0.00    -0.057 A 
HETATM   17  C   UNL     1     -39.508 -44.983   9.986  1.00  0.00     0.048 C 
HETATM   18  C   UNL     1     -41.177 -44.433  11.778  1.00  0.00     0.031 A 
HETATM   19  C   UNL     1     -42.281 -44.788  12.548  1.00  0.00     0.007 A 
HETATM   20  C   UNL     1     -42.822 -43.849  13.585  1.00  0.00     0.068 C 
HETATM   21  N   UNL     1     -42.886 -45.995  12.450  1.00  0.00    -0.346 N 
ATOM     22  HN  UNL     1     -43.734 -46.208  12.974  1.00  0.00     0.167 HD
ENDBRANCH   4  14
TORSDOF 2
ENDMDL
MODEL 6
REMARK VINA RESULT:      -5.8      2.032      2.609
REMARK  2 active torsions:
REMARK  status: ('A' for Active; 'I' for Inactive)
REMARK    1  A    between atoms: C_5  and  N_8 
REMARK       I    between atoms: N_8  and  C_9 
REMARK       I    between atoms: C_9  and  N_11 
REMARK    2  A    between atoms: N_11  and  C_12 
ROOT
HETATM    1  N   UNL     1     -41.365 -51.416  12.417  1.00  0.00    -0.338 N 
HETATM    2  C   UNL     1     -41.837 -50.136  12.218  1.00  0.00     0.322 C 
HETATM    3  O   UNL     1     -42.707 -49.631  12.914  1.00  0.00    -0.247 OA
HETATM    4  N   UNL     1     -41.258 -49.556  11.112  1.00  0.00    -0.295 N 
HETATM    5  H   UNL     1     -40.383 -51.537  12.210  1.00  0.00     0.164 HD
HETATM    6  H   UNL     1     -41.100 -50.192  10.341  1.00  0.00     0.172 HD
ENDROOT
BRANCH   1   7
HETATM    7  C   UNL     1     -41.963 -52.270  13.442  1.00  0.00     0.089 C 
HETATM    8  C   UNL     1     -41.388 -52.010  14.837  1.00  0.00     0.055 C 
HETATM    9  C   UNL     1     -40.003 -52.631  15.013  1.00  0.00     0.274 C 
HETATM   10  N   UNL     1     -39.932 -54.056  14.663  1.00  0.00     0.084 N 
HETATM   11  C   UNL     1     -40.571 -54.905  15.667  1.00  0.00     0.309 C 
HETATM   12  C   UNL     1     -40.446 -54.304  13.312  1.00  0.00     0.274 C 
HETATM   13  C   UNL     1     -41.848 -53.747  13.062  1.00  0.00     0.055 C 
ENDBRANCH   1   7
BRANCH   4  14
HETATM   14  C   UNL     1     -41.627 -48.281  10.672  1.00  0.00     0.109 A 
HETATM   15  C   UNL     1     -40.858 -47.162  10.968  1.00  0.00     0.055 A 
HETATM   16  C   UNL     1     -41.281 -45.913  10.510  1.00  0.00    -0.057 A 
HETATM   17  C   UNL     1     -40.463 -44.683  10.752  1.00  0.00     0.048 C 
HETATM   18  C   UNL     1     -42.489 -45.837   9.820  1.00  0.00     0.031 A 
HETATM   19  C   UNL     1     -43.197 -47.007   9.558  1.00  0.00     0.007 A 
HETATM   20  C   UNL     1     -44.537 -46.953   8.888  1.00  0.00     0.068 C 
HETATM   21  N   UNL     1     -42.757 -48.230   9.934  1.00  0.00    -0.346 N 
ATOM     22  HN  UNL     1     -43.258 -49.078   9.672  1.00  0.00     0.167 HD
ENDBRANCH   4  14
TORSDOF 2
ENDMDL
MODEL 7
REMARK VINA RESULT:      -5.8      2.232      3.421
REMARK  2 active torsions:
REMARK  status: ('A' for Active; 'I' for Inactive)
REMARK    1  A    between atoms: C_5  and  N_8 
REMARK       I    between atoms: N_8  and  C_9 
REMARK       I    between atoms: C_9  and  N_11 
REMARK    2  A    between atoms: N_11  and  C_12 
ROOT
HETATM    1  N   UNL     1     -41.260 -51.227  12.372  1.00  0.00    -0.338 N 
HETATM    2  C   UNL     1     -41.480 -49.871  12.258  1.00  0.00     0.322 C 
HETATM    3  O   UNL     1     -41.728 -49.153  13.217  1.00  0.00    -0.247 OA
HETATM    4  N   UNL     1     -41.453 -49.469  10.942  1.00  0.00    -0.295 N 
HETATM    5  H   UNL     1     -40.583 -51.598  11.719  1.00  0.00     0.164 HD
HETATM    6  H   UNL     1     -41.860 -50.130  10.294  1.00  0.00     0.172 HD
ENDROOT
BRANCH   1   7
HETATM    7  C   UNL     1     -41.404 -51.889  13.667  1.00  0.00     0.089 C 
HETATM    8  C   UNL     1     -40.134 -51.803  14.518  1.00  0.00     0.055 C 
HETATM    9  C   UNL     1     -39.058 -52.781  14.047  1.00  0.00     0.274 C 
HETATM   10  N   UNL     1     -39.520 -54.169  13.915  1.00  0.00     0.084 N 
HETATM   11  C   UNL     1     -39.707 -54.816  15.212  1.00  0.00     0.309 C 
HETATM   12  C   UNL     1     -40.714 -54.260  13.068  1.00  0.00     0.274 C 
HETATM   13  C   UNL     1     -41.857 -53.340  13.494  1.00  0.00     0.055 C 
ENDBRANCH   1   7
BRANCH   4  14
HETATM   14  C   UNL     1     -41.714 -48.146  10.571  1.00  0.00     0.109 A 
HETATM   15  C   UNL     1     -42.892 -47.795   9.921  1.00  0.00     0.055 A 
HETATM   16  C   UNL     1     -43.094 -46.460   9.566  1.00  0.00    -0.057 A 
HETATM   17  C   UNL     1     -44.366 -46.018   8.915  1.00  0.00     0.048 C 
HETATM   18  C   UNL     1     -42.077 -45.546   9.831  1.00  0.00     0.031 A 
HETATM   19  C   UNL     1     -40.930 -45.976  10.493  1.00  0.00     0.007 A 
HETATM   20  C   UNL     1     -39.785 -45.036  10.724  1.00  0.00     0.068 C 
HETATM   21  N   UNL     1     -40.758 -47.253  10.906  1.00  0.00    -0.346 N 
ATOM     22  HN  UNL     1     -39.940 -47.530  11.449  1.00  0.00     0.167 HD
ENDBRANCH   4  14
TORSDOF 2
ENDMDL
MODEL 8
REMARK VINA RESULT:      -5.7      1.901      7.556
REMARK  2 active torsions:
REMARK  status: ('A' for Active; 'I' for Inactive)
REMARK    1  A    between atoms: C_5  and  N_8 
REMARK       I    between atoms: N_8  and  C_9 
REMARK       I    between atoms: C_9  and  N_11 
REMARK    2  A    between atoms: N_11  and  C_12 
ROOT
HETATM    1  N   UNL     1     -43.065 -49.096  12.110  1.00  0.00    -0.338 N 
HETATM    2  C   UNL     1     -43.532 -49.945  13.091  1.00  0.00     0.322 C 
HETATM    3  O   UNL     1     -42.986 -50.072  14.178  1.00  0.00    -0.247 OA
HETATM    4  N   UNL     1     -44.625 -50.659  12.655  1.00  0.00    -0.295 N 
HETATM    5  H   UNL     1     -43.788 -48.667  11.548  1.00  0.00     0.164 HD
HETATM    6  H   UNL     1     -44.582 -50.940  11.684  1.00  0.00     0.172 HD
ENDROOT
BRANCH   1   7
HETATM    7  C   UNL     1     -41.818 -48.361  12.306  1.00  0.00     0.089 C 
HETATM    8  C   UNL     1     -42.004 -47.095  13.147  1.00  0.00     0.055 C 
HETATM    9  C   UNL     1     -42.641 -45.960  12.345  1.00  0.00     0.274 C 
HETATM   10  N   UNL     1     -41.963 -45.664  11.077  1.00  0.00     0.084 N 
HETATM   11  C   UNL     1     -40.693 -44.968  11.277  1.00  0.00     0.309 C 
HETATM   12  C   UNL     1     -41.817 -46.867  10.251  1.00  0.00     0.274 C 
HETATM   13  C   UNL     1     -41.152 -48.042  10.966  1.00  0.00     0.055 C 
ENDBRANCH   1   7
BRANCH   4  14
HETATM   14  C   UNL     1     -45.235 -51.632  13.454  1.00  0.00     0.109 A 
HETATM   15  C   UNL     1     -45.100 -52.987  13.174  1.00  0.00     0.055 A 
HETATM   16  C   UNL     1     -45.740 -53.913  14.000  1.00  0.00    -0.057 A 
HETATM   17  C   UNL     1     -45.584 -55.384  13.778  1.00  0.00     0.048 C 
HETATM   18  C   UNL     1     -46.532 -53.432  15.040  1.00  0.00     0.031 A 
HETATM   19  C   UNL     1     -46.608 -52.060  15.259  1.00  0.00     0.007 A 
HETATM   20  C   UNL     1     -47.512 -51.505  16.319  1.00  0.00     0.068 C 
HETATM   21  N   UNL     1     -45.933 -51.159  14.508  1.00  0.00    -0.346 N 
ATOM     22  HN  UNL     1     -45.950 -50.163  14.729  1.00  0.00     0.167 HD
ENDBRANCH   4  14
TORSDOF 2
ENDMDL
MODEL 9
REMARK VINA RESULT:      -5.7      1.809      7.559
REMARK  2 active torsions:
REMARK  status: ('A' for Active; 'I' for Inactive)
REMARK    1  A    between atoms: C_5  and  N_8 
REMARK       I    between atoms: N_8  and  C_9 
REMARK       I    between atoms: C_9  and  N_11 
REMARK    2  A    between atoms: N_11  and  C_12 
ROOT
HETATM    1  N   UNL     1     -43.149 -49.412  12.029  1.00  0.00    -0.338 N 
HETATM    2  C   UNL     1     -43.662 -50.158  13.069  1.00  0.00     0.322 C 
HETATM    3  O   UNL     1     -43.116 -50.243  14.160  1.00  0.00    -0.247 OA
HETATM    4  N   UNL     1     -44.801 -50.829  12.688  1.00  0.00    -0.295 N 
HETATM    5  H   UNL     1     -43.847 -48.977  11.441  1.00  0.00     0.164 HD
HETATM    6  H   UNL     1     -44.783 -51.180  11.739  1.00  0.00     0.172 HD
ENDROOT
BRANCH   1   7
HETATM    7  C   UNL     1     -41.855 -48.747  12.169  1.00  0.00     0.089 C 
HETATM    8  C   UNL     1     -41.936 -47.471  13.013  1.00  0.00     0.055 C 
HETATM    9  C   UNL     1     -42.542 -46.304  12.234  1.00  0.00     0.274 C 
HETATM   10  N   UNL     1     -41.904 -46.047  10.937  1.00  0.00     0.084 N 
HETATM   11  C   UNL     1     -40.589 -45.423  11.080  1.00  0.00     0.309 C 
HETATM   12  C   UNL     1     -41.859 -47.258  10.110  1.00  0.00     0.274 C 
HETATM   13  C   UNL     1     -41.230 -48.467  10.801  1.00  0.00     0.055 C 
ENDBRANCH   1   7
BRANCH   4  14
HETATM   14  C   UNL     1     -45.466 -51.702  13.555  1.00  0.00     0.109 A 
HETATM   15  C   UNL     1     -46.206 -51.229  14.633  1.00  0.00     0.055 A 
HETATM   16  C   UNL     1     -46.839 -52.148  15.470  1.00  0.00    -0.057 A 
HETATM   17  C   UNL     1     -47.694 -51.693  16.611  1.00  0.00     0.048 C 
HETATM   18  C   UNL     1     -46.656 -53.506  15.220  1.00  0.00     0.031 A 
HETATM   19  C   UNL     1     -45.905 -53.898  14.115  1.00  0.00     0.007 A 
HETATM   20  C   UNL     1     -45.622 -55.349  13.861  1.00  0.00     0.068 C 
HETATM   21  N   UNL     1     -45.348 -53.013  13.255  1.00  0.00    -0.346 N 
ATOM     22  HN  UNL     1     -44.860 -53.324  12.416  1.00  0.00     0.167 HD
ENDBRANCH   4  14
TORSDOF 2
ENDMDL
