MODEL 1
REMARK VINA RESULT:      -7.1      0.000      0.000
REMARK  7 active torsions:
REMARK  status: ('A' for Active; 'I' for Inactive)
REMARK    1  A    between atoms: C_7  and  O_8 
REMARK    2  A    between atoms: O_8  and  C_9 
REMARK    3  A    between atoms: C_9  and  C_10 
REMARK    4  A    between atoms: C_10  and  O_11 
REMARK    5  A    between atoms: C_10  and  C_12 
REMARK    6  A    between atoms: C_12  and  N_13 
REMARK    7  A    between atoms: C_16  and  N_21 
ROOT
HETATM    1  N   UNL     1     -40.014 -51.314  12.902  1.00  0.00    -0.254 N 
HETATM    2  N   UNL     1     -41.075 -50.531  12.486  1.00  0.00    -0.280 N 
ATOM      3  HN  UNL     1     -42.035 -50.767  12.738  1.00  0.00     0.189 HD
HETATM    4  C   UNL     1     -40.809 -49.485  11.762  1.00  0.00     0.127 A 
HETATM    5  C   UNL     1     -39.456 -49.090  11.324  1.00  0.00     0.056 A 
HETATM    6  C   UNL     1     -38.447 -49.826  11.794  1.00  0.00     0.080 A 
HETATM    7  C   UNL     1     -38.683 -50.988  12.675  1.00  0.00     0.262 A 
HETATM    8  O   UNL     1     -37.720 -51.592  13.140  1.00  0.00    -0.267 OA
ENDROOT
BRANCH   1   9
HETATM    9  C   UNL     1     -40.354 -52.517  13.680  1.00  0.00     0.186 C 
BRANCH   9  10
HETATM   10  C   UNL     1     -40.970 -53.631  12.821  1.00  0.00     0.162 C 
BRANCH  10  11
HETATM   11  C   UNL     1     -42.477 -53.770  13.069  1.00  0.00     0.209 C 
BRANCH  11  12
HETATM   12  O   UNL     1     -42.892 -52.776  14.011  1.00  0.00    -0.349 OA
BRANCH  12  13
HETATM   13  C   UNL     1     -44.193 -52.360  13.929  1.00  0.00     0.069 A 
HETATM   14  C   UNL     1     -44.954 -52.286  12.760  1.00  0.00     0.043 A 
HETATM   15  C   UNL     1     -46.275 -51.819  12.799  1.00  0.00    -0.059 A 
HETATM   16  C   UNL     1     -46.832 -51.429  14.023  1.00  0.00     0.013 A 
HETATM   17  C   UNL     1     -47.068 -51.742  11.526  1.00  0.00     0.048 C 
HETATM   18  C   UNL     1     -46.081 -51.500  15.202  1.00  0.00    -0.059 A 
HETATM   19  C   UNL     1     -46.664 -51.083  16.519  1.00  0.00     0.048 C 
HETATM   20  C   UNL     1     -44.764 -51.971  15.142  1.00  0.00     0.043 A 
ENDBRANCH  12  13
ENDBRANCH  11  12
ENDBRANCH  10  11
BRANCH  10  21
HETATM   21  O   UNL     1     -40.711 -53.367  11.432  1.00  0.00    -0.392 OA
HETATM   22  H   UNL     1     -39.840 -53.777  11.249  1.00  0.00     0.210 HD
ENDBRANCH  10  21
ENDBRANCH   9  10
ENDBRANCH   1   9
BRANCH   4  23
HETATM   23  N   UNL     1     -41.866 -48.643  11.367  1.00  0.00    -0.302 N 
HETATM   24  C   UNL     1     -41.976 -48.015  10.136  1.00  0.00     0.116 A 
HETATM   25  C   UNL     1     -43.168 -47.337  10.149  1.00  0.00     0.106 A 
HETATM   26  N   UNL     1     -43.799 -47.498  11.348  1.00  0.00    -0.360 N 
HETATM   27  C   UNL     1     -43.004 -48.274  12.053  1.00  0.00     0.189 A 
ATOM     28  HN  UNL     1     -44.694 -47.103  11.636  1.00  0.00     0.166 HD
ENDBRANCH   4  23
TORSDOF 7
ENDMDL
MODEL 2
REMARK VINA RESULT:      -7.0      0.501      1.797
REMARK  7 active torsions:
REMARK  status: ('A' for Active; 'I' for Inactive)
REMARK    1  A    between atoms: C_7  and  O_8 
REMARK    2  A    between atoms: O_8  and  C_9 
REMARK    3  A    between atoms: C_9  and  C_10 
REMARK    4  A    between atoms: C_10  and  O_11 
REMARK    5  A    between atoms: C_10  and  C_12 
REMARK    6  A    between atoms: C_12  and  N_13 
REMARK    7  A    between atoms: C_16  and  N_21 
ROOT
HETATM    1  N   UNL     1     -39.796 -51.147  12.920  1.00  0.00    -0.254 N 
HETATM    2  N   UNL     1     -40.802 -50.232  12.671  1.00  0.00    -0.280 N 
ATOM      3  HN  UNL     1     -41.753 -50.391  13.004  1.00  0.00     0.189 HD
HETATM    4  C   UNL     1     -40.496 -49.163  11.999  1.00  0.00     0.127 A 
HETATM    5  C   UNL     1     -39.156 -48.870  11.452  1.00  0.00     0.056 A 
HETATM    6  C   UNL     1     -38.192 -49.739  11.762  1.00  0.00     0.080 A 
HETATM    7  C   UNL     1     -38.466 -50.939  12.579  1.00  0.00     0.262 A 
HETATM    8  O   UNL     1     -37.533 -51.670  12.900  1.00  0.00    -0.267 OA
ENDROOT
BRANCH   1   9
HETATM    9  C   UNL     1     -40.187 -52.369  13.643  1.00  0.00     0.186 C 
BRANCH   9  10
HETATM   10  C   UNL     1     -40.947 -53.370  12.760  1.00  0.00     0.162 C 
BRANCH  10  11
HETATM   11  C   UNL     1     -42.448 -53.379  13.078  1.00  0.00     0.209 C 
BRANCH  11  12
HETATM   12  O   UNL     1     -42.750 -52.287  13.951  1.00  0.00    -0.349 OA
BRANCH  12  13
HETATM   13  C   UNL     1     -44.074 -51.973  14.103  1.00  0.00     0.069 A 
HETATM   14  C   UNL     1     -44.707 -51.668  15.309  1.00  0.00     0.043 A 
HETATM   15  C   UNL     1     -46.080 -51.386  15.342  1.00  0.00    -0.059 A 
HETATM   16  C   UNL     1     -46.816 -51.408  14.151  1.00  0.00     0.013 A 
HETATM   17  C   UNL     1     -46.737 -51.069  16.654  1.00  0.00     0.048 C 
HETATM   18  C   UNL     1     -46.193 -51.711  12.934  1.00  0.00    -0.059 A 
HETATM   19  C   UNL     1     -46.969 -51.741  11.652  1.00  0.00     0.048 C 
HETATM   20  C   UNL     1     -44.820 -51.988  12.923  1.00  0.00     0.043 A 
ENDBRANCH  12  13
ENDBRANCH  11  12
ENDBRANCH  10  11
BRANCH  10  21
HETATM   21  O   UNL     1     -40.727 -53.054  11.375  1.00  0.00    -0.392 OA
HETATM   22  H   UNL     1     -41.563 -53.286  10.921  1.00  0.00     0.210 HD
ENDBRANCH  10  21
ENDBRANCH   9  10
ENDBRANCH   1   9
BRANCH   4  23
HETATM   23  N   UNL     1     -41.490 -48.190  11.775  1.00  0.00    -0.302 N 
HETATM   24  C   UNL     1     -41.599 -47.399  10.642  1.00  0.00     0.116 A 
HETATM   25  C   UNL     1     -42.723 -46.631  10.810  1.00  0.00     0.106 A 
HETATM   26  N   UNL     1     -43.310 -46.896  12.012  1.00  0.00    -0.360 N 
HETATM   27  C   UNL     1     -42.557 -47.821  12.566  1.00  0.00     0.189 A 
ATOM     28  HN  UNL     1     -44.152 -46.469  12.398  1.00  0.00     0.166 HD
ENDBRANCH   4  23
TORSDOF 7
ENDMDL
MODEL 3
REMARK VINA RESULT:      -6.6      2.129      3.853
REMARK  7 active torsions:
REMARK  status: ('A' for Active; 'I' for Inactive)
REMARK    1  A    between atoms: C_7  and  O_8 
REMARK    2  A    between atoms: O_8  and  C_9 
REMARK    3  A    between atoms: C_9  and  C_10 
REMARK    4  A    between atoms: C_10  and  O_11 
REMARK    5  A    between atoms: C_10  and  C_12 
REMARK    6  A    between atoms: C_12  and  N_13 
REMARK    7  A    between atoms: C_16  and  N_21 
ROOT
HETATM    1  N   UNL     1     -41.007 -48.224  11.993  1.00  0.00    -0.254 N 
HETATM    2  N   UNL     1     -42.082 -48.407  11.144  1.00  0.00    -0.280 N 
ATOM      3  HN  UNL     1     -42.622 -49.273  11.156  1.00  0.00     0.189 HD
HETATM    4  C   UNL     1     -42.383 -47.440  10.329  1.00  0.00     0.127 A 
HETATM    5  C   UNL     1     -41.638 -46.170  10.223  1.00  0.00     0.056 A 
HETATM    6  C   UNL     1     -40.646 -45.996  11.098  1.00  0.00     0.080 A 
HETATM    7  C   UNL     1     -40.300 -47.033  12.091  1.00  0.00     0.262 A 
HETATM    8  O   UNL     1     -39.427 -46.798  12.922  1.00  0.00    -0.267 OA
ENDROOT
BRANCH   1   9
HETATM    9  C   UNL     1     -40.664 -49.357  12.868  1.00  0.00     0.186 C 
BRANCH   9  10
HETATM   10  C   UNL     1     -39.859 -50.449  12.148  1.00  0.00     0.162 C 
BRANCH  10  11
HETATM   11  C   UNL     1     -39.775 -51.733  12.982  1.00  0.00     0.209 C 
BRANCH  11  12
HETATM   12  O   UNL     1     -40.496 -52.774  12.317  1.00  0.00    -0.349 OA
BRANCH  12  13
HETATM   13  C   UNL     1     -41.590 -53.274  12.969  1.00  0.00     0.069 A 
HETATM   14  C   UNL     1     -41.564 -54.187  14.026  1.00  0.00     0.043 A 
HETATM   15  C   UNL     1     -42.758 -54.646  14.600  1.00  0.00    -0.059 A 
HETATM   16  C   UNL     1     -43.983 -54.179  14.108  1.00  0.00     0.013 A 
HETATM   17  C   UNL     1     -42.701 -55.633  15.729  1.00  0.00     0.048 C 
HETATM   18  C   UNL     1     -44.022 -53.262  13.051  1.00  0.00    -0.059 A 
HETATM   19  C   UNL     1     -45.327 -52.755  12.513  1.00  0.00     0.048 C 
HETATM   20  C   UNL     1     -42.819 -52.814  12.492  1.00  0.00     0.043 A 
ENDBRANCH  12  13
ENDBRANCH  11  12
ENDBRANCH  10  11
BRANCH  10  21
HETATM   21  O   UNL     1     -40.454 -50.719  10.867  1.00  0.00    -0.392 OA
HETATM   22  H   UNL     1     -39.943 -50.183  10.227  1.00  0.00     0.210 HD
ENDBRANCH  10  21
ENDBRANCH   9  10
ENDBRANCH   1   9
BRANCH   4  23
HETATM   23  N   UNL     1     -43.505 -47.580   9.489  1.00  0.00    -0.302 N 
HETATM   24  C   UNL     1     -44.827 -47.458   9.888  1.00  0.00     0.116 A 
HETATM   25  C   UNL     1     -45.591 -47.617   8.760  1.00  0.00     0.106 A 
HETATM   26  N   UNL     1     -44.799 -47.857   7.674  1.00  0.00    -0.360 N 
HETATM   27  C   UNL     1     -43.568 -47.833   8.135  1.00  0.00     0.189 A 
ATOM     28  HN  UNL     1     -45.099 -48.019   6.713  1.00  0.00     0.166 HD
ENDBRANCH   4  23
TORSDOF 7
ENDMDL
MODEL 4
REMARK VINA RESULT:      -6.6      2.208      3.542
REMARK  7 active torsions:
REMARK  status: ('A' for Active; 'I' for Inactive)
REMARK    1  A    between atoms: C_7  and  O_8 
REMARK    2  A    between atoms: O_8  and  C_9 
REMARK    3  A    between atoms: C_9  and  C_10 
REMARK    4  A    between atoms: C_10  and  O_11 
REMARK    5  A    between atoms: C_10  and  C_12 
REMARK    6  A    between atoms: C_12  and  N_13 
REMARK    7  A    between atoms: C_16  and  N_21 
ROOT
HETATM    1  N   UNL     1     -40.405 -48.354  11.196  1.00  0.00    -0.254 N 
HETATM    2  N   UNL     1     -41.486 -48.544  10.355  1.00  0.00    -0.280 N 
ATOM      3  HN  UNL     1     -41.697 -49.465   9.968  1.00  0.00     0.189 HD
HETATM    4  C   UNL     1     -42.225 -47.513  10.075  1.00  0.00     0.127 A 
HETATM    5  C   UNL     1     -41.974 -46.143  10.563  1.00  0.00     0.056 A 
HETATM    6  C   UNL     1     -40.962 -46.001  11.423  1.00  0.00     0.080 A 
HETATM    7  C   UNL     1     -40.128 -47.150  11.831  1.00  0.00     0.262 A 
HETATM    8  O   UNL     1     -39.255 -46.984  12.678  1.00  0.00    -0.267 OA
ENDROOT
BRANCH   1   9
HETATM    9  C   UNL     1     -39.562 -49.532  11.455  1.00  0.00     0.186 C 
BRANCH   9  10
HETATM   10  C   UNL     1     -40.319 -50.669  12.158  1.00  0.00     0.162 C 
BRANCH  10  11
HETATM   11  C   UNL     1     -41.194 -50.143  13.303  1.00  0.00     0.209 C 
BRANCH  11  12
HETATM   12  O   UNL     1     -42.550 -50.054  12.855  1.00  0.00    -0.349 OA
BRANCH  12  13
HETATM   13  C   UNL     1     -43.520 -50.318  13.784  1.00  0.00     0.069 A 
HETATM   14  C   UNL     1     -43.481 -49.952  15.132  1.00  0.00     0.043 A 
HETATM   15  C   UNL     1     -44.528 -50.303  15.995  1.00  0.00    -0.059 A 
HETATM   16  C   UNL     1     -45.621 -51.022  15.496  1.00  0.00     0.013 A 
HETATM   17  C   UNL     1     -44.457 -49.904  17.440  1.00  0.00     0.048 C 
HETATM   18  C   UNL     1     -45.673 -51.393  14.147  1.00  0.00    -0.059 A 
HETATM   19  C   UNL     1     -46.836 -52.166  13.600  1.00  0.00     0.048 C 
HETATM   20  C   UNL     1     -44.618 -51.032  13.301  1.00  0.00     0.043 A 
ENDBRANCH  12  13
ENDBRANCH  11  12
ENDBRANCH  10  11
BRANCH  10  21
HETATM   21  O   UNL     1     -41.119 -51.379  11.198  1.00  0.00    -0.392 OA
HETATM   22  H   UNL     1     -41.105 -52.313  11.490  1.00  0.00     0.210 HD
ENDBRANCH  10  21
ENDBRANCH   9  10
ENDBRANCH   1   9
BRANCH   4  23
HETATM   23  N   UNL     1     -43.361 -47.689   9.262  1.00  0.00    -0.302 N 
HETATM   24  C   UNL     1     -44.676 -47.602   9.691  1.00  0.00     0.116 A 
HETATM   25  C   UNL     1     -45.461 -47.790   8.582  1.00  0.00     0.106 A 
HETATM   26  N   UNL     1     -44.689 -48.012   7.479  1.00  0.00    -0.360 N 
HETATM   27  C   UNL     1     -43.448 -47.950   7.910  1.00  0.00     0.189 A 
ATOM     28  HN  UNL     1     -45.006 -48.187   6.525  1.00  0.00     0.166 HD
ENDBRANCH   4  23
TORSDOF 7
ENDMDL
MODEL 5
REMARK VINA RESULT:      -6.6      2.837      5.683
REMARK  7 active torsions:
REMARK  status: ('A' for Active; 'I' for Inactive)
REMARK    1  A    between atoms: C_7  and  O_8 
REMARK    2  A    between atoms: O_8  and  C_9 
REMARK    3  A    between atoms: C_9  and  C_10 
REMARK    4  A    between atoms: C_10  and  O_11 
REMARK    5  A    between atoms: C_10  and  C_12 
REMARK    6  A    between atoms: C_12  and  N_13 
REMARK    7  A    between atoms: C_16  and  N_21 
ROOT
HETATM    1  N   UNL     1     -42.471 -49.974  12.747  1.00  0.00    -0.254 N 
HETATM    2  N   UNL     1     -42.831 -49.357  11.563  1.00  0.00    -0.280 N 
ATOM      3  HN  UNL     1     -42.846 -49.874  10.683  1.00  0.00     0.189 HD
HETATM    4  C   UNL     1     -43.148 -48.098  11.608  1.00  0.00     0.127 A 
HETATM    5  C   UNL     1     -43.122 -47.269  12.829  1.00  0.00     0.056 A 
HETATM    6  C   UNL     1     -42.833 -47.906  13.966  1.00  0.00     0.080 A 
HETATM    7  C   UNL     1     -42.528 -49.351  13.986  1.00  0.00     0.262 A 
HETATM    8  O   UNL     1     -42.340 -49.907  15.065  1.00  0.00    -0.267 OA
ENDROOT
BRANCH   1   9
HETATM    9  C   UNL     1     -42.071 -51.388  12.653  1.00  0.00     0.186 C 
BRANCH   9  10
HETATM   10  C   UNL     1     -40.868 -51.610  11.725  1.00  0.00     0.162 C 
BRANCH  10  11
HETATM   11  C   UNL     1     -39.604 -50.928  12.263  1.00  0.00     0.209 C 
BRANCH  11  12
HETATM   12  O   UNL     1     -39.387 -49.709  11.547  1.00  0.00    -0.349 OA
BRANCH  12  13
HETATM   13  C   UNL     1     -39.326 -48.564  12.294  1.00  0.00     0.069 A 
HETATM   14  C   UNL     1     -38.973 -48.486  13.642  1.00  0.00     0.043 A 
HETATM   15  C   UNL     1     -38.970 -47.252  14.308  1.00  0.00    -0.059 A 
HETATM   16  C   UNL     1     -39.322 -46.091  13.609  1.00  0.00     0.013 A 
HETATM   17  C   UNL     1     -38.594 -47.199  15.760  1.00  0.00     0.048 C 
HETATM   18  C   UNL     1     -39.677 -46.155  12.256  1.00  0.00    -0.059 A 
HETATM   19  C   UNL     1     -40.059 -44.920  11.496  1.00  0.00     0.048 C 
HETATM   20  C   UNL     1     -39.671 -47.397  11.609  1.00  0.00     0.043 A 
ENDBRANCH  12  13
ENDBRANCH  11  12
ENDBRANCH  10  11
BRANCH  10  21
HETATM   21  O   UNL     1     -40.646 -53.020  11.554  1.00  0.00    -0.392 OA
HETATM   22  H   UNL     1     -40.354 -53.344  12.431  1.00  0.00     0.210 HD
ENDBRANCH  10  21
ENDBRANCH   9  10
ENDBRANCH   1   9
BRANCH   4  23
HETATM   23  N   UNL     1     -43.567 -47.458  10.425  1.00  0.00    -0.302 N 
HETATM   24  C   UNL     1     -42.786 -46.619   9.646  1.00  0.00     0.116 A 
HETATM   25  C   UNL     1     -43.556 -46.256   8.571  1.00  0.00     0.106 A 
HETATM   26  N   UNL     1     -44.797 -46.817   8.658  1.00  0.00    -0.360 N 
HETATM   27  C   UNL     1     -44.778 -47.522   9.768  1.00  0.00     0.189 A 
ATOM     28  HN  UNL     1     -45.572 -46.712   8.003  1.00  0.00     0.166 HD
ENDBRANCH   4  23
TORSDOF 7
ENDMDL
MODEL 6
REMARK VINA RESULT:      -6.5      2.563      4.898
REMARK  7 active torsions:
REMARK  status: ('A' for Active; 'I' for Inactive)
REMARK    1  A    between atoms: C_7  and  O_8 
REMARK    2  A    between atoms: O_8  and  C_9 
REMARK    3  A    between atoms: C_9  and  C_10 
REMARK    4  A    between atoms: C_10  and  O_11 
REMARK    5  A    between atoms: C_10  and  C_12 
REMARK    6  A    between atoms: C_12  and  N_13 
REMARK    7  A    between atoms: C_16  and  N_21 
ROOT
HETATM    1  N   UNL     1     -44.446 -50.940  13.760  1.00  0.00    -0.254 N 
HETATM    2  N   UNL     1     -43.353 -50.765  12.931  1.00  0.00    -0.280 N 
ATOM      3  HN  UNL     1     -43.455 -50.775  11.916  1.00  0.00     0.189 HD
HETATM    4  C   UNL     1     -42.192 -50.588  13.488  1.00  0.00     0.127 A 
HETATM    5  C   UNL     1     -41.951 -50.592  14.944  1.00  0.00     0.056 A 
HETATM    6  C   UNL     1     -43.032 -50.699  15.719  1.00  0.00     0.080 A 
HETATM    7  C   UNL     1     -44.385 -50.837  15.144  1.00  0.00     0.262 A 
HETATM    8  O   UNL     1     -45.356 -50.859  15.896  1.00  0.00    -0.267 OA
ENDROOT
BRANCH   1   9
HETATM    9  C   UNL     1     -45.737 -51.186  13.097  1.00  0.00     0.186 C 
BRANCH   9  10
HETATM   10  C   UNL     1     -45.787 -52.533  12.362  1.00  0.00     0.162 C 
BRANCH  10  11
HETATM   11  C   UNL     1     -45.788 -53.713  13.342  1.00  0.00     0.209 C 
BRANCH  11  12
HETATM   12  O   UNL     1     -44.689 -54.577  13.039  1.00  0.00    -0.349 OA
BRANCH  12  13
HETATM   13  C   UNL     1     -43.581 -54.460  13.835  1.00  0.00     0.069 A 
HETATM   14  C   UNL     1     -42.268 -54.297  13.387  1.00  0.00     0.043 A 
HETATM   15  C   UNL     1     -41.210 -54.212  14.302  1.00  0.00    -0.059 A 
HETATM   16  C   UNL     1     -41.477 -54.289  15.675  1.00  0.00     0.013 A 
HETATM   17  C   UNL     1     -39.807 -54.045  13.794  1.00  0.00     0.048 C 
HETATM   18  C   UNL     1     -42.789 -54.450  16.136  1.00  0.00    -0.059 A 
HETATM   19  C   UNL     1     -43.090 -54.536  17.603  1.00  0.00     0.048 C 
HETATM   20  C   UNL     1     -43.833 -54.531  15.206  1.00  0.00     0.043 A 
ENDBRANCH  12  13
ENDBRANCH  11  12
ENDBRANCH  10  11
BRANCH  10  21
HETATM   21  O   UNL     1     -46.950 -52.579  11.518  1.00  0.00    -0.392 OA
HETATM   22  H   UNL     1     -46.870 -53.413  11.012  1.00  0.00     0.210 HD
ENDBRANCH  10  21
ENDBRANCH   9  10
ENDBRANCH   1   9
BRANCH   4  23
HETATM   23  N   UNL     1     -41.071 -50.357  12.667  1.00  0.00    -0.302 N 
HETATM   24  C   UNL     1     -39.749 -50.512  13.053  1.00  0.00     0.116 A 
HETATM   25  C   UNL     1     -38.986 -50.234  11.947  1.00  0.00     0.106 A 
HETATM   26  N   UNL     1     -39.778 -49.891  10.891  1.00  0.00    -0.360 N 
HETATM   27  C   UNL     1     -41.010 -49.968  11.346  1.00  0.00     0.189 A 
ATOM     28  HN  UNL     1     -39.479 -49.631   9.951  1.00  0.00     0.166 HD
ENDBRANCH   4  23
TORSDOF 7
ENDMDL
MODEL 7
REMARK VINA RESULT:      -6.2      1.631      2.757
REMARK  7 active torsions:
REMARK  status: ('A' for Active; 'I' for Inactive)
REMARK    1  A    between atoms: C_7  and  O_8 
REMARK    2  A    between atoms: O_8  and  C_9 
REMARK    3  A    between atoms: C_9  and  C_10 
REMARK    4  A    between atoms: C_10  and  O_11 
REMARK    5  A    between atoms: C_10  and  C_12 
REMARK    6  A    between atoms: C_12  and  N_13 
REMARK    7  A    between atoms: C_16  and  N_21 
ROOT
HETATM    1  N   UNL     1     -39.614 -52.475  14.133  1.00  0.00    -0.254 N 
HETATM    2  N   UNL     1     -39.848 -51.516  13.165  1.00  0.00    -0.280 N 
ATOM      3  HN  UNL     1     -40.102 -51.781  12.212  1.00  0.00     0.189 HD
HETATM    4  C   UNL     1     -39.734 -50.268  13.507  1.00  0.00     0.127 A 
HETATM    5  C   UNL     1     -39.340 -49.799  14.850  1.00  0.00     0.056 A 
HETATM    6  C   UNL     1     -39.182 -50.743  15.780  1.00  0.00     0.080 A 
HETATM    7  C   UNL     1     -39.363 -52.175  15.466  1.00  0.00     0.262 A 
HETATM    8  O   UNL     1     -39.279 -53.002  16.370  1.00  0.00    -0.267 OA
ENDROOT
BRANCH   1   9
HETATM    9  C   UNL     1     -39.705 -53.879  13.700  1.00  0.00     0.186 C 
BRANCH   9  10
HETATM   10  C   UNL     1     -40.975 -54.175  12.889  1.00  0.00     0.162 C 
BRANCH  10  11
HETATM   11  C   UNL     1     -42.240 -53.746  13.642  1.00  0.00     0.209 C 
BRANCH  11  12
HETATM   12  O   UNL     1     -42.705 -52.502  13.110  1.00  0.00    -0.349 OA
BRANCH  12  13
HETATM   13  C   UNL     1     -43.970 -52.119  13.463  1.00  0.00     0.069 A 
HETATM   14  C   UNL     1     -44.386 -51.757  14.747  1.00  0.00     0.043 A 
HETATM   15  C   UNL     1     -45.720 -51.406  14.991  1.00  0.00    -0.059 A 
HETATM   16  C   UNL     1     -46.640 -51.417  13.935  1.00  0.00     0.013 A 
HETATM   17  C   UNL     1     -46.141 -51.028  16.382  1.00  0.00     0.048 C 
HETATM   18  C   UNL     1     -46.236 -51.777  12.643  1.00  0.00    -0.059 A 
HETATM   19  C   UNL     1     -47.211 -51.795  11.504  1.00  0.00     0.048 C 
HETATM   20  C   UNL     1     -44.898 -52.122  12.420  1.00  0.00     0.043 A 
ENDBRANCH  12  13
ENDBRANCH  11  12
ENDBRANCH  10  11
BRANCH  10  21
HETATM   21  O   UNL     1     -40.898 -53.513  11.616  1.00  0.00    -0.392 OA
HETATM   22  H   UNL     1     -40.243 -52.796  11.736  1.00  0.00     0.210 HD
ENDBRANCH  10  21
ENDBRANCH   9  10
ENDBRANCH   1   9
BRANCH   4  23
HETATM   23  N   UNL     1     -40.017 -49.271  12.554  1.00  0.00    -0.302 N 
HETATM   24  C   UNL     1     -39.534 -47.972  12.583  1.00  0.00     0.116 A 
HETATM   25  C   UNL     1     -40.007 -47.355  11.453  1.00  0.00     0.106 A 
HETATM   26  N   UNL     1     -40.785 -48.211  10.728  1.00  0.00    -0.360 N 
HETATM   27  C   UNL     1     -40.777 -49.339  11.405  1.00  0.00     0.189 A 
ATOM     28  HN  UNL     1     -41.268 -48.017   9.851  1.00  0.00     0.166 HD
ENDBRANCH   4  23
TORSDOF 7
ENDMDL
MODEL 8
REMARK VINA RESULT:      -6.2      2.757      6.225
REMARK  7 active torsions:
REMARK  status: ('A' for Active; 'I' for Inactive)
REMARK    1  A    between atoms: C_7  and  O_8 
REMARK    2  A    between atoms: O_8  and  C_9 
REMARK    3  A    between atoms: C_9  and  C_10 
REMARK    4  A    between atoms: C_10  and  O_11 
REMARK    5  A    between atoms: C_10  and  C_12 
REMARK    6  A    between atoms: C_12  and  N_13 
REMARK    7  A    between atoms: C_16  and  N_21 
ROOT
HETATM    1  N   UNL     1     -41.102 -53.063  13.944  1.00  0.00    -0.254 N 
HETATM    2  N   UNL     1     -42.477 -52.933  13.874  1.00  0.00    -0.280 N 
ATOM      3  HN  UNL     1     -42.909 -52.182  13.335  1.00  0.00     0.189 HD
HETATM    4  C   UNL     1     -43.201 -53.800  14.517  1.00  0.00     0.127 A 
HETATM    5  C   UNL     1     -42.660 -54.896  15.344  1.00  0.00     0.056 A 
HETATM    6  C   UNL     1     -41.333 -55.035  15.342  1.00  0.00     0.080 A 
HETATM    7  C   UNL     1     -40.461 -54.120  14.577  1.00  0.00     0.262 A 
HETATM    8  O   UNL     1     -39.252 -54.331  14.547  1.00  0.00    -0.267 OA
ENDROOT
BRANCH   1   9
HETATM    9  C   UNL     1     -40.311 -52.037  13.244  1.00  0.00     0.186 C 
BRANCH   9  10
HETATM   10  C   UNL     1     -41.027 -51.467  12.010  1.00  0.00     0.162 C 
BRANCH  10  11
HETATM   11  C   UNL     1     -40.201 -50.365  11.335  1.00  0.00     0.209 C 
BRANCH  11  12
HETATM   12  O   UNL     1     -40.363 -49.144  12.063  1.00  0.00    -0.349 OA
BRANCH  12  13
HETATM   13  C   UNL     1     -41.012 -48.128  11.416  1.00  0.00     0.069 A 
HETATM   14  C   UNL     1     -42.292 -48.200  10.860  1.00  0.00     0.043 A 
HETATM   15  C   UNL     1     -42.844 -47.095  10.198  1.00  0.00    -0.059 A 
HETATM   16  C   UNL     1     -42.104 -45.910  10.100  1.00  0.00     0.013 A 
HETATM   17  C   UNL     1     -44.218 -47.203   9.602  1.00  0.00     0.048 C 
HETATM   18  C   UNL     1     -40.821 -45.824  10.654  1.00  0.00    -0.059 A 
HETATM   19  C   UNL     1     -40.017 -44.563  10.554  1.00  0.00     0.048 C 
HETATM   20  C   UNL     1     -40.288 -46.939  11.313  1.00  0.00     0.043 A 
ENDBRANCH  12  13
ENDBRANCH  11  12
ENDBRANCH  10  11
BRANCH  10  21
HETATM   21  O   UNL     1     -41.305 -52.528  11.082  1.00  0.00    -0.392 OA
HETATM   22  H   UNL     1     -41.338 -52.101  10.202  1.00  0.00     0.210 HD
ENDBRANCH  10  21
ENDBRANCH   9  10
ENDBRANCH   1   9
BRANCH   4  23
HETATM   23  N   UNL     1     -44.604 -53.722  14.420  1.00  0.00    -0.302 N 
HETATM   24  C   UNL     1     -45.347 -52.553  14.462  1.00  0.00     0.116 A 
HETATM   25  C   UNL     1     -46.657 -52.917  14.285  1.00  0.00     0.106 A 
HETATM   26  N   UNL     1     -46.766 -54.271  14.156  1.00  0.00    -0.360 N 
HETATM   27  C   UNL     1     -45.534 -54.724  14.243  1.00  0.00     0.189 A 
ATOM     28  HN  UNL     1     -47.618 -54.815  14.021  1.00  0.00     0.166 HD
ENDBRANCH   4  23
TORSDOF 7
ENDMDL
MODEL 9
REMARK VINA RESULT:      -6.1      2.959      6.412
REMARK  7 active torsions:
REMARK  status: ('A' for Active; 'I' for Inactive)
REMARK    1  A    between atoms: C_7  and  O_8 
REMARK    2  A    between atoms: O_8  and  C_9 
REMARK    3  A    between atoms: C_9  and  C_10 
REMARK    4  A    between atoms: C_10  and  O_11 
REMARK    5  A    between atoms: C_10  and  C_12 
REMARK    6  A    between atoms: C_12  and  N_13 
REMARK    7  A    between atoms: C_16  and  N_21 
ROOT
HETATM    1  N   UNL     1     -40.762 -52.214  12.879  1.00  0.00    -0.254 N 
HETATM    2  N   UNL     1     -42.102 -51.896  12.756  1.00  0.00    -0.280 N 
ATOM      3  HN  UNL     1     -42.403 -51.074  12.231  1.00  0.00     0.189 HD
HETATM    4  C   UNL     1     -42.965 -52.678  13.331  1.00  0.00     0.127 A 
HETATM    5  C   UNL     1     -42.617 -53.866  14.135  1.00  0.00     0.056 A 
HETATM    6  C   UNL     1     -41.322 -54.184  14.183  1.00  0.00     0.080 A 
HETATM    7  C   UNL     1     -40.300 -53.370  13.494  1.00  0.00     0.262 A 
HETATM    8  O   UNL     1     -39.130 -53.743  13.506  1.00  0.00    -0.267 OA
ENDROOT
BRANCH   1   9
HETATM    9  C   UNL     1     -39.808 -51.281  12.256  1.00  0.00     0.186 C 
BRANCH   9  10
HETATM   10  C   UNL     1     -40.471 -49.985  11.764  1.00  0.00     0.162 C 
BRANCH  10  11
HETATM   11  C   UNL     1     -39.714 -48.743  12.249  1.00  0.00     0.209 C 
BRANCH  11  12
HETATM   12  O   UNL     1     -40.655 -47.759  12.686  1.00  0.00    -0.349 OA
BRANCH  12  13
HETATM   13  C   UNL     1     -40.649 -46.566  12.017  1.00  0.00     0.069 A 
HETATM   14  C   UNL     1     -39.788 -46.219  10.973  1.00  0.00     0.043 A 
HETATM   15  C   UNL     1     -39.862 -44.952  10.379  1.00  0.00    -0.059 A 
HETATM   16  C   UNL     1     -40.813 -44.031  10.837  1.00  0.00     0.013 A 
HETATM   17  C   UNL     1     -38.919 -44.603   9.265  1.00  0.00     0.048 C 
HETATM   18  C   UNL     1     -41.683 -44.366  11.881  1.00  0.00    -0.059 A 
HETATM   19  C   UNL     1     -42.704 -43.389  12.383  1.00  0.00     0.048 C 
HETATM   20  C   UNL     1     -41.594 -45.638  12.460  1.00  0.00     0.043 A 
ENDBRANCH  12  13
ENDBRANCH  11  12
ENDBRANCH  10  11
BRANCH  10  21
HETATM   21  O   UNL     1     -40.549 -49.999  10.329  1.00  0.00    -0.392 OA
HETATM   22  H   UNL     1     -40.093 -49.184  10.037  1.00  0.00     0.210 HD
ENDBRANCH  10  21
ENDBRANCH   9  10
ENDBRANCH   1   9
BRANCH   4  23
HETATM   23  N   UNL     1     -44.339 -52.406  13.179  1.00  0.00    -0.302 N 
HETATM   24  C   UNL     1     -45.017 -51.347  13.763  1.00  0.00     0.116 A 
HETATM   25  C   UNL     1     -46.313 -51.422  13.320  1.00  0.00     0.106 A 
HETATM   26  N   UNL     1     -46.477 -52.499  12.498  1.00  0.00    -0.360 N 
HETATM   27  C   UNL     1     -45.293 -53.067  12.434  1.00  0.00     0.189 A 
ATOM     28  HN  UNL     1     -47.335 -52.798  12.033  1.00  0.00     0.166 HD
ENDBRANCH   4  23
TORSDOF 7
ENDMDL
