MODEL 1
REMARK VINA RESULT:      -5.7      0.000      0.000
REMARK  6 active torsions:
REMARK  status: ('A' for Active; 'I' for Inactive)
REMARK    1  A    between atoms: C_2  and  O_3 
REMARK    2  A    between atoms: O_3  and  C_4 
REMARK    3  A    between atoms: C_6  and  N_7 
REMARK    4  A    between atoms: N_7  and  C_8 
REMARK    5  A    between atoms: C_8  and  C_10 
REMARK    6  A    between atoms: C_10  and  N_11 
ROOT
HETATM    1  C   UNL     1     -40.345 -52.417  13.045  1.00  0.00     0.134 C 
HETATM    2  C   UNL     1     -41.264 -52.083  11.857  1.00  0.00     0.069 C 
HETATM    3  C   UNL     1     -41.281 -50.618  12.360  1.00  0.00     0.234 C 
HETATM    4  C   UNL     1     -39.855 -50.903  13.001  1.00  0.00     0.017 C 
HETATM    5  C   UNL     1     -39.604 -50.406  14.439  1.00  0.00     0.014 C 
HETATM    6  C   UNL     1     -39.047 -48.986  14.480  1.00  0.00     0.001 C 
HETATM    7  C   UNL     1     -37.832 -48.789  13.581  1.00  0.00     0.000 C 
HETATM    8  C   UNL     1     -38.057 -49.322  12.171  1.00  0.00     0.001 C 
HETATM    9  C   UNL     1     -38.558 -50.764  12.176  1.00  0.00     0.014 C 
ENDROOT
BRANCH   3  10
HETATM   10  N   UNL     1     -41.258 -49.713  11.196  1.00  0.00     0.095 N 
HETATM   11  H   UNL     1     -41.512 -50.193  10.331  1.00  0.00     0.317 HD
BRANCH  10  12
HETATM   12  C   UNL     1     -42.198 -48.563  11.369  1.00  0.00     0.236 C 
HETATM   13  C   UNL     1     -41.883 -47.713  12.607  1.00  0.00     0.044 C 
BRANCH  12  14
HETATM   14  C   UNL     1     -42.211 -47.629  10.135  1.00  0.00     0.184 C 
BRANCH  14  15
HETATM   15  N   UNL     1     -43.495 -47.577   9.487  1.00  0.00    -0.285 N 
HETATM   16  C   UNL     1     -43.765 -47.805   8.168  1.00  0.00     0.201 A 
HETATM   17  N   UNL     1     -45.064 -47.743   7.979  1.00  0.00    -0.346 N 
HETATM   18  C   UNL     1     -45.546 -47.456   9.223  1.00  0.00     0.198 A 
ATOM     19  HN  UNL     1     -45.586 -47.878   7.112  1.00  0.00     0.167 HD
HETATM   20  N   UNL     1     -44.625 -47.357  10.180  1.00  0.00    -0.293 N 
ATOM     21  HN  UNL     1     -44.745 -47.165  11.174  1.00  0.00     0.188 HD
ENDBRANCH  14  15
ENDBRANCH  12  14
ENDBRANCH  10  12
ENDBRANCH   3  10
BRANCH   1  22
HETATM   22  O   UNL     1     -41.034 -52.846  14.248  1.00  0.00    -0.385 OA
BRANCH  22  23
HETATM   23  C   UNL     1     -40.601 -54.082  14.810  1.00  0.00     0.163 C 
HETATM   24  C   UNL     1     -39.283 -54.476  14.176  1.00  0.00     0.033 C 
ENDBRANCH  22  23
ENDBRANCH   1  22
TORSDOF 6
ENDMDL
MODEL 2
REMARK VINA RESULT:      -5.7      2.655      3.979
REMARK  6 active torsions:
REMARK  status: ('A' for Active; 'I' for Inactive)
REMARK    1  A    between atoms: C_2  and  O_3 
REMARK    2  A    between atoms: O_3  and  C_4 
REMARK    3  A    between atoms: C_6  and  N_7 
REMARK    4  A    between atoms: N_7  and  C_8 
REMARK    5  A    between atoms: C_8  and  C_10 
REMARK    6  A    between atoms: C_10  and  N_11 
ROOT
HETATM    1  C   UNL     1     -44.177 -53.614  13.585  1.00  0.00     0.134 C 
HETATM    2  C   UNL     1     -44.162 -52.699  12.348  1.00  0.00     0.069 C 
HETATM    3  C   UNL     1     -43.070 -51.860  13.057  1.00  0.00     0.234 C 
HETATM    4  C   UNL     1     -42.664 -53.186  13.832  1.00  0.00     0.017 C 
HETATM    5  C   UNL     1     -42.406 -53.077  15.349  1.00  0.00     0.014 C 
HETATM    6  C   UNL     1     -40.950 -52.755  15.675  1.00  0.00     0.001 C 
HETATM    7  C   UNL     1     -39.958 -53.684  14.985  1.00  0.00     0.000 C 
HETATM    8  C   UNL     1     -40.237 -53.834  13.495  1.00  0.00     0.001 C 
HETATM    9  C   UNL     1     -41.690 -54.213  13.218  1.00  0.00     0.014 C 
ENDROOT
BRANCH   3  10
HETATM   10  N   UNL     1     -42.086 -51.413  12.053  1.00  0.00     0.095 N 
HETATM   11  H   UNL     1     -42.486 -51.368  11.116  1.00  0.00     0.317 HD
BRANCH  10  12
HETATM   12  C   UNL     1     -41.538 -50.060  12.379  1.00  0.00     0.236 C 
HETATM   13  C   UNL     1     -40.287 -50.117  13.266  1.00  0.00     0.044 C 
BRANCH  12  14
HETATM   14  C   UNL     1     -41.189 -49.250  11.107  1.00  0.00     0.184 C 
BRANCH  14  15
HETATM   15  N   UNL     1     -42.277 -48.423  10.654  1.00  0.00    -0.285 N 
HETATM   16  C   UNL     1     -43.197 -47.774  11.426  1.00  0.00     0.201 A 
HETATM   17  N   UNL     1     -43.979 -47.057  10.650  1.00  0.00    -0.346 N 
HETATM   18  C   UNL     1     -43.500 -47.320   9.399  1.00  0.00     0.198 A 
ATOM     19  HN  UNL     1     -44.755 -46.451  10.917  1.00  0.00     0.167 HD
HETATM   20  N   UNL     1     -42.451 -48.140   9.353  1.00  0.00    -0.293 N 
ATOM     21  HN  UNL     1     -41.922 -48.467   8.544  1.00  0.00     0.188 HD
ENDBRANCH  14  15
ENDBRANCH  12  14
ENDBRANCH  10  12
ENDBRANCH   3  10
BRANCH   1  22
HETATM   22  O   UNL     1     -45.137 -53.242  14.608  1.00  0.00    -0.385 OA
BRANCH  22  23
HETATM   23  C   UNL     1     -46.430 -52.863  14.143  1.00  0.00     0.163 C 
HETATM   24  C   UNL     1     -46.744 -51.469  14.643  1.00  0.00     0.033 C 
ENDBRANCH  22  23
ENDBRANCH   1  22
TORSDOF 6
ENDMDL
MODEL 3
REMARK VINA RESULT:      -5.6      4.100      5.471
REMARK  6 active torsions:
REMARK  status: ('A' for Active; 'I' for Inactive)
REMARK    1  A    between atoms: C_2  and  O_3 
REMARK    2  A    between atoms: O_3  and  C_4 
REMARK    3  A    between atoms: C_6  and  N_7 
REMARK    4  A    between atoms: N_7  and  C_8 
REMARK    5  A    between atoms: C_8  and  C_10 
REMARK    6  A    between atoms: C_10  and  N_11 
ROOT
HETATM    1  C   UNL     1     -46.497 -52.825  14.793  1.00  0.00     0.134 C 
HETATM    2  C   UNL     1     -46.600 -51.573  13.905  1.00  0.00     0.069 C 
HETATM    3  C   UNL     1     -45.100 -51.319  14.192  1.00  0.00     0.234 C 
HETATM    4  C   UNL     1     -44.955 -52.887  14.403  1.00  0.00     0.017 C 
HETATM    5  C   UNL     1     -44.140 -53.373  15.619  1.00  0.00     0.014 C 
HETATM    6  C   UNL     1     -42.657 -53.544  15.302  1.00  0.00     0.001 C 
HETATM    7  C   UNL     1     -42.399 -54.388  14.059  1.00  0.00     0.000 C 
HETATM    8  C   UNL     1     -43.238 -53.943  12.867  1.00  0.00     0.001 C 
HETATM    9  C   UNL     1     -44.721 -53.842  13.213  1.00  0.00     0.014 C 
ENDROOT
BRANCH   3  10
HETATM   10  N   UNL     1     -44.460 -50.805  12.966  1.00  0.00     0.095 N 
HETATM   11  H   UNL     1     -45.131 -50.358  12.341  1.00  0.00     0.317 HD
BRANCH  10  12
HETATM   12  C   UNL     1     -43.392 -49.805  13.276  1.00  0.00     0.236 C 
HETATM   13  C   UNL     1     -42.922 -49.862  14.736  1.00  0.00     0.044 C 
BRANCH  12  14
HETATM   14  C   UNL     1     -42.152 -49.974  12.365  1.00  0.00     0.184 C 
BRANCH  14  15
HETATM   15  N   UNL     1     -41.952 -48.857  11.480  1.00  0.00    -0.285 N 
HETATM   16  C   UNL     1     -40.807 -48.132  11.311  1.00  0.00     0.201 A 
HETATM   17  N   UNL     1     -40.997 -47.247  10.358  1.00  0.00    -0.346 N 
HETATM   18  C   UNL     1     -42.292 -47.463   9.986  1.00  0.00     0.198 A 
ATOM     19  HN  UNL     1     -40.336 -46.564   9.986  1.00  0.00     0.167 HD
HETATM   20  N   UNL     1     -42.913 -48.446  10.636  1.00  0.00    -0.293 N 
ATOM     21  HN  UNL     1     -43.865 -48.794  10.523  1.00  0.00     0.188 HD
ENDBRANCH  14  15
ENDBRANCH  12  14
ENDBRANCH  10  12
ENDBRANCH   3  10
BRANCH   1  22
HETATM   22  O   UNL     1     -46.809 -52.608  16.193  1.00  0.00    -0.385 OA
BRANCH  22  23
HETATM   23  C   UNL     1     -47.683 -51.519  16.478  1.00  0.00     0.163 C 
HETATM   24  C   UNL     1     -47.037 -50.628  17.518  1.00  0.00     0.033 C 
ENDBRANCH  22  23
ENDBRANCH   1  22
TORSDOF 6
ENDMDL
MODEL 4
REMARK VINA RESULT:      -5.4      3.039      5.361
REMARK  6 active torsions:
REMARK  status: ('A' for Active; 'I' for Inactive)
REMARK    1  A    between atoms: C_2  and  O_3 
REMARK    2  A    between atoms: O_3  and  C_4 
REMARK    3  A    between atoms: C_6  and  N_7 
REMARK    4  A    between atoms: N_7  and  C_8 
REMARK    5  A    between atoms: C_8  and  C_10 
REMARK    6  A    between atoms: C_10  and  N_11 
ROOT
HETATM    1  C   UNL     1     -44.112 -53.662  13.797  1.00  0.00     0.134 C 
HETATM    2  C   UNL     1     -44.150 -52.883  12.472  1.00  0.00     0.069 C 
HETATM    3  C   UNL     1     -43.034 -51.973  13.042  1.00  0.00     0.234 C 
HETATM    4  C   UNL     1     -42.592 -53.210  13.937  1.00  0.00     0.017 C 
HETATM    5  C   UNL     1     -42.273 -52.941  15.421  1.00  0.00     0.014 C 
HETATM    6  C   UNL     1     -40.807 -52.586  15.652  1.00  0.00     0.001 C 
HETATM    7  C   UNL     1     -39.839 -53.582  15.025  1.00  0.00     0.000 C 
HETATM    8  C   UNL     1     -40.178 -53.889  13.571  1.00  0.00     0.001 C 
HETATM    9  C   UNL     1     -41.639 -54.296  13.395  1.00  0.00     0.014 C 
ENDROOT
BRANCH   3  10
HETATM   10  N   UNL     1     -42.094 -51.634  11.958  1.00  0.00     0.095 N 
HETATM   11  H   UNL     1     -42.512 -51.756  11.035  1.00  0.00     0.317 HD
BRANCH  10  12
HETATM   12  C   UNL     1     -41.618 -50.220  12.059  1.00  0.00     0.236 C 
HETATM   13  C   UNL     1     -42.741 -49.233  12.405  1.00  0.00     0.044 C 
BRANCH  12  14
HETATM   14  C   UNL     1     -40.493 -50.057  13.110  1.00  0.00     0.184 C 
BRANCH  14  15
HETATM   15  N   UNL     1     -39.176 -50.163  12.539  1.00  0.00    -0.285 N 
HETATM   16  C   UNL     1     -38.146 -50.946  12.977  1.00  0.00     0.201 A 
HETATM   17  N   UNL     1     -37.134 -50.827  12.146  1.00  0.00    -0.346 N 
HETATM   18  C   UNL     1     -37.595 -49.937  11.220  1.00  0.00     0.198 A 
ATOM     19  HN  UNL     1     -36.225 -51.288  12.185  1.00  0.00     0.167 HD
HETATM   20  N   UNL     1     -38.843 -49.513  11.412  1.00  0.00    -0.293 N 
ATOM     21  HN  UNL     1     -39.398 -48.866  10.851  1.00  0.00     0.188 HD
ENDBRANCH  14  15
ENDBRANCH  12  14
ENDBRANCH  10  12
ENDBRANCH   3  10
BRANCH   1  22
HETATM   22  O   UNL     1     -45.031 -53.184  14.813  1.00  0.00    -0.385 OA
BRANCH  22  23
HETATM   23  C   UNL     1     -46.369 -52.944  14.383  1.00  0.00     0.163 C 
HETATM   24  C   UNL     1     -46.732 -51.506  14.684  1.00  0.00     0.033 C 
ENDBRANCH  22  23
ENDBRANCH   1  22
TORSDOF 6
ENDMDL
MODEL 5
REMARK VINA RESULT:      -5.3      2.987      6.229
REMARK  6 active torsions:
REMARK  status: ('A' for Active; 'I' for Inactive)
REMARK    1  A    between atoms: C_2  and  O_3 
REMARK    2  A    between atoms: O_3  and  C_4 
REMARK    3  A    between atoms: C_6  and  N_7 
REMARK    4  A    between atoms: N_7  and  C_8 
REMARK    5  A    between atoms: C_8  and  C_10 
REMARK    6  A    between atoms: C_10  and  N_11 
ROOT
HETATM    1  C   UNL     1     -43.018 -46.594  10.642  1.00  0.00     0.134 C 
HETATM    2  C   UNL     1     -42.838 -48.020  11.188  1.00  0.00     0.069 C 
HETATM    3  C   UNL     1     -41.310 -47.768  11.176  1.00  0.00     0.234 C 
HETATM    4  C   UNL     1     -41.642 -46.224  11.351  1.00  0.00     0.017 C 
HETATM    5  C   UNL     1     -40.868 -45.221  10.473  1.00  0.00     0.014 C 
HETATM    6  C   UNL     1     -39.572 -44.747  11.125  1.00  0.00     0.001 C 
HETATM    7  C   UNL     1     -39.765 -44.239  12.549  1.00  0.00     0.000 C 
HETATM    8  C   UNL     1     -40.571 -45.204  13.409  1.00  0.00     0.001 C 
HETATM    9  C   UNL     1     -41.886 -45.606  12.745  1.00  0.00     0.014 C 
ENDROOT
BRANCH   3  10
HETATM   10  N   UNL     1     -40.711 -48.404  12.363  1.00  0.00     0.095 N 
HETATM   11  H   UNL     1     -41.114 -49.323  12.551  1.00  0.00     0.317 HD
BRANCH  10  12
HETATM   12  C   UNL     1     -39.234 -48.577  12.214  1.00  0.00     0.236 C 
HETATM   13  C   UNL     1     -38.461 -48.276  13.505  1.00  0.00     0.044 C 
BRANCH  12  14
HETATM   14  C   UNL     1     -38.857 -50.004  11.749  1.00  0.00     0.184 C 
BRANCH  14  15
HETATM   15  N   UNL     1     -39.836 -50.991  12.122  1.00  0.00    -0.285 N 
HETATM   16  C   UNL     1     -39.979 -51.594  13.339  1.00  0.00     0.201 A 
HETATM   17  N   UNL     1     -41.036 -52.374  13.309  1.00  0.00    -0.346 N 
HETATM   18  C   UNL     1     -41.498 -52.224  12.034  1.00  0.00     0.198 A 
ATOM     19  HN  UNL     1     -41.419 -52.952  14.058  1.00  0.00     0.167 HD
HETATM   20  N   UNL     1     -40.804 -51.378  11.275  1.00  0.00    -0.293 N 
ATOM     21  HN  UNL     1     -40.964 -51.099  10.307  1.00  0.00     0.188 HD
ENDBRANCH  14  15
ENDBRANCH  12  14
ENDBRANCH  10  12
ENDBRANCH   3  10
BRANCH   1  22
HETATM   22  O   UNL     1     -43.054 -46.494   9.195  1.00  0.00    -0.385 OA
BRANCH  22  23
HETATM   23  C   UNL     1     -44.068 -47.254   8.541  1.00  0.00     0.163 C 
HETATM   24  C   UNL     1     -43.433 -48.076   7.439  1.00  0.00     0.033 C 
ENDBRANCH  22  23
ENDBRANCH   1  22
TORSDOF 6
ENDMDL
MODEL 6
REMARK VINA RESULT:      -5.2      4.380      6.410
REMARK  6 active torsions:
REMARK  status: ('A' for Active; 'I' for Inactive)
REMARK    1  A    between atoms: C_2  and  O_3 
REMARK    2  A    between atoms: O_3  and  C_4 
REMARK    3  A    between atoms: C_6  and  N_7 
REMARK    4  A    between atoms: N_7  and  C_8 
REMARK    5  A    between atoms: C_8  and  C_10 
REMARK    6  A    between atoms: C_10  and  N_11 
ROOT
HETATM    1  C   UNL     1     -46.713 -52.444  15.233  1.00  0.00     0.134 C 
HETATM    2  C   UNL     1     -46.664 -51.366  14.137  1.00  0.00     0.069 C 
HETATM    3  C   UNL     1     -45.125 -51.345  14.310  1.00  0.00     0.234 C 
HETATM    4  C   UNL     1     -45.238 -52.853  14.797  1.00  0.00     0.017 C 
HETATM    5  C   UNL     1     -44.431 -53.263  16.047  1.00  0.00     0.014 C 
HETATM    6  C   UNL     1     -43.028 -53.754  15.705  1.00  0.00     0.001 C 
HETATM    7  C   UNL     1     -43.012 -54.833  14.627  1.00  0.00     0.000 C 
HETATM    8  C   UNL     1     -43.846 -54.454  13.410  1.00  0.00     0.001 C 
HETATM    9  C   UNL     1     -45.261 -54.025  13.793  1.00  0.00     0.014 C 
ENDROOT
BRANCH   3  10
HETATM   10  N   UNL     1     -44.498 -51.175  12.986  1.00  0.00     0.095 N 
HETATM   11  H   UNL     1     -45.088 -50.641  12.347  1.00  0.00     0.317 HD
BRANCH  10  12
HETATM   12  C   UNL     1     -43.182 -50.474  13.082  1.00  0.00     0.236 C 
HETATM   13  C   UNL     1     -43.046 -49.623  14.352  1.00  0.00     0.044 C 
BRANCH  12  14
HETATM   14  C   UNL     1     -41.990 -51.461  13.034  1.00  0.00     0.184 C 
BRANCH  14  15
HETATM   15  N   UNL     1     -40.837 -50.915  12.369  1.00  0.00    -0.285 N 
HETATM   16  C   UNL     1     -40.824 -50.102  11.272  1.00  0.00     0.201 A 
HETATM   17  N   UNL     1     -39.585 -49.750  11.013  1.00  0.00    -0.346 N 
HETATM   18  C   UNL     1     -38.870 -50.395  11.981  1.00  0.00     0.198 A 
ATOM     19  HN  UNL     1     -39.240 -49.142  10.270  1.00  0.00     0.167 HD
HETATM   20  N   UNL     1     -39.594 -51.109  12.841  1.00  0.00    -0.293 N 
ATOM     21  HN  UNL     1     -39.287 -51.658  13.644  1.00  0.00     0.188 HD
ENDBRANCH  14  15
ENDBRANCH  12  14
ENDBRANCH  10  12
ENDBRANCH   3  10
BRANCH   1  22
HETATM   22  O   UNL     1     -46.879 -51.936  16.582  1.00  0.00    -0.385 OA
BRANCH  22  23
HETATM   23  C   UNL     1     -48.072 -51.197  16.830  1.00  0.00     0.163 C 
HETATM   24  C   UNL     1     -47.829 -50.239  17.976  1.00  0.00     0.033 C 
ENDBRANCH  22  23
ENDBRANCH   1  22
TORSDOF 6
ENDMDL
MODEL 7
REMARK VINA RESULT:      -5.1      3.698      5.438
REMARK  6 active torsions:
REMARK  status: ('A' for Active; 'I' for Inactive)
REMARK    1  A    between atoms: C_2  and  O_3 
REMARK    2  A    between atoms: O_3  and  C_4 
REMARK    3  A    between atoms: C_6  and  N_7 
REMARK    4  A    between atoms: N_7  and  C_8 
REMARK    5  A    between atoms: C_8  and  C_10 
REMARK    6  A    between atoms: C_10  and  N_11 
ROOT
HETATM    1  C   UNL     1     -40.002 -49.909  11.857  1.00  0.00     0.134 C 
HETATM    2  C   UNL     1     -40.847 -51.193  11.813  1.00  0.00     0.069 C 
HETATM    3  C   UNL     1     -41.784 -50.542  12.860  1.00  0.00     0.234 C 
HETATM    4  C   UNL     1     -41.328 -49.135  12.279  1.00  0.00     0.017 C 
HETATM    5  C   UNL     1     -40.972 -48.025  13.288  1.00  0.00     0.014 C 
HETATM    6  C   UNL     1     -42.179 -47.176  13.677  1.00  0.00     0.001 C 
HETATM    7  C   UNL     1     -42.953 -46.641  12.477  1.00  0.00     0.000 C 
HETATM    8  C   UNL     1     -43.265 -47.725  11.453  1.00  0.00     0.001 C 
HETATM    9  C   UNL     1     -42.019 -48.510  11.049  1.00  0.00     0.014 C 
ENDROOT
BRANCH   3  10
HETATM   10  N   UNL     1     -43.178 -50.910  12.550  1.00  0.00     0.095 N 
HETATM   11  H   UNL     1     -43.232 -51.698  11.904  1.00  0.00     0.317 HD
BRANCH  10  12
HETATM   12  C   UNL     1     -43.941 -51.278  13.781  1.00  0.00     0.236 C 
HETATM   13  C   UNL     1     -43.902 -50.188  14.860  1.00  0.00     0.044 C 
BRANCH  12  14
HETATM   14  C   UNL     1     -45.424 -51.599  13.474  1.00  0.00     0.184 C 
BRANCH  14  15
HETATM   15  N   UNL     1     -45.778 -52.960  13.781  1.00  0.00    -0.285 N 
HETATM   16  C   UNL     1     -45.264 -54.093  13.219  1.00  0.00     0.201 A 
HETATM   17  N   UNL     1     -45.781 -55.141  13.820  1.00  0.00    -0.346 N 
HETATM   18  C   UNL     1     -46.626 -54.588  14.738  1.00  0.00     0.198 A 
ATOM     19  HN  UNL     1     -45.595 -56.129  13.644  1.00  0.00     0.167 HD
HETATM   20  N   UNL     1     -46.648 -53.257  14.760  1.00  0.00    -0.293 N 
ATOM     21  HN  UNL     1     -47.184 -52.630  15.360  1.00  0.00     0.188 HD
ENDBRANCH  14  15
ENDBRANCH  12  14
ENDBRANCH  10  12
ENDBRANCH   3  10
BRANCH   1  22
HETATM   22  O   UNL     1     -38.919 -49.924  12.823  1.00  0.00    -0.385 OA
BRANCH  22  23
HETATM   23  C   UNL     1     -37.716 -50.561  12.403  1.00  0.00     0.163 C 
HETATM   24  C   UNL     1     -37.283 -49.972  11.077  1.00  0.00     0.033 C 
ENDBRANCH  22  23
ENDBRANCH   1  22
TORSDOF 6
ENDMDL
MODEL 8
REMARK VINA RESULT:      -5.0      3.277      5.474
REMARK  6 active torsions:
REMARK  status: ('A' for Active; 'I' for Inactive)
REMARK    1  A    between atoms: C_2  and  O_3 
REMARK    2  A    between atoms: O_3  and  C_4 
REMARK    3  A    between atoms: C_6  and  N_7 
REMARK    4  A    between atoms: N_7  and  C_8 
REMARK    5  A    between atoms: C_8  and  C_10 
REMARK    6  A    between atoms: C_10  and  N_11 
ROOT
HETATM    1  C   UNL     1     -41.233 -47.932  12.200  1.00  0.00     0.134 C 
HETATM    2  C   UNL     1     -42.499 -48.740  12.533  1.00  0.00     0.069 C 
HETATM    3  C   UNL     1     -41.691 -50.022  12.216  1.00  0.00     0.234 C 
HETATM    4  C   UNL     1     -40.389 -49.211  12.630  1.00  0.00     0.017 C 
HETATM    5  C   UNL     1     -39.150 -49.335  11.720  1.00  0.00     0.014 C 
HETATM    6  C   UNL     1     -38.238 -50.490  12.123  1.00  0.00     0.001 C 
HETATM    7  C   UNL     1     -37.870 -50.481  13.602  1.00  0.00     0.000 C 
HETATM    8  C   UNL     1     -39.086 -50.310  14.505  1.00  0.00     0.001 C 
HETATM    9  C   UNL     1     -39.937 -49.109  14.102  1.00  0.00     0.014 C 
ENDROOT
BRANCH   3  10
HETATM   10  N   UNL     1     -42.082 -51.080  13.167  1.00  0.00     0.095 N 
HETATM   11  H   UNL     1     -42.969 -50.873  13.628  1.00  0.00     0.317 HD
BRANCH  10  12
HETATM   12  C   UNL     1     -42.217 -52.408  12.495  1.00  0.00     0.236 C 
HETATM   13  C   UNL     1     -40.866 -53.083  12.222  1.00  0.00     0.044 C 
BRANCH  12  14
HETATM   14  C   UNL     1     -43.089 -53.391  13.314  1.00  0.00     0.184 C 
BRANCH  14  15
HETATM   15  N   UNL     1     -44.500 -53.166  13.138  1.00  0.00    -0.285 N 
HETATM   16  C   UNL     1     -45.512 -53.598  13.946  1.00  0.00     0.201 A 
HETATM   17  N   UNL     1     -46.652 -53.123  13.496  1.00  0.00    -0.346 N 
HETATM   18  C   UNL     1     -46.279 -52.416  12.390  1.00  0.00     0.198 A 
ATOM     19  HN  UNL     1     -47.588 -53.253  13.881  1.00  0.00     0.167 HD
HETATM   20  N   UNL     1     -44.972 -52.403  12.138  1.00  0.00    -0.293 N 
ATOM     21  HN  UNL     1     -44.464 -51.937  11.386  1.00  0.00     0.188 HD
ENDBRANCH  14  15
ENDBRANCH  12  14
ENDBRANCH  10  12
ENDBRANCH   3  10
BRANCH   1  22
HETATM   22  O   UNL     1     -41.124 -47.511  10.816  1.00  0.00    -0.385 OA
BRANCH  22  23
HETATM   23  C   UNL     1     -41.237 -46.111  10.577  1.00  0.00     0.163 C 
HETATM   24  C   UNL     1     -39.851 -45.501  10.560  1.00  0.00     0.033 C 
ENDBRANCH  22  23
ENDBRANCH   1  22
TORSDOF 6
ENDMDL
MODEL 9
REMARK VINA RESULT:      -5.0      3.247      5.650
REMARK  6 active torsions:
REMARK  status: ('A' for Active; 'I' for Inactive)
REMARK    1  A    between atoms: C_2  and  O_3 
REMARK    2  A    between atoms: O_3  and  C_4 
REMARK    3  A    between atoms: C_6  and  N_7 
REMARK    4  A    between atoms: N_7  and  C_8 
REMARK    5  A    between atoms: C_8  and  C_10 
REMARK    6  A    between atoms: C_10  and  N_11 
ROOT
HETATM    1  C   UNL     1     -44.891 -54.428  14.875  1.00  0.00     0.134 C 
HETATM    2  C   UNL     1     -44.310 -54.121  13.484  1.00  0.00     0.069 C 
HETATM    3  C   UNL     1     -43.220 -53.277  14.191  1.00  0.00     0.234 C 
HETATM    4  C   UNL     1     -43.424 -54.216  15.456  1.00  0.00     0.017 C 
HETATM    5  C   UNL     1     -43.515 -53.542  16.840  1.00  0.00     0.014 C 
HETATM    6  C   UNL     1     -42.152 -53.383  17.507  1.00  0.00     0.001 C 
HETATM    7  C   UNL     1     -41.345 -54.676  17.546  1.00  0.00     0.000 C 
HETATM    8  C   UNL     1     -41.292 -55.372  16.191  1.00  0.00     0.001 C 
HETATM    9  C   UNL     1     -42.681 -55.563  15.588  1.00  0.00     0.014 C 
ENDROOT
BRANCH   3  10
HETATM   10  N   UNL     1     -41.938 -53.467  13.487  1.00  0.00     0.095 N 
HETATM   11  H   UNL     1     -42.071 -53.725  12.509  1.00  0.00     0.317 HD
BRANCH  10  12
HETATM   12  C   UNL     1     -41.099 -52.231  13.521  1.00  0.00     0.236 C 
HETATM   13  C   UNL     1     -39.927 -52.327  14.507  1.00  0.00     0.044 C 
BRANCH  12  14
HETATM   14  C   UNL     1     -40.527 -51.875  12.127  1.00  0.00     0.184 C 
BRANCH  14  15
HETATM   15  N   UNL     1     -40.806 -50.518  11.738  1.00  0.00    -0.285 N 
HETATM   16  C   UNL     1     -39.914 -49.587  11.289  1.00  0.00     0.201 A 
HETATM   17  N   UNL     1     -40.564 -48.494  10.959  1.00  0.00    -0.346 N 
HETATM   18  C   UNL     1     -41.862 -48.806  11.244  1.00  0.00     0.198 A 
ATOM     19  HN  UNL     1     -40.190 -47.623  10.581  1.00  0.00     0.167 HD
HETATM   20  N   UNL     1     -42.060 -50.037  11.711  1.00  0.00    -0.293 N 
ATOM     21  HN  UNL     1     -42.933 -50.494  11.978  1.00  0.00     0.188 HD
ENDBRANCH  14  15
ENDBRANCH  12  14
ENDBRANCH  10  12
ENDBRANCH   3  10
BRANCH   1  22
HETATM   22  O   UNL     1     -45.912 -53.502  15.327  1.00  0.00    -0.385 OA
BRANCH  22  23
HETATM   23  C   UNL     1     -46.741 -52.940  14.312  1.00  0.00     0.163 C 
HETATM   24  C   UNL     1     -46.698 -51.431  14.420  1.00  0.00     0.033 C 
ENDBRANCH  22  23
ENDBRANCH   1  22
TORSDOF 6
ENDMDL
