MODEL 1
REMARK VINA RESULT:      -6.0      0.000      0.000
REMARK  4 active torsions:
REMARK  status: ('A' for Active; 'I' for Inactive)
REMARK    1  A    between atoms: C_2  and  N_3 
REMARK    2  A    between atoms: C_7  and  C_8 
REMARK    3  A    between atoms: C_8  and  N_9 
REMARK    4  A    between atoms: N_9  and  C_10 
ROOT
HETATM    1  C   UNL     1     -41.378 -52.013  12.006  1.00  0.00     0.079 A 
HETATM    2  C   UNL     1     -40.554 -52.484  13.027  1.00  0.00     0.043 A 
HETATM    3  C   UNL     1     -41.039 -53.443  13.919  1.00  0.00     0.027 A 
HETATM    4  C   UNL     1     -42.340 -53.909  13.772  1.00  0.00     0.060 A 
HETATM    5  C   UNL     1     -42.889 -54.892  14.648  1.00  0.00     0.101 C 
HETATM    6  N   UNL     1     -43.339 -55.692  15.357  1.00  0.00    -0.191 NA
HETATM    7  C   UNL     1     -43.095 -53.394  12.734  1.00  0.00     0.112 A 
HETATM    8  N   UNL     1     -42.638 -52.470  11.854  1.00  0.00    -0.355 N 
ATOM      9  HN  UNL     1     -43.231 -52.130  11.096  1.00  0.00     0.166 HD
ENDROOT
BRANCH   1  10
HETATM   10  N   UNL     1     -40.845 -51.095  11.091  1.00  0.00    -0.277 NA
HETATM   11  H   UNL     1     -40.074 -51.521  10.578  1.00  0.00     0.129 HD
BRANCH  10  12
HETATM   12  C   UNL     1     -40.411 -49.828  11.692  1.00  0.00     0.127 C 
BRANCH  12  13
HETATM   13  C   UNL     1     -41.139 -48.656  11.011  1.00  0.00     0.163 C 
HETATM   14  O   UNL     1     -40.387 -47.445  11.256  1.00  0.00    -0.381 OA
HETATM   15  C   UNL     1     -41.048 -46.319  10.667  1.00  0.00     0.198 C 
HETATM   16  C   UNL     1     -42.476 -46.156  11.217  1.00  0.00     0.298 C 
HETATM   17  N   UNL     1     -43.324 -47.362  11.057  1.00  0.00     0.092 N 
HETATM   18  C   UNL     1     -42.570 -48.523  11.578  1.00  0.00     0.305 C 
BRANCH  17  19
HETATM   19  C   UNL     1     -43.777 -47.499   9.665  1.00  0.00     0.268 C 
HETATM   20  C   UNL     1     -45.292 -47.455   9.486  1.00  0.00     0.037 C 
ENDBRANCH  17  19
ENDBRANCH  12  13
ENDBRANCH  10  12
ENDBRANCH   1  10
TORSDOF 4
ENDMDL
MODEL 2
REMARK VINA RESULT:      -5.9      3.298      4.413
REMARK  4 active torsions:
REMARK  status: ('A' for Active; 'I' for Inactive)
REMARK    1  A    between atoms: C_2  and  N_3 
REMARK    2  A    between atoms: C_7  and  C_8 
REMARK    3  A    between atoms: C_8  and  N_9 
REMARK    4  A    between atoms: N_9  and  C_10 
ROOT
HETATM    1  C   UNL     1     -41.735 -52.972  12.340  1.00  0.00     0.079 A 
HETATM    2  C   UNL     1     -41.567 -53.861  13.400  1.00  0.00     0.043 A 
HETATM    3  C   UNL     1     -42.681 -54.491  13.957  1.00  0.00     0.027 A 
HETATM    4  C   UNL     1     -43.943 -54.215  13.443  1.00  0.00     0.060 A 
HETATM    5  C   UNL     1     -45.119 -54.832  13.965  1.00  0.00     0.101 C 
HETATM    6  N   UNL     1     -46.077 -55.331  14.387  1.00  0.00    -0.191 NA
HETATM    7  C   UNL     1     -44.028 -53.322  12.390  1.00  0.00     0.112 A 
HETATM    8  N   UNL     1     -42.956 -52.710  11.832  1.00  0.00    -0.355 N 
ATOM      9  HN  UNL     1     -43.070 -52.067  11.047  1.00  0.00     0.166 HD
ENDROOT
BRANCH   1  10
HETATM   10  N   UNL     1     -40.592 -52.401  11.763  1.00  0.00    -0.277 NA
HETATM   11  H   UNL     1     -39.761 -52.685  12.280  1.00  0.00     0.129 HD
BRANCH  10  12
HETATM   12  C   UNL     1     -40.641 -50.937  11.653  1.00  0.00     0.127 C 
BRANCH  12  13
HETATM   13  C   UNL     1     -39.410 -50.325  12.345  1.00  0.00     0.163 C 
HETATM   14  O   UNL     1     -38.416 -51.362  12.513  1.00  0.00    -0.381 OA
HETATM   15  C   UNL     1     -37.263 -50.843  13.186  1.00  0.00     0.198 C 
HETATM   16  C   UNL     1     -37.631 -50.258  14.561  1.00  0.00     0.298 C 
HETATM   17  N   UNL     1     -38.680 -49.211  14.508  1.00  0.00     0.092 N 
HETATM   18  C   UNL     1     -39.813 -49.740  13.717  1.00  0.00     0.305 C 
BRANCH  17  19
HETATM   19  C   UNL     1     -38.125 -47.942  14.014  1.00  0.00     0.268 C 
HETATM   20  C   UNL     1     -36.888 -47.459  14.764  1.00  0.00     0.037 C 
ENDBRANCH  17  19
ENDBRANCH  12  13
ENDBRANCH  10  12
ENDBRANCH   1  10
TORSDOF 4
ENDMDL
MODEL 3
REMARK VINA RESULT:      -5.8      1.939      2.636
REMARK  4 active torsions:
REMARK  status: ('A' for Active; 'I' for Inactive)
REMARK    1  A    between atoms: C_2  and  N_3 
REMARK    2  A    between atoms: C_7  and  C_8 
REMARK    3  A    between atoms: C_8  and  N_9 
REMARK    4  A    between atoms: N_9  and  C_10 
ROOT
HETATM    1  C   UNL     1     -41.330 -52.768  12.310  1.00  0.00     0.079 A 
HETATM    2  C   UNL     1     -41.175 -53.711  13.324  1.00  0.00     0.043 A 
HETATM    3  C   UNL     1     -42.296 -54.367  13.835  1.00  0.00     0.027 A 
HETATM    4  C   UNL     1     -43.551 -54.064  13.322  1.00  0.00     0.060 A 
HETATM    5  C   UNL     1     -44.733 -54.705  13.798  1.00  0.00     0.101 C 
HETATM    6  N   UNL     1     -45.696 -55.225  14.182  1.00  0.00    -0.191 NA
HETATM    7  C   UNL     1     -43.624 -53.117  12.316  1.00  0.00     0.112 A 
HETATM    8  N   UNL     1     -42.545 -52.478  11.802  1.00  0.00    -0.355 N 
ATOM      9  HN  UNL     1     -42.650 -51.796  11.050  1.00  0.00     0.166 HD
ENDROOT
BRANCH   1  10
HETATM   10  N   UNL     1     -40.181 -52.169  11.776  1.00  0.00    -0.277 NA
HETATM   11  H   UNL     1     -39.493 -52.882  11.539  1.00  0.00     0.129 HD
BRANCH  10  12
HETATM   12  C   UNL     1     -39.572 -51.153  12.645  1.00  0.00     0.127 C 
BRANCH  12  13
HETATM   13  C   UNL     1     -40.304 -49.811  12.463  1.00  0.00     0.163 C 
HETATM   14  O   UNL     1     -40.773 -49.727  11.098  1.00  0.00    -0.381 OA
HETATM   15  C   UNL     1     -41.433 -48.476  10.873  1.00  0.00     0.198 C 
HETATM   16  C   UNL     1     -40.500 -47.288  11.169  1.00  0.00     0.298 C 
HETATM   17  N   UNL     1     -39.925 -47.301  12.536  1.00  0.00     0.092 N 
HETATM   18  C   UNL     1     -39.346 -48.641  12.775  1.00  0.00     0.305 C 
BRANCH  17  19
HETATM   19  C   UNL     1     -40.927 -46.880  13.527  1.00  0.00     0.268 C 
HETATM   20  C   UNL     1     -41.518 -45.496  13.279  1.00  0.00     0.037 C 
ENDBRANCH  17  19
ENDBRANCH  12  13
ENDBRANCH  10  12
ENDBRANCH   1  10
TORSDOF 4
ENDMDL
MODEL 4
REMARK VINA RESULT:      -5.7      2.071      7.077
REMARK  4 active torsions:
REMARK  status: ('A' for Active; 'I' for Inactive)
REMARK    1  A    between atoms: C_2  and  N_3 
REMARK    2  A    between atoms: C_7  and  C_8 
REMARK    3  A    between atoms: C_8  and  N_9 
REMARK    4  A    between atoms: N_9  and  C_10 
ROOT
HETATM    1  C   UNL     1     -40.953 -48.994  10.908  1.00  0.00     0.079 A 
HETATM    2  C   UNL     1     -40.210 -48.015  11.566  1.00  0.00     0.043 A 
HETATM    3  C   UNL     1     -40.624 -46.683  11.516  1.00  0.00     0.027 A 
HETATM    4  C   UNL     1     -41.773 -46.357  10.806  1.00  0.00     0.060 A 
HETATM    5  C   UNL     1     -42.251 -45.015  10.724  1.00  0.00     0.101 C 
HETATM    6  N   UNL     1     -42.643 -43.926  10.655  1.00  0.00    -0.191 NA
HETATM    7  C   UNL     1     -42.457 -47.384  10.181  1.00  0.00     0.112 A 
HETATM    8  N   UNL     1     -42.074 -48.683  10.227  1.00  0.00    -0.355 N 
ATOM      9  HN  UNL     1     -42.621 -49.407   9.759  1.00  0.00     0.166 HD
ENDROOT
BRANCH   1  10
HETATM   10  N   UNL     1     -40.545 -50.330  11.025  1.00  0.00    -0.277 NA
HETATM   11  H   UNL     1     -41.352 -50.927  11.201  1.00  0.00     0.129 HD
BRANCH  10  12
HETATM   12  C   UNL     1     -39.517 -50.558  12.049  1.00  0.00     0.127 C 
BRANCH  12  13
HETATM   13  C   UNL     1     -39.958 -51.701  12.980  1.00  0.00     0.163 C 
HETATM   14  O   UNL     1     -38.778 -52.401  13.437  1.00  0.00    -0.381 OA
HETATM   15  C   UNL     1     -39.145 -53.498  14.282  1.00  0.00     0.198 C 
HETATM   16  C   UNL     1     -40.076 -54.483  13.552  1.00  0.00     0.298 C 
HETATM   17  N   UNL     1     -41.302 -53.857  13.002  1.00  0.00     0.092 N 
HETATM   18  C   UNL     1     -40.896 -52.667  12.222  1.00  0.00     0.305 C 
BRANCH  17  19
HETATM   19  C   UNL     1     -42.274 -53.588  14.071  1.00  0.00     0.268 C 
HETATM   20  C   UNL     1     -42.725 -54.825  14.841  1.00  0.00     0.037 C 
ENDBRANCH  17  19
ENDBRANCH  12  13
ENDBRANCH  10  12
ENDBRANCH   1  10
TORSDOF 4
ENDMDL
MODEL 5
REMARK VINA RESULT:      -5.4      2.688      6.731
REMARK  4 active torsions:
REMARK  status: ('A' for Active; 'I' for Inactive)
REMARK    1  A    between atoms: C_2  and  N_3 
REMARK    2  A    between atoms: C_7  and  C_8 
REMARK    3  A    between atoms: C_8  and  N_9 
REMARK    4  A    between atoms: N_9  and  C_10 
ROOT
HETATM    1  C   UNL     1     -41.019 -50.115  12.246  1.00  0.00     0.079 A 
HETATM    2  C   UNL     1     -39.963 -49.294  12.640  1.00  0.00     0.043 A 
HETATM    3  C   UNL     1     -39.864 -48.001  12.125  1.00  0.00     0.027 A 
HETATM    4  C   UNL     1     -40.822 -47.556  11.222  1.00  0.00     0.060 A 
HETATM    5  C   UNL     1     -40.778 -46.242  10.666  1.00  0.00     0.101 C 
HETATM    6  N   UNL     1     -40.746 -45.176  10.212  1.00  0.00    -0.191 NA
HETATM    7  C   UNL     1     -41.839 -48.428  10.880  1.00  0.00     0.112 A 
HETATM    8  N   UNL     1     -41.956 -49.683  11.378  1.00  0.00    -0.355 N 
ATOM      9  HN  UNL     1     -42.733 -50.285  11.103  1.00  0.00     0.166 HD
ENDROOT
BRANCH   1  10
HETATM   10  N   UNL     1     -41.125 -51.387  12.825  1.00  0.00    -0.277 NA
HETATM   11  H   UNL     1     -40.204 -51.818  12.892  1.00  0.00     0.129 HD
BRANCH  10  12
HETATM   12  C   UNL     1     -42.054 -52.289  12.132  1.00  0.00     0.127 C 
BRANCH  12  13
HETATM   13  C   UNL     1     -43.069 -52.859  13.139  1.00  0.00     0.163 C 
HETATM   14  O   UNL     1     -42.593 -54.147  13.589  1.00  0.00    -0.381 OA
HETATM   15  C   UNL     1     -43.527 -54.732  14.505  1.00  0.00     0.198 C 
HETATM   16  C   UNL     1     -44.916 -54.894  13.864  1.00  0.00     0.298 C 
HETATM   17  N   UNL     1     -45.481 -53.633  13.325  1.00  0.00     0.092 N 
HETATM   18  C   UNL     1     -44.453 -53.001  12.469  1.00  0.00     0.305 C 
BRANCH  17  19
HETATM   19  C   UNL     1     -45.982 -52.780  14.413  1.00  0.00     0.268 C 
HETATM   20  C   UNL     1     -46.575 -51.452  13.954  1.00  0.00     0.037 C 
ENDBRANCH  17  19
ENDBRANCH  12  13
ENDBRANCH  10  12
ENDBRANCH   1  10
TORSDOF 4
ENDMDL
MODEL 6
REMARK VINA RESULT:      -5.3      3.631      6.060
REMARK  4 active torsions:
REMARK  status: ('A' for Active; 'I' for Inactive)
REMARK    1  A    between atoms: C_2  and  N_3 
REMARK    2  A    between atoms: C_7  and  C_8 
REMARK    3  A    between atoms: C_8  and  N_9 
REMARK    4  A    between atoms: N_9  and  C_10 
ROOT
HETATM    1  C   UNL     1     -45.609 -52.876  13.308  1.00  0.00     0.079 A 
HETATM    2  C   UNL     1     -46.141 -51.589  13.347  1.00  0.00     0.043 A 
HETATM    3  C   UNL     1     -46.855 -51.170  14.472  1.00  0.00     0.027 A 
HETATM    4  C   UNL     1     -47.023 -52.051  15.534  1.00  0.00     0.060 A 
HETATM    5  C   UNL     1     -47.737 -51.679  16.712  1.00  0.00     0.101 C 
HETATM    6  N   UNL     1     -48.316 -51.381  17.672  1.00  0.00    -0.191 NA
HETATM    7  C   UNL     1     -46.465 -53.311  15.420  1.00  0.00     0.112 A 
HETATM    8  N   UNL     1     -45.762 -53.730  14.341  1.00  0.00    -0.355 N 
ATOM      9  HN  UNL     1     -45.358 -54.667  14.310  1.00  0.00     0.166 HD
ENDROOT
BRANCH   1  10
HETATM   10  N   UNL     1     -44.847 -53.248  12.191  1.00  0.00    -0.277 NA
HETATM   11  H   UNL     1     -45.418 -53.791  11.545  1.00  0.00     0.129 HD
BRANCH  10  12
HETATM   12  C   UNL     1     -43.618 -53.982  12.517  1.00  0.00     0.127 C 
BRANCH  12  13
HETATM   13  C   UNL     1     -42.554 -53.003  13.042  1.00  0.00     0.163 C 
HETATM   14  O   UNL     1     -42.382 -51.948  12.068  1.00  0.00    -0.381 OA
HETATM   15  C   UNL     1     -41.373 -51.028  12.501  1.00  0.00     0.198 C 
HETATM   16  C   UNL     1     -40.027 -51.739  12.730  1.00  0.00     0.298 C 
HETATM   17  N   UNL     1     -40.100 -52.872  13.684  1.00  0.00     0.092 N 
HETATM   18  C   UNL     1     -41.219 -53.746  13.270  1.00  0.00     0.305 C 
BRANCH  17  19
HETATM   19  C   UNL     1     -40.182 -52.383  15.068  1.00  0.00     0.268 C 
HETATM   20  C   UNL     1     -38.881 -52.496  15.857  1.00  0.00     0.037 C 
ENDBRANCH  17  19
ENDBRANCH  12  13
ENDBRANCH  10  12
ENDBRANCH   1  10
TORSDOF 4
ENDMDL
MODEL 7
REMARK VINA RESULT:      -5.2      2.859      6.834
REMARK  4 active torsions:
REMARK  status: ('A' for Active; 'I' for Inactive)
REMARK    1  A    between atoms: C_2  and  N_3 
REMARK    2  A    between atoms: C_7  and  C_8 
REMARK    3  A    between atoms: C_8  and  N_9 
REMARK    4  A    between atoms: N_9  and  C_10 
ROOT
HETATM    1  C   UNL     1     -41.432 -49.056  11.332  1.00  0.00     0.079 A 
HETATM    2  C   UNL     1     -42.439 -48.186  10.918  1.00  0.00     0.043 A 
HETATM    3  C   UNL     1     -42.132 -46.849  10.657  1.00  0.00     0.027 A 
HETATM    4  C   UNL     1     -40.823 -46.411  10.818  1.00  0.00     0.060 A 
HETATM    5  C   UNL     1     -40.447 -45.059  10.560  1.00  0.00     0.101 C 
HETATM    6  N   UNL     1     -40.136 -43.961  10.351  1.00  0.00    -0.191 NA
HETATM    7  C   UNL     1     -39.881 -47.334  11.231  1.00  0.00     0.112 A 
HETATM    8  N   UNL     1     -40.159 -48.637  11.480  1.00  0.00    -0.355 N 
ATOM      9  HN  UNL     1     -39.425 -49.283  11.771  1.00  0.00     0.166 HD
ENDROOT
BRANCH   1  10
HETATM   10  N   UNL     1     -41.759 -50.405  11.530  1.00  0.00    -0.277 NA
HETATM   11  H   UNL     1     -42.693 -50.595  11.170  1.00  0.00     0.129 HD
BRANCH  10  12
HETATM   12  C   UNL     1     -41.656 -50.852  12.925  1.00  0.00     0.127 C 
BRANCH  12  13
HETATM   13  C   UNL     1     -42.942 -51.597  13.326  1.00  0.00     0.163 C 
HETATM   14  O   UNL     1     -43.138 -52.697  12.408  1.00  0.00    -0.381 OA
HETATM   15  C   UNL     1     -44.345 -53.401  12.724  1.00  0.00     0.198 C 
HETATM   16  C   UNL     1     -45.568 -52.468  12.674  1.00  0.00     0.298 C 
HETATM   17  N   UNL     1     -45.452 -51.277  13.549  1.00  0.00     0.092 N 
HETATM   18  C   UNL     1     -44.148 -50.633  13.274  1.00  0.00     0.305 C 
BRANCH  17  19
HETATM   19  C   UNL     1     -45.672 -51.641  14.957  1.00  0.00     0.268 C 
HETATM   20  C   UNL     1     -47.054 -52.213  15.254  1.00  0.00     0.037 C 
ENDBRANCH  17  19
ENDBRANCH  12  13
ENDBRANCH  10  12
ENDBRANCH   1  10
TORSDOF 4
ENDMDL
MODEL 8
REMARK VINA RESULT:      -5.2      3.739      6.240
REMARK  4 active torsions:
REMARK  status: ('A' for Active; 'I' for Inactive)
REMARK    1  A    between atoms: C_2  and  N_3 
REMARK    2  A    between atoms: C_7  and  C_8 
REMARK    3  A    between atoms: C_8  and  N_9 
REMARK    4  A    between atoms: N_9  and  C_10 
ROOT
HETATM    1  C   UNL     1     -39.859 -51.761  12.552  1.00  0.00     0.079 A 
HETATM    2  C   UNL     1     -40.062 -50.501  11.990  1.00  0.00     0.043 A 
HETATM    3  C   UNL     1     -39.358 -49.403  12.486  1.00  0.00     0.027 A 
HETATM    4  C   UNL     1     -38.467 -49.586  13.536  1.00  0.00     0.060 A 
HETATM    5  C   UNL     1     -37.714 -48.503  14.081  1.00  0.00     0.101 C 
HETATM    6  N   UNL     1     -37.100 -47.626  14.526  1.00  0.00    -0.191 NA
HETATM    7  C   UNL     1     -38.320 -50.866  14.039  1.00  0.00     0.112 A 
HETATM    8  N   UNL     1     -38.987 -51.945  13.564  1.00  0.00    -0.355 N 
ATOM      9  HN  UNL     1     -38.834 -52.872  13.962  1.00  0.00     0.166 HD
ENDROOT
BRANCH   1  10
HETATM   10  N   UNL     1     -40.536 -52.855  11.995  1.00  0.00    -0.277 NA
HETATM   11  H   UNL     1     -41.345 -52.533  11.466  1.00  0.00     0.129 HD
BRANCH  10  12
HETATM   12  C   UNL     1     -40.946 -53.871  12.972  1.00  0.00     0.127 C 
BRANCH  12  13
HETATM   13  C   UNL     1     -42.364 -53.555  13.483  1.00  0.00     0.163 C 
HETATM   14  O   UNL     1     -42.864 -54.713  14.190  1.00  0.00    -0.381 OA
HETATM   15  C   UNL     1     -44.198 -54.475  14.655  1.00  0.00     0.198 C 
HETATM   16  C   UNL     1     -45.146 -54.136  13.491  1.00  0.00     0.298 C 
HETATM   17  N   UNL     1     -44.701 -52.985  12.668  1.00  0.00     0.092 N 
HETATM   18  C   UNL     1     -43.288 -53.211  12.294  1.00  0.00     0.305 C 
BRANCH  17  19
HETATM   19  C   UNL     1     -44.956 -51.716  13.366  1.00  0.00     0.268 C 
HETATM   20  C   UNL     1     -46.405 -51.509  13.793  1.00  0.00     0.037 C 
ENDBRANCH  17  19
ENDBRANCH  12  13
ENDBRANCH  10  12
ENDBRANCH   1  10
TORSDOF 4
ENDMDL
MODEL 9
REMARK VINA RESULT:      -5.2      2.040      2.921
REMARK  4 active torsions:
REMARK  status: ('A' for Active; 'I' for Inactive)
REMARK    1  A    between atoms: C_2  and  N_3 
REMARK    2  A    between atoms: C_7  and  C_8 
REMARK    3  A    between atoms: C_8  and  N_9 
REMARK    4  A    between atoms: N_9  and  C_10 
ROOT
HETATM    1  C   UNL     1     -40.939 -51.868  12.358  1.00  0.00     0.079 A 
HETATM    2  C   UNL     1     -39.970 -51.502  13.291  1.00  0.00     0.043 A 
HETATM    3  C   UNL     1     -39.366 -52.482  14.080  1.00  0.00     0.027 A 
HETATM    4  C   UNL     1     -39.747 -53.809  13.921  1.00  0.00     0.060 A 
HETATM    5  C   UNL     1     -39.161 -54.857  14.694  1.00  0.00     0.101 C 
HETATM    6  N   UNL     1     -38.687 -55.711  15.319  1.00  0.00    -0.191 NA
HETATM    7  C   UNL     1     -40.714 -54.093  12.975  1.00  0.00     0.112 A 
HETATM    8  N   UNL     1     -41.304 -53.156  12.194  1.00  0.00    -0.355 N 
ATOM      9  HN  UNL     1     -42.005 -53.417  11.500  1.00  0.00     0.166 HD
ENDROOT
BRANCH   1  10
HETATM   10  N   UNL     1     -41.485 -50.869  11.540  1.00  0.00    -0.277 NA
HETATM   11  H   UNL     1     -41.938 -51.290  10.730  1.00  0.00     0.129 HD
BRANCH  10  12
HETATM   12  C   UNL     1     -40.519 -49.853  11.104  1.00  0.00     0.127 C 
BRANCH  12  13
HETATM   13  C   UNL     1     -41.133 -48.451  11.268  1.00  0.00     0.163 C 
HETATM   14  O   UNL     1     -41.872 -48.132  10.067  1.00  0.00    -0.381 OA
HETATM   15  C   UNL     1     -42.434 -46.818  10.162  1.00  0.00     0.198 C 
HETATM   16  C   UNL     1     -41.345 -45.756  10.392  1.00  0.00     0.298 C 
HETATM   17  N   UNL     1     -40.496 -46.013  11.580  1.00  0.00     0.092 N 
HETATM   18  C   UNL     1     -40.017 -47.411  11.505  1.00  0.00     0.305 C 
BRANCH  17  19
HETATM   19  C   UNL     1     -41.215 -45.675  12.817  1.00  0.00     0.268 C 
HETATM   20  C   UNL     1     -40.328 -45.148  13.941  1.00  0.00     0.037 C 
ENDBRANCH  17  19
ENDBRANCH  12  13
ENDBRANCH  10  12
ENDBRANCH   1  10
TORSDOF 4
ENDMDL
