MODEL 1
REMARK VINA RESULT:      -6.8      0.000      0.000
REMARK  7 active torsions:
REMARK  status: ('A' for Active; 'I' for Inactive)
REMARK    1  A    between atoms: C_2  and  O_3 
REMARK    2  A    between atoms: C_2  and  C_9 
REMARK    3  A    between atoms: O_3  and  C_4 
REMARK    4  A    between atoms: C_4  and  C_5 
REMARK       I    between atoms: C_9  and  N_11 
REMARK    5  A    between atoms: N_11  and  C_12 
REMARK    6  A    between atoms: C_12  and  C_13 
REMARK    7  A    between atoms: C_18  and  N_20 
ROOT
HETATM    1  C   UNL     1     -40.326 -48.157  11.587  1.00  0.00    -0.036 A 
HETATM    2  C   UNL     1     -39.065 -48.282  12.161  1.00  0.00     0.026 A 
HETATM    3  C   UNL     1     -38.700 -49.514  12.673  1.00  0.00     0.090 A 
HETATM    4  N   UNL     1     -39.483 -50.613  12.638  1.00  0.00    -0.352 N 
ATOM      5  HN  UNL     1     -39.162 -51.497  13.033  1.00  0.00     0.166 HD
HETATM    6  C   UNL     1     -40.701 -50.513  12.066  1.00  0.00     0.103 A 
HETATM    7  C   UNL     1     -41.138 -49.298  11.531  1.00  0.00     0.057 A 
ENDROOT
BRANCH   1   8
HETATM    8  C   UNL     1     -40.801 -46.854  11.022  1.00  0.00     0.161 C 
BRANCH   8   9
HETATM    9  N   UNL     1     -41.802 -47.074  10.008  1.00  0.00    -0.355 N 
HETATM   10  C   UNL     1     -42.682 -46.067   9.654  1.00  0.00     0.246 C 
HETATM   11  O   UNL     1     -42.674 -44.967  10.198  1.00  0.00    -0.271 OA
HETATM   12  H   UNL     1     -41.798 -47.952   9.507  1.00  0.00     0.162 HD
BRANCH  10  13
HETATM   13  C   UNL     1     -43.637 -46.448   8.494  1.00  0.00     0.209 C 
HETATM   14  C   UNL     1     -43.250 -47.824   7.957  1.00  0.00     0.050 C 
BRANCH  13  15
HETATM   15  O   UNL     1     -45.020 -46.504   8.845  1.00  0.00    -0.368 OA
BRANCH  15  16
HETATM   16  C   UNL     1     -45.408 -47.706   9.526  1.00  0.00     0.286 C 
BRANCH  16  17
HETATM   17  C   UNL     1     -46.672 -48.366   8.963  1.00  0.00     0.408 C 
HETATM   18  F   UNL     1     -47.023 -49.492   9.613  1.00  0.00    -0.169 F 
HETATM   19  F   UNL     1     -47.719 -47.508   9.027  1.00  0.00    -0.169 F 
HETATM   20  F   UNL     1     -46.498 -48.680   7.657  1.00  0.00    -0.169 F 
ENDBRANCH  16  17
ENDBRANCH  15  16
ENDBRANCH  13  15
ENDBRANCH  10  13
ENDBRANCH   8   9
ENDBRANCH   1   8
BRANCH   6  21
HETATM   21  N   UNL     1     -41.568 -51.601  12.084  1.00  0.00    -0.363 N 
HETATM   22  C   UNL     1     -42.807 -51.485  12.870  1.00  0.00     0.150 C 
HETATM   23  C   UNL     1     -42.703 -52.195  14.227  1.00  0.00     0.187 C 
HETATM   24  O   UNL     1     -42.263 -53.556  14.076  1.00  0.00    -0.388 OA
HETATM   25  C   UNL     1     -40.964 -53.577  13.470  1.00  0.00     0.187 C 
HETATM   26  C   UNL     1     -40.982 -52.952  12.066  1.00  0.00     0.150 C 
ENDBRANCH   6  21
TORSDOF 7
ENDMDL
MODEL 2
REMARK VINA RESULT:      -6.6      2.512      3.763
REMARK  7 active torsions:
REMARK  status: ('A' for Active; 'I' for Inactive)
REMARK    1  A    between atoms: C_2  and  O_3 
REMARK    2  A    between atoms: C_2  and  C_9 
REMARK    3  A    between atoms: O_3  and  C_4 
REMARK    4  A    between atoms: C_4  and  C_5 
REMARK       I    between atoms: C_9  and  N_11 
REMARK    5  A    between atoms: N_11  and  C_12 
REMARK    6  A    between atoms: C_12  and  C_13 
REMARK    7  A    between atoms: C_18  and  N_20 
ROOT
HETATM    1  C   UNL     1     -41.450 -52.199  12.509  1.00  0.00    -0.036 A 
HETATM    2  C   UNL     1     -40.660 -53.051  13.274  1.00  0.00     0.026 A 
HETATM    3  C   UNL     1     -41.263 -54.145  13.867  1.00  0.00     0.090 A 
HETATM    4  N   UNL     1     -42.571 -54.453  13.738  1.00  0.00    -0.352 N 
ATOM      5  HN  UNL     1     -42.962 -55.274  14.200  1.00  0.00     0.166 HD
HETATM    6  C   UNL     1     -43.346 -53.648  12.982  1.00  0.00     0.103 A 
HETATM    7  C   UNL     1     -42.804 -52.522  12.356  1.00  0.00     0.057 A 
ENDROOT
BRANCH   1   8
HETATM    8  C   UNL     1     -40.875 -50.986  11.845  1.00  0.00     0.161 C 
BRANCH   8   9
HETATM    9  N   UNL     1     -41.917 -50.046  11.513  1.00  0.00    -0.355 N 
HETATM   10  C   UNL     1     -41.616 -48.722  11.253  1.00  0.00     0.246 C 
HETATM   11  O   UNL     1     -40.472 -48.282  11.322  1.00  0.00    -0.271 OA
HETATM   12  H   UNL     1     -42.860 -50.391  11.398  1.00  0.00     0.162 HD
BRANCH  10  13
HETATM   13  C   UNL     1     -42.842 -47.871  10.835  1.00  0.00     0.209 C 
HETATM   14  C   UNL     1     -42.641 -46.434  11.311  1.00  0.00     0.050 C 
BRANCH  13  15
HETATM   15  O   UNL     1     -43.092 -47.820   9.430  1.00  0.00    -0.368 OA
BRANCH  15  16
HETATM   16  C   UNL     1     -44.159 -46.938   9.051  1.00  0.00     0.286 C 
BRANCH  16  17
HETATM   17  C   UNL     1     -45.512 -47.634   8.867  1.00  0.00     0.408 C 
HETATM   18  F   UNL     1     -45.887 -48.366   9.934  1.00  0.00    -0.169 F 
HETATM   19  F   UNL     1     -46.483 -46.719   8.631  1.00  0.00    -0.169 F 
HETATM   20  F   UNL     1     -45.476 -48.459   7.793  1.00  0.00    -0.169 F 
ENDBRANCH  16  17
ENDBRANCH  15  16
ENDBRANCH  13  15
ENDBRANCH  10  13
ENDBRANCH   8   9
ENDBRANCH   1   8
BRANCH   6  21
HETATM   21  N   UNL     1     -44.714 -53.887  12.892  1.00  0.00    -0.363 N 
HETATM   22  C   UNL     1     -45.599 -52.742  12.624  1.00  0.00     0.150 C 
HETATM   23  C   UNL     1     -46.288 -52.229  13.896  1.00  0.00     0.187 C 
HETATM   24  O   UNL     1     -46.951 -53.293  14.601  1.00  0.00    -0.388 OA
HETATM   25  C   UNL     1     -45.990 -54.283  14.992  1.00  0.00     0.187 C 
HETATM   26  C   UNL     1     -45.296 -54.914  13.774  1.00  0.00     0.150 C 
ENDBRANCH   6  21
TORSDOF 7
ENDMDL
MODEL 3
REMARK VINA RESULT:      -6.5      2.449      6.558
REMARK  7 active torsions:
REMARK  status: ('A' for Active; 'I' for Inactive)
REMARK    1  A    between atoms: C_2  and  O_3 
REMARK    2  A    between atoms: C_2  and  C_9 
REMARK    3  A    between atoms: O_3  and  C_4 
REMARK    4  A    between atoms: C_4  and  C_5 
REMARK       I    between atoms: C_9  and  N_11 
REMARK    5  A    between atoms: N_11  and  C_12 
REMARK    6  A    between atoms: C_12  and  C_13 
REMARK    7  A    between atoms: C_18  and  N_20 
ROOT
HETATM    1  C   UNL     1     -41.956 -49.942  12.406  1.00  0.00    -0.036 A 
HETATM    2  C   UNL     1     -42.508 -49.424  13.574  1.00  0.00     0.026 A 
HETATM    3  C   UNL     1     -42.939 -48.110  13.566  1.00  0.00     0.090 A 
HETATM    4  N   UNL     1     -42.875 -47.297  12.490  1.00  0.00    -0.352 N 
ATOM      5  HN  UNL     1     -43.207 -46.334  12.542  1.00  0.00     0.166 HD
HETATM    6  C   UNL     1     -42.360 -47.791  11.345  1.00  0.00     0.103 A 
HETATM    7  C   UNL     1     -41.902 -49.109  11.281  1.00  0.00     0.057 A 
ENDROOT
BRANCH   1   8
HETATM    8  C   UNL     1     -41.454 -51.351  12.338  1.00  0.00     0.161 C 
BRANCH   8   9
HETATM    9  N   UNL     1     -42.550 -52.274  12.173  1.00  0.00    -0.355 N 
HETATM   10  C   UNL     1     -42.772 -53.279  13.096  1.00  0.00     0.246 C 
HETATM   11  O   UNL     1     -42.041 -53.453  14.066  1.00  0.00    -0.271 OA
HETATM   12  H   UNL     1     -43.198 -52.123  11.412  1.00  0.00     0.162 HD
BRANCH  10  13
HETATM   13  C   UNL     1     -44.037 -54.128  12.807  1.00  0.00     0.209 C 
HETATM   14  C   UNL     1     -44.523 -54.760  14.109  1.00  0.00     0.050 C 
BRANCH  13  15
HETATM   15  O   UNL     1     -45.135 -53.405  12.251  1.00  0.00    -0.368 OA
BRANCH  15  16
HETATM   16  C   UNL     1     -46.090 -52.945  13.218  1.00  0.00     0.286 C 
BRANCH  16  17
HETATM   17  C   UNL     1     -46.475 -51.469  13.068  1.00  0.00     0.408 C 
HETATM   18  F   UNL     1     -47.304 -51.235  12.033  1.00  0.00    -0.169 F 
HETATM   19  F   UNL     1     -47.083 -51.025  14.194  1.00  0.00    -0.169 F 
HETATM   20  F   UNL     1     -45.367 -50.709  12.890  1.00  0.00    -0.169 F 
ENDBRANCH  16  17
ENDBRANCH  15  16
ENDBRANCH  13  15
ENDBRANCH  10  13
ENDBRANCH   8   9
ENDBRANCH   1   8
BRANCH   6  21
HETATM   21  N   UNL     1     -42.202 -46.960  10.239  1.00  0.00    -0.363 N 
HETATM   22  C   UNL     1     -41.792 -45.566  10.476  1.00  0.00     0.150 C 
HETATM   23  C   UNL     1     -42.975 -44.591  10.401  1.00  0.00     0.187 C 
HETATM   24  O   UNL     1     -43.716 -44.755   9.179  1.00  0.00    -0.388 OA
HETATM   25  C   UNL     1     -44.241 -46.088   9.110  1.00  0.00     0.187 C 
HETATM   26  C   UNL     1     -43.121 -47.140   9.102  1.00  0.00     0.150 C 
ENDBRANCH   6  21
TORSDOF 7
ENDMDL
MODEL 4
REMARK VINA RESULT:      -6.4      2.388      6.330
REMARK  7 active torsions:
REMARK  status: ('A' for Active; 'I' for Inactive)
REMARK    1  A    between atoms: C_2  and  O_3 
REMARK    2  A    between atoms: C_2  and  C_9 
REMARK    3  A    between atoms: O_3  and  C_4 
REMARK    4  A    between atoms: C_4  and  C_5 
REMARK       I    between atoms: C_9  and  N_11 
REMARK    5  A    between atoms: N_11  and  C_12 
REMARK    6  A    between atoms: C_12  and  C_13 
REMARK    7  A    between atoms: C_18  and  N_20 
ROOT
HETATM    1  C   UNL     1     -41.334 -50.550  12.924  1.00  0.00    -0.036 A 
HETATM    2  C   UNL     1     -40.273 -50.706  12.037  1.00  0.00     0.026 A 
HETATM    3  C   UNL     1     -40.138 -49.787  11.013  1.00  0.00     0.090 A 
HETATM    4  N   UNL     1     -40.961 -48.734  10.824  1.00  0.00    -0.352 N 
ATOM      5  HN  UNL     1     -40.814 -48.088  10.049  1.00  0.00     0.166 HD
HETATM    6  C   UNL     1     -41.983 -48.557  11.688  1.00  0.00     0.103 A 
HETATM    7  C   UNL     1     -42.182 -49.449  12.745  1.00  0.00     0.057 A 
ENDROOT
BRANCH   1   8
HETATM    8  C   UNL     1     -41.557 -51.509  14.052  1.00  0.00     0.161 C 
BRANCH   8   9
HETATM    9  N   UNL     1     -42.748 -52.290  13.828  1.00  0.00    -0.355 N 
HETATM   10  C   UNL     1     -42.682 -53.508  13.175  1.00  0.00     0.246 C 
HETATM   11  O   UNL     1     -41.630 -53.960  12.734  1.00  0.00    -0.271 OA
HETATM   12  H   UNL     1     -43.620 -51.967  14.225  1.00  0.00     0.162 HD
BRANCH  10  13
HETATM   13  C   UNL     1     -44.041 -54.248  13.091  1.00  0.00     0.209 C 
HETATM   14  C   UNL     1     -44.553 -54.519  14.503  1.00  0.00     0.050 C 
BRANCH  13  15
HETATM   15  O   UNL     1     -45.070 -53.544  12.395  1.00  0.00    -0.368 OA
BRANCH  15  16
HETATM   16  C   UNL     1     -46.121 -53.050  13.237  1.00  0.00     0.286 C 
BRANCH  16  17
HETATM   17  C   UNL     1     -46.430 -51.561  13.046  1.00  0.00     0.408 C 
HETATM   18  F   UNL     1     -47.134 -51.025  14.061  1.00  0.00    -0.169 F 
HETATM   19  F   UNL     1     -45.281 -50.854  12.921  1.00  0.00    -0.169 F 
HETATM   20  F   UNL     1     -47.139 -51.369  11.907  1.00  0.00    -0.169 F 
ENDBRANCH  16  17
ENDBRANCH  15  16
ENDBRANCH  13  15
ENDBRANCH  10  13
ENDBRANCH   8   9
ENDBRANCH   1   8
BRANCH   6  21
HETATM   21  N   UNL     1     -42.899 -47.531  11.479  1.00  0.00    -0.363 N 
HETATM   22  C   UNL     1     -43.803 -47.637  10.322  1.00  0.00     0.150 C 
HETATM   23  C   UNL     1     -43.339 -46.775   9.141  1.00  0.00     0.187 C 
HETATM   24  O   UNL     1     -43.104 -45.414   9.542  1.00  0.00    -0.388 OA
HETATM   25  C   UNL     1     -42.076 -45.378  10.541  1.00  0.00     0.187 C 
HETATM   26  C   UNL     1     -42.483 -46.156  11.803  1.00  0.00     0.150 C 
ENDBRANCH   6  21
TORSDOF 7
ENDMDL
MODEL 5
REMARK VINA RESULT:      -6.4      1.773      2.675
REMARK  7 active torsions:
REMARK  status: ('A' for Active; 'I' for Inactive)
REMARK    1  A    between atoms: C_2  and  O_3 
REMARK    2  A    between atoms: C_2  and  C_9 
REMARK    3  A    between atoms: O_3  and  C_4 
REMARK    4  A    between atoms: C_4  and  C_5 
REMARK       I    between atoms: C_9  and  N_11 
REMARK    5  A    between atoms: N_11  and  C_12 
REMARK    6  A    between atoms: C_12  and  C_13 
REMARK    7  A    between atoms: C_18  and  N_20 
ROOT
HETATM    1  C   UNL     1     -41.057 -50.507  12.005  1.00  0.00    -0.036 A 
HETATM    2  C   UNL     1     -39.981 -51.278  12.432  1.00  0.00     0.026 A 
HETATM    3  C   UNL     1     -40.211 -52.248  13.391  1.00  0.00     0.090 A 
HETATM    4  N   UNL     1     -41.421 -52.509  13.930  1.00  0.00    -0.352 N 
ATOM      5  HN  UNL     1     -41.532 -53.237  14.636  1.00  0.00     0.166 HD
HETATM    6  C   UNL     1     -42.478 -51.783  13.512  1.00  0.00     0.103 A 
HETATM    7  C   UNL     1     -42.319 -50.785  12.548  1.00  0.00     0.057 A 
ENDROOT
BRANCH   1   8
HETATM    8  C   UNL     1     -40.888 -49.429  10.980  1.00  0.00     0.161 C 
BRANCH   8   9
HETATM    9  N   UNL     1     -42.133 -48.737  10.758  1.00  0.00    -0.355 N 
HETATM   10  C   UNL     1     -42.154 -47.372  10.540  1.00  0.00     0.246 C 
HETATM   11  O   UNL     1     -41.134 -46.689  10.556  1.00  0.00    -0.271 OA
HETATM   12  H   UNL     1     -42.982 -49.281  10.688  1.00  0.00     0.162 HD
BRANCH  10  13
HETATM   13  C   UNL     1     -43.565 -46.806  10.241  1.00  0.00     0.209 C 
HETATM   14  C   UNL     1     -43.515 -45.989   8.952  1.00  0.00     0.050 C 
BRANCH  13  15
HETATM   15  O   UNL     1     -44.589 -47.788  10.081  1.00  0.00    -0.368 OA
BRANCH  15  16
HETATM   16  C   UNL     1     -45.199 -47.799   8.782  1.00  0.00     0.286 C 
BRANCH  16  17
HETATM   17  C   UNL     1     -46.595 -48.431   8.750  1.00  0.00     0.408 C 
HETATM   18  F   UNL     1     -46.884 -49.032   7.580  1.00  0.00    -0.169 F 
HETATM   19  F   UNL     1     -46.713 -49.360   9.731  1.00  0.00    -0.169 F 
HETATM   20  F   UNL     1     -47.544 -47.492   8.978  1.00  0.00    -0.169 F 
ENDBRANCH  16  17
ENDBRANCH  15  16
ENDBRANCH  13  15
ENDBRANCH  10  13
ENDBRANCH   8   9
ENDBRANCH   1   8
BRANCH   6  21
HETATM   21  N   UNL     1     -43.725 -51.968  14.103  1.00  0.00    -0.363 N 
HETATM   22  C   UNL     1     -43.930 -53.175  14.920  1.00  0.00     0.150 C 
HETATM   23  C   UNL     1     -44.696 -54.267  14.161  1.00  0.00     0.187 C 
HETATM   24  O   UNL     1     -45.918 -53.759  13.598  1.00  0.00    -0.388 OA
HETATM   25  C   UNL     1     -45.620 -52.708  12.670  1.00  0.00     0.187 C 
HETATM   26  C   UNL     1     -44.916 -51.526  13.357  1.00  0.00     0.150 C 
ENDBRANCH   6  21
TORSDOF 7
ENDMDL
MODEL 6
REMARK VINA RESULT:      -6.2      2.845      3.826
REMARK  7 active torsions:
REMARK  status: ('A' for Active; 'I' for Inactive)
REMARK    1  A    between atoms: C_2  and  O_3 
REMARK    2  A    between atoms: C_2  and  C_9 
REMARK    3  A    between atoms: O_3  and  C_4 
REMARK    4  A    between atoms: C_4  and  C_5 
REMARK       I    between atoms: C_9  and  N_11 
REMARK    5  A    between atoms: N_11  and  C_12 
REMARK    6  A    between atoms: C_12  and  C_13 
REMARK    7  A    between atoms: C_18  and  N_20 
ROOT
HETATM    1  C   UNL     1     -43.199 -49.852  14.002  1.00  0.00    -0.036 A 
HETATM    2  C   UNL     1     -43.289 -49.382  15.308  1.00  0.00     0.026 A 
HETATM    3  C   UNL     1     -44.258 -49.925  16.132  1.00  0.00     0.090 A 
HETATM    4  N   UNL     1     -45.116 -50.897  15.756  1.00  0.00    -0.352 N 
ATOM      5  HN  UNL     1     -45.812 -51.260  16.408  1.00  0.00     0.166 HD
HETATM    6  C   UNL     1     -45.028 -51.377  14.499  1.00  0.00     0.103 A 
HETATM    7  C   UNL     1     -44.074 -50.873  13.610  1.00  0.00     0.057 A 
ENDROOT
BRANCH   1   8
HETATM    8  C   UNL     1     -42.185 -49.306  13.044  1.00  0.00     0.161 C 
BRANCH   8   9
HETATM    9  N   UNL     1     -42.828 -48.799  11.857  1.00  0.00    -0.355 N 
HETATM   10  C   UNL     1     -42.986 -47.439  11.665  1.00  0.00     0.246 C 
HETATM   11  O   UNL     1     -42.621 -46.612  12.496  1.00  0.00    -0.271 OA
HETATM   12  H   UNL     1     -43.092 -49.453  11.133  1.00  0.00     0.162 HD
BRANCH  10  13
HETATM   13  C   UNL     1     -43.624 -47.067  10.302  1.00  0.00     0.209 C 
HETATM   14  C   UNL     1     -42.825 -47.723   9.179  1.00  0.00     0.050 C 
BRANCH  13  15
HETATM   15  O   UNL     1     -44.986 -47.468  10.144  1.00  0.00    -0.368 OA
BRANCH  15  16
HETATM   16  C   UNL     1     -45.347 -47.813   8.799  1.00  0.00     0.286 C 
BRANCH  16  17
HETATM   17  C   UNL     1     -46.690 -48.541   8.677  1.00  0.00     0.408 C 
HETATM   18  F   UNL     1     -46.866 -49.144   7.485  1.00  0.00    -0.169 F 
HETATM   19  F   UNL     1     -46.799 -49.490   9.639  1.00  0.00    -0.169 F 
HETATM   20  F   UNL     1     -47.715 -47.674   8.857  1.00  0.00    -0.169 F 
ENDBRANCH  16  17
ENDBRANCH  15  16
ENDBRANCH  13  15
ENDBRANCH  10  13
ENDBRANCH   8   9
ENDBRANCH   1   8
BRANCH   6  21
HETATM   21  N   UNL     1     -45.946 -52.321  14.050  1.00  0.00    -0.363 N 
HETATM   22  C   UNL     1     -46.851 -52.930  15.038  1.00  0.00     0.150 C 
HETATM   23  C   UNL     1     -46.389 -54.330  15.464  1.00  0.00     0.187 C 
HETATM   24  O   UNL     1     -46.157 -55.177  14.324  1.00  0.00    -0.388 OA
HETATM   25  C   UNL     1     -45.128 -54.607  13.503  1.00  0.00     0.187 C 
HETATM   26  C   UNL     1     -45.533 -53.226  12.963  1.00  0.00     0.150 C 
ENDBRANCH   6  21
TORSDOF 7
ENDMDL
MODEL 7
REMARK VINA RESULT:      -6.0      3.542      6.740
REMARK  7 active torsions:
REMARK  status: ('A' for Active; 'I' for Inactive)
REMARK    1  A    between atoms: C_2  and  O_3 
REMARK    2  A    between atoms: C_2  and  C_9 
REMARK    3  A    between atoms: O_3  and  C_4 
REMARK    4  A    between atoms: C_4  and  C_5 
REMARK       I    between atoms: C_9  and  N_11 
REMARK    5  A    between atoms: N_11  and  C_12 
REMARK    6  A    between atoms: C_12  and  C_13 
REMARK    7  A    between atoms: C_18  and  N_20 
ROOT
HETATM    1  C   UNL     1     -42.289 -50.012  12.769  1.00  0.00    -0.036 A 
HETATM    2  C   UNL     1     -41.076 -50.474  12.270  1.00  0.00     0.026 A 
HETATM    3  C   UNL     1     -40.564 -49.870  11.136  1.00  0.00     0.090 A 
HETATM    4  N   UNL     1     -41.158 -48.845  10.488  1.00  0.00    -0.352 N 
ATOM      5  HN  UNL     1     -40.735 -48.438   9.654  1.00  0.00     0.166 HD
HETATM    6  C   UNL     1     -42.325 -48.372  10.973  1.00  0.00     0.103 A 
HETATM    7  C   UNL     1     -42.902 -48.937  12.113  1.00  0.00     0.057 A 
ENDROOT
BRANCH   1   8
HETATM    8  C   UNL     1     -42.916 -50.622  13.986  1.00  0.00     0.161 C 
BRANCH   8   9
HETATM    9  N   UNL     1     -44.186 -51.220  13.657  1.00  0.00    -0.355 N 
HETATM   10  C   UNL     1     -45.228 -51.208  14.567  1.00  0.00     0.246 C 
HETATM   11  O   UNL     1     -45.114 -50.726  15.690  1.00  0.00    -0.271 OA
HETATM   12  H   UNL     1     -44.325 -51.578  12.723  1.00  0.00     0.162 HD
BRANCH  10  13
HETATM   13  C   UNL     1     -46.543 -51.822  14.022  1.00  0.00     0.209 C 
HETATM   14  C   UNL     1     -46.549 -51.722  12.499  1.00  0.00     0.050 C 
BRANCH  13  15
HETATM   15  O   UNL     1     -46.754 -53.194  14.358  1.00  0.00    -0.368 OA
BRANCH  15  16
HETATM   16  C   UNL     1     -45.595 -53.858  14.883  1.00  0.00     0.286 C 
BRANCH  16  17
HETATM   17  C   UNL     1     -45.031 -54.951  13.969  1.00  0.00     0.408 C 
HETATM   18  F   UNL     1     -43.985 -55.610  14.504  1.00  0.00    -0.169 F 
HETATM   19  F   UNL     1     -45.991 -55.865  13.682  1.00  0.00    -0.169 F 
HETATM   20  F   UNL     1     -44.626 -54.420  12.791  1.00  0.00    -0.169 F 
ENDBRANCH  16  17
ENDBRANCH  15  16
ENDBRANCH  13  15
ENDBRANCH  10  13
ENDBRANCH   8   9
ENDBRANCH   1   8
BRANCH   6  21
HETATM   21  N   UNL     1     -43.008 -47.372  10.287  1.00  0.00    -0.363 N 
HETATM   22  C   UNL     1     -44.433 -47.172  10.595  1.00  0.00     0.150 C 
HETATM   23  C   UNL     1     -45.350 -47.812   9.545  1.00  0.00     0.187 C 
HETATM   24  O   UNL     1     -45.003 -47.390   8.215  1.00  0.00    -0.388 OA
HETATM   25  C   UNL     1     -43.657 -47.787   7.921  1.00  0.00     0.187 C 
HETATM   26  C   UNL     1     -42.649 -47.131   8.879  1.00  0.00     0.150 C 
ENDBRANCH   6  21
TORSDOF 7
ENDMDL
MODEL 8
REMARK VINA RESULT:      -5.8      3.404      6.739
REMARK  7 active torsions:
REMARK  status: ('A' for Active; 'I' for Inactive)
REMARK    1  A    between atoms: C_2  and  O_3 
REMARK    2  A    between atoms: C_2  and  C_9 
REMARK    3  A    between atoms: O_3  and  C_4 
REMARK    4  A    between atoms: C_4  and  C_5 
REMARK       I    between atoms: C_9  and  N_11 
REMARK    5  A    between atoms: N_11  and  C_12 
REMARK    6  A    between atoms: C_12  and  C_13 
REMARK    7  A    between atoms: C_18  and  N_20 
ROOT
HETATM    1  C   UNL     1     -38.656 -50.627  13.547  1.00  0.00    -0.036 A 
HETATM    2  C   UNL     1     -37.689 -50.709  12.551  1.00  0.00     0.026 A 
HETATM    3  C   UNL     1     -37.760 -49.818  11.496  1.00  0.00     0.090 A 
HETATM    4  N   UNL     1     -38.702 -48.858  11.376  1.00  0.00    -0.352 N 
ATOM      5  HN  UNL     1     -38.707 -48.229  10.573  1.00  0.00     0.166 HD
HETATM    6  C   UNL     1     -39.636 -48.754  12.344  1.00  0.00     0.103 A 
HETATM    7  C   UNL     1     -39.626 -49.623  13.438  1.00  0.00     0.057 A 
ENDROOT
BRANCH   1   8
HETATM    8  C   UNL     1     -38.655 -51.564  14.715  1.00  0.00     0.161 C 
BRANCH   8   9
HETATM    9  N   UNL     1     -39.861 -52.355  14.734  1.00  0.00    -0.355 N 
HETATM   10  C   UNL     1     -39.892 -53.608  14.149  1.00  0.00     0.246 C 
HETATM   11  O   UNL     1     -38.923 -54.086  13.568  1.00  0.00    -0.271 OA
HETATM   12  H   UNL     1     -40.658 -52.010  15.250  1.00  0.00     0.162 HD
BRANCH  10  13
HETATM   13  C   UNL     1     -41.240 -54.351  14.331  1.00  0.00     0.209 C 
HETATM   14  C   UNL     1     -41.550 -54.470  15.821  1.00  0.00     0.050 C 
BRANCH  13  15
HETATM   15  O   UNL     1     -42.364 -53.723  13.713  1.00  0.00    -0.368 OA
BRANCH  15  16
HETATM   16  C   UNL     1     -43.605 -53.919  14.406  1.00  0.00     0.286 C 
BRANCH  16  17
HETATM   17  C   UNL     1     -44.749 -54.416  13.515  1.00  0.00     0.408 C 
HETATM   18  F   UNL     1     -45.191 -55.644  13.846  1.00  0.00    -0.169 F 
HETATM   19  F   UNL     1     -45.802 -53.565  13.584  1.00  0.00    -0.169 F 
HETATM   20  F   UNL     1     -44.356 -54.454  12.219  1.00  0.00    -0.169 F 
ENDBRANCH  16  17
ENDBRANCH  15  16
ENDBRANCH  13  15
ENDBRANCH  10  13
ENDBRANCH   8   9
ENDBRANCH   1   8
BRANCH   6  21
HETATM   21  N   UNL     1     -40.670 -47.831  12.215  1.00  0.00    -0.363 N 
HETATM   22  C   UNL     1     -41.874 -48.022  13.039  1.00  0.00     0.150 C 
HETATM   23  C   UNL     1     -43.025 -48.658  12.248  1.00  0.00     0.187 C 
HETATM   24  O   UNL     1     -43.290 -47.936  11.033  1.00  0.00    -0.388 OA
HETATM   25  C   UNL     1     -42.124 -47.953  10.199  1.00  0.00     0.187 C 
HETATM   26  C   UNL     1     -40.929 -47.266  10.879  1.00  0.00     0.150 C 
ENDBRANCH   6  21
TORSDOF 7
ENDMDL
MODEL 9
REMARK VINA RESULT:      -5.8      2.912      6.137
REMARK  7 active torsions:
REMARK  status: ('A' for Active; 'I' for Inactive)
REMARK    1  A    between atoms: C_2  and  O_3 
REMARK    2  A    between atoms: C_2  and  C_9 
REMARK    3  A    between atoms: O_3  and  C_4 
REMARK    4  A    between atoms: C_4  and  C_5 
REMARK       I    between atoms: C_9  and  N_11 
REMARK    5  A    between atoms: N_11  and  C_12 
REMARK    6  A    between atoms: C_12  and  C_13 
REMARK    7  A    between atoms: C_18  and  N_20 
ROOT
HETATM    1  C   UNL     1     -39.506 -51.098  12.888  1.00  0.00    -0.036 A 
HETATM    2  C   UNL     1     -38.156 -50.887  12.626  1.00  0.00     0.026 A 
HETATM    3  C   UNL     1     -37.802 -49.786  11.868  1.00  0.00     0.090 A 
HETATM    4  N   UNL     1     -38.683 -48.888  11.378  1.00  0.00    -0.352 N 
ATOM      5  HN  UNL     1     -38.364 -48.093  10.823  1.00  0.00     0.166 HD
HETATM    6  C   UNL     1     -39.994 -49.067  11.641  1.00  0.00     0.103 A 
HETATM    7  C   UNL     1     -40.424 -50.160  12.398  1.00  0.00     0.057 A 
ENDROOT
BRANCH   1   8
HETATM    8  C   UNL     1     -39.971 -52.274  13.691  1.00  0.00     0.161 C 
BRANCH   8   9
HETATM    9  N   UNL     1     -41.260 -52.727  13.229  1.00  0.00    -0.355 N 
HETATM   10  C   UNL     1     -41.859 -53.841  13.788  1.00  0.00     0.246 C 
HETATM   11  O   UNL     1     -41.317 -54.507  14.665  1.00  0.00    -0.271 OA
HETATM   12  H   UNL     1     -41.752 -52.169  12.545  1.00  0.00     0.162 HD
BRANCH  10  13
HETATM   13  C   UNL     1     -43.274 -54.139  13.230  1.00  0.00     0.209 C 
HETATM   14  C   UNL     1     -44.173 -54.612  14.370  1.00  0.00     0.050 C 
BRANCH  13  15
HETATM   15  O   UNL     1     -43.924 -53.029  12.609  1.00  0.00    -0.368 OA
BRANCH  15  16
HETATM   16  C   UNL     1     -45.323 -52.921  12.910  1.00  0.00     0.286 C 
BRANCH  16  17
HETATM   17  C   UNL     1     -45.766 -51.518  13.339  1.00  0.00     0.408 C 
HETATM   18  F   UNL     1     -46.988 -51.180  12.884  1.00  0.00    -0.169 F 
HETATM   19  F   UNL     1     -45.788 -51.425  14.691  1.00  0.00    -0.169 F 
HETATM   20  F   UNL     1     -44.887 -50.589  12.892  1.00  0.00    -0.169 F 
ENDBRANCH  16  17
ENDBRANCH  15  16
ENDBRANCH  13  15
ENDBRANCH  10  13
ENDBRANCH   8   9
ENDBRANCH   1   8
BRANCH   6  21
HETATM   21  N   UNL     1     -40.938 -48.209  11.086  1.00  0.00    -0.363 N 
HETATM   22  C   UNL     1     -40.617 -46.773  11.028  1.00  0.00     0.150 C 
HETATM   23  C   UNL     1     -41.302 -45.979  12.149  1.00  0.00     0.187 C 
HETATM   24  O   UNL     1     -42.718 -46.234  12.185  1.00  0.00    -0.388 OA
HETATM   25  C   UNL     1     -42.949 -47.627  12.431  1.00  0.00     0.187 C 
HETATM   26  C   UNL     1     -42.362 -48.506  11.315  1.00  0.00     0.150 C 
ENDBRANCH   6  21
TORSDOF 7
ENDMDL
