MODEL 1
REMARK VINA RESULT:      -6.1      0.000      0.000
REMARK  6 active torsions:
REMARK  status: ('A' for Active; 'I' for Inactive)
REMARK    1  A    between atoms: S_2  and  C_4 
REMARK    2  A    between atoms: N_10  and  C_11 
REMARK    3  A    between atoms: C_11  and  C_12 
REMARK       I    between atoms: C_12  and  N_14 
REMARK    4  A    between atoms: N_14  and  C_15 
REMARK    5  A    between atoms: C_15  and  C_16 
REMARK    6  A    between atoms: C_16  and  C_17 
ROOT
HETATM    1  C   UNL     1     -39.725 -52.860  13.731  1.00  0.00     0.235 C 
HETATM    2  O   UNL     1     -39.009 -53.849  13.599  1.00  0.00    -0.272 OA
HETATM    3  N   UNL     1     -41.102 -52.915  13.674  1.00  0.00    -0.360 N 
HETATM    4  H   UNL     1     -41.636 -52.141  14.054  1.00  0.00     0.162 HD
ENDROOT
BRANCH   1   5
HETATM    5  C   UNL     1     -39.151 -51.477  13.938  1.00  0.00     0.234 C 
BRANCH   5   6
HETATM    6  N   UNL     1     -38.773 -50.797  12.716  1.00  0.00    -0.311 N 
HETATM    7  C   UNL     1     -39.595 -50.018  11.940  1.00  0.00     0.192 A 
HETATM    8  N   UNL     1     -38.943 -49.653  10.856  1.00  0.00    -0.277 N 
HETATM    9  N   UNL     1     -37.672 -50.167  10.932  1.00  0.00    -0.294 N 
ATOM     10  HN  UNL     1     -39.316 -49.087  10.094  1.00  0.00     0.189 HD
HETATM   11  C   UNL     1     -37.579 -50.833  12.060  1.00  0.00     0.202 A 
ATOM     12  HN  UNL     1     -36.933 -50.053  10.238  1.00  0.00     0.187 HD
BRANCH   7  13
HETATM   13  S   UNL     1     -41.228 -49.531  12.261  1.00  0.00     0.081 S 
HETATM   14  C   UNL     1     -41.449 -48.501  10.795  1.00  0.00     0.136 C 
HETATM   15  O   UNL     1     -42.099 -50.746  12.130  1.00  0.00    -0.250 OA
ENDBRANCH   7  13
ENDBRANCH   5   6
ENDBRANCH   1   5
BRANCH   3  16
HETATM   16  C   UNL     1     -41.771 -54.201  13.604  1.00  0.00     0.123 C 
BRANCH  16  17
HETATM   17  C   UNL     1     -43.150 -54.158  14.253  1.00  0.00     0.024 C 
BRANCH  17  18
HETATM   18  C   UNL     1     -44.293 -54.398  13.243  1.00  0.00    -0.013 C 
HETATM   19  C   UNL     1     -44.680 -53.093  12.525  1.00  0.00     0.005 C 
HETATM   20  C   UNL     1     -45.407 -52.110  13.443  1.00  0.00     0.000 C 
HETATM   21  C   UNL     1     -46.613 -52.751  14.125  1.00  0.00     0.000 C 
HETATM   22  C   UNL     1     -46.262 -54.064  14.820  1.00  0.00     0.000 C 
HETATM   23  C   UNL     1     -45.550 -55.023  13.869  1.00  0.00     0.005 C 
ENDBRANCH  17  18
ENDBRANCH  16  17
ENDBRANCH   3  16
TORSDOF 6
ENDMDL
MODEL 2
REMARK VINA RESULT:      -5.5      1.969      2.545
REMARK  6 active torsions:
REMARK  status: ('A' for Active; 'I' for Inactive)
REMARK    1  A    between atoms: S_2  and  C_4 
REMARK    2  A    between atoms: N_10  and  C_11 
REMARK    3  A    between atoms: C_11  and  C_12 
REMARK       I    between atoms: C_12  and  N_14 
REMARK    4  A    between atoms: N_14  and  C_15 
REMARK    5  A    between atoms: C_15  and  C_16 
REMARK    6  A    between atoms: C_16  and  C_17 
ROOT
HETATM    1  C   UNL     1     -39.799 -53.818  14.591  1.00  0.00     0.235 C 
HETATM    2  O   UNL     1     -39.330 -54.897  14.240  1.00  0.00    -0.272 OA
HETATM    3  N   UNL     1     -40.890 -53.708  15.429  1.00  0.00    -0.360 N 
HETATM    4  H   UNL     1     -41.058 -52.823  15.894  1.00  0.00     0.162 HD
ENDROOT
BRANCH   1   5
HETATM    5  C   UNL     1     -39.234 -52.503  14.106  1.00  0.00     0.234 C 
BRANCH   5   6
HETATM    6  N   UNL     1     -39.847 -51.999  12.893  1.00  0.00    -0.311 N 
HETATM    7  C   UNL     1     -39.529 -50.826  12.256  1.00  0.00     0.192 A 
HETATM    8  N   UNL     1     -40.360 -50.643  11.252  1.00  0.00    -0.277 N 
HETATM    9  N   UNL     1     -41.212 -51.719  11.205  1.00  0.00    -0.294 N 
ATOM     10  HN  UNL     1     -40.369 -49.844  10.619  1.00  0.00     0.189 HD
HETATM   11  C   UNL     1     -40.881 -52.532  12.182  1.00  0.00     0.202 A 
ATOM     12  HN  UNL     1     -41.967 -51.861  10.534  1.00  0.00     0.187 HD
BRANCH   7  13
HETATM   13  S   UNL     1     -38.252 -49.714  12.632  1.00  0.00     0.081 S 
HETATM   14  C   UNL     1     -37.300 -49.943  11.115  1.00  0.00     0.136 C 
HETATM   15  O   UNL     1     -38.838 -48.332  12.628  1.00  0.00    -0.250 OA
ENDBRANCH   7  13
ENDBRANCH   5   6
ENDBRANCH   1   5
BRANCH   3  16
HETATM   16  C   UNL     1     -41.439 -54.895  16.058  1.00  0.00     0.123 C 
BRANCH  16  17
HETATM   17  C   UNL     1     -42.822 -55.234  15.513  1.00  0.00     0.024 C 
BRANCH  17  18
HETATM   18  C   UNL     1     -43.458 -54.065  14.729  1.00  0.00    -0.013 C 
HETATM   19  C   UNL     1     -44.381 -53.230  15.635  1.00  0.00     0.005 C 
HETATM   20  C   UNL     1     -45.669 -53.968  16.002  1.00  0.00     0.000 C 
HETATM   21  C   UNL     1     -46.408 -54.477  14.767  1.00  0.00     0.000 C 
HETATM   22  C   UNL     1     -45.507 -55.283  13.836  1.00  0.00     0.000 C 
HETATM   23  C   UNL     1     -44.239 -54.509  13.481  1.00  0.00     0.005 C 
ENDBRANCH  17  18
ENDBRANCH  16  17
ENDBRANCH   3  16
TORSDOF 6
ENDMDL
MODEL 3
REMARK VINA RESULT:      -5.4      3.201      4.142
REMARK  6 active torsions:
REMARK  status: ('A' for Active; 'I' for Inactive)
REMARK    1  A    between atoms: S_2  and  C_4 
REMARK    2  A    between atoms: N_10  and  C_11 
REMARK    3  A    between atoms: C_11  and  C_12 
REMARK       I    between atoms: C_12  and  N_14 
REMARK    4  A    between atoms: N_14  and  C_15 
REMARK    5  A    between atoms: C_15  and  C_16 
REMARK    6  A    between atoms: C_16  and  C_17 
ROOT
HETATM    1  C   UNL     1     -41.178 -49.598  12.156  1.00  0.00     0.235 C 
HETATM    2  O   UNL     1     -40.407 -49.831  13.084  1.00  0.00    -0.272 OA
HETATM    3  N   UNL     1     -42.269 -50.392  11.867  1.00  0.00    -0.360 N 
HETATM    4  H   UNL     1     -43.005 -50.011  11.283  1.00  0.00     0.162 HD
ENDROOT
BRANCH   1   5
HETATM    5  C   UNL     1     -40.977 -48.427  11.222  1.00  0.00     0.234 C 
BRANCH   5   6
HETATM    6  N   UNL     1     -41.791 -47.268  11.531  1.00  0.00    -0.311 N 
HETATM    7  C   UNL     1     -42.708 -46.682  10.695  1.00  0.00     0.192 A 
HETATM    8  N   UNL     1     -43.176 -45.593  11.268  1.00  0.00    -0.277 N 
HETATM    9  N   UNL     1     -42.588 -45.477  12.503  1.00  0.00    -0.294 N 
ATOM     10  HN  UNL     1     -43.857 -44.949  10.865  1.00  0.00     0.189 HD
HETATM   11  C   UNL     1     -41.776 -46.498  12.655  1.00  0.00     0.202 A 
ATOM     12  HN  UNL     1     -42.752 -44.732  13.181  1.00  0.00     0.187 HD
BRANCH   7  13
HETATM   13  S   UNL     1     -43.237 -47.223   9.134  1.00  0.00     0.081 S 
HETATM   14  C   UNL     1     -44.975 -47.468   9.558  1.00  0.00     0.136 C 
HETATM   15  O   UNL     1     -43.131 -46.060   8.191  1.00  0.00    -0.250 OA
ENDBRANCH   7  13
ENDBRANCH   5   6
ENDBRANCH   1   5
BRANCH   3  16
HETATM   16  C   UNL     1     -42.635 -51.470  12.766  1.00  0.00     0.123 C 
BRANCH  16  17
HETATM   17  C   UNL     1     -43.961 -51.195  13.468  1.00  0.00     0.024 C 
BRANCH  17  18
HETATM   18  C   UNL     1     -45.072 -52.185  13.053  1.00  0.00    -0.013 C 
HETATM   19  C   UNL     1     -46.466 -51.557  13.230  1.00  0.00     0.005 C 
HETATM   20  C   UNL     1     -46.857 -51.397  14.700  1.00  0.00     0.000 C 
HETATM   21  C   UNL     1     -46.734 -52.710  15.469  1.00  0.00     0.000 C 
HETATM   22  C   UNL     1     -45.369 -53.370  15.286  1.00  0.00     0.000 C 
HETATM   23  C   UNL     1     -45.020 -53.524  13.807  1.00  0.00     0.005 C 
ENDBRANCH  17  18
ENDBRANCH  16  17
ENDBRANCH   3  16
TORSDOF 6
ENDMDL
MODEL 4
REMARK VINA RESULT:      -5.3      2.363      3.212
REMARK  6 active torsions:
REMARK  status: ('A' for Active; 'I' for Inactive)
REMARK    1  A    between atoms: S_2  and  C_4 
REMARK    2  A    between atoms: N_10  and  C_11 
REMARK    3  A    between atoms: C_11  and  C_12 
REMARK       I    between atoms: C_12  and  N_14 
REMARK    4  A    between atoms: N_14  and  C_15 
REMARK    5  A    between atoms: C_15  and  C_16 
REMARK    6  A    between atoms: C_16  and  C_17 
ROOT
HETATM    1  C   UNL     1     -40.694 -51.902  15.507  1.00  0.00     0.235 C 
HETATM    2  O   UNL     1     -40.551 -50.811  16.053  1.00  0.00    -0.272 OA
HETATM    3  N   UNL     1     -41.695 -52.789  15.848  1.00  0.00    -0.360 N 
HETATM    4  H   UNL     1     -41.930 -53.530  15.197  1.00  0.00     0.162 HD
ENDROOT
BRANCH   1   5
HETATM    5  C   UNL     1     -39.757 -52.386  14.424  1.00  0.00     0.234 C 
BRANCH   5   6
HETATM    6  N   UNL     1     -40.260 -52.213  13.076  1.00  0.00    -0.311 N 
HETATM    7  C   UNL     1     -40.108 -51.094  12.297  1.00  0.00     0.192 A 
HETATM    8  N   UNL     1     -40.783 -51.253  11.179  1.00  0.00    -0.277 N 
HETATM    9  N   UNL     1     -41.360 -52.500  11.206  1.00  0.00    -0.294 N 
ATOM     10  HN  UNL     1     -40.865 -50.572  10.425  1.00  0.00     0.189 HD
HETATM   11  C   UNL     1     -41.021 -53.070  12.340  1.00  0.00     0.202 A 
ATOM     12  HN  UNL     1     -41.945 -52.908  10.477  1.00  0.00     0.187 HD
BRANCH   7  13
HETATM   13  S   UNL     1     -39.185 -49.665  12.639  1.00  0.00     0.081 S 
HETATM   14  C   UNL     1     -37.631 -50.220  11.907  1.00  0.00     0.136 C 
HETATM   15  O   UNL     1     -39.742 -48.553  11.800  1.00  0.00    -0.250 OA
ENDBRANCH   7  13
ENDBRANCH   5   6
ENDBRANCH   1   5
BRANCH   3  16
HETATM   16  C   UNL     1     -42.728 -52.385  16.784  1.00  0.00     0.123 C 
BRANCH  16  17
HETATM   17  C   UNL     1     -44.120 -52.494  16.171  1.00  0.00     0.024 C 
BRANCH  17  18
HETATM   18  C   UNL     1     -44.717 -51.120  15.797  1.00  0.00    -0.013 C 
HETATM   19  C   UNL     1     -46.255 -51.174  15.773  1.00  0.00     0.005 C 
HETATM   20  C   UNL     1     -46.798 -51.973  14.588  1.00  0.00     0.000 C 
HETATM   21  C   UNL     1     -46.235 -51.476  13.259  1.00  0.00     0.000 C 
HETATM   22  C   UNL     1     -44.711 -51.385  13.266  1.00  0.00     0.000 C 
HETATM   23  C   UNL     1     -44.209 -50.569  14.454  1.00  0.00     0.005 C 
ENDBRANCH  17  18
ENDBRANCH  16  17
ENDBRANCH   3  16
TORSDOF 6
ENDMDL
MODEL 5
REMARK VINA RESULT:      -5.2      2.115      2.974
REMARK  6 active torsions:
REMARK  status: ('A' for Active; 'I' for Inactive)
REMARK    1  A    between atoms: S_2  and  C_4 
REMARK    2  A    between atoms: N_10  and  C_11 
REMARK    3  A    between atoms: C_11  and  C_12 
REMARK       I    between atoms: C_12  and  N_14 
REMARK    4  A    between atoms: N_14  and  C_15 
REMARK    5  A    between atoms: C_15  and  C_16 
REMARK    6  A    between atoms: C_16  and  C_17 
ROOT
HETATM    1  C   UNL     1     -41.277 -53.543  15.293  1.00  0.00     0.235 C 
HETATM    2  O   UNL     1     -41.603 -54.727  15.331  1.00  0.00    -0.272 OA
HETATM    3  N   UNL     1     -41.992 -52.545  15.922  1.00  0.00    -0.360 N 
HETATM    4  H   UNL     1     -41.540 -51.653  16.085  1.00  0.00     0.162 HD
ENDROOT
BRANCH   1   5
HETATM    5  C   UNL     1     -40.069 -53.069  14.518  1.00  0.00     0.234 C 
BRANCH   5   6
HETATM    6  N   UNL     1     -40.360 -52.618  13.172  1.00  0.00    -0.311 N 
HETATM    7  C   UNL     1     -39.927 -51.446  12.604  1.00  0.00     0.192 A 
HETATM    8  N   UNL     1     -40.472 -51.318  11.413  1.00  0.00    -0.277 N 
HETATM    9  N   UNL     1     -41.245 -52.429  11.180  1.00  0.00    -0.294 N 
ATOM     10  HN  UNL     1     -40.342 -50.533  10.775  1.00  0.00     0.189 HD
HETATM   11  C   UNL     1     -41.153 -53.207  12.234  1.00  0.00     0.202 A 
ATOM     12  HN  UNL     1     -41.793 -52.615  10.340  1.00  0.00     0.187 HD
BRANCH   7  13
HETATM   13  S   UNL     1     -38.831 -50.274  13.265  1.00  0.00     0.081 S 
HETATM   14  C   UNL     1     -37.318 -50.954  12.552  1.00  0.00     0.136 C 
HETATM   15  O   UNL     1     -39.124 -48.958  12.607  1.00  0.00    -0.250 OA
ENDBRANCH   7  13
ENDBRANCH   5   6
ENDBRANCH   1   5
BRANCH   3  16
HETATM   16  C   UNL     1     -43.097 -52.891  16.797  1.00  0.00     0.123 C 
BRANCH  16  17
HETATM   17  C   UNL     1     -44.387 -52.193  16.381  1.00  0.00     0.024 C 
BRANCH  17  18
HETATM   18  C   UNL     1     -45.351 -53.126  15.617  1.00  0.00    -0.013 C 
HETATM   19  C   UNL     1     -44.856 -53.377  14.182  1.00  0.00     0.005 C 
HETATM   20  C   UNL     1     -44.996 -52.145  13.287  1.00  0.00     0.000 C 
HETATM   21  C   UNL     1     -46.418 -51.589  13.298  1.00  0.00     0.000 C 
HETATM   22  C   UNL     1     -46.945 -51.360  14.713  1.00  0.00     0.000 C 
HETATM   23  C   UNL     1     -46.800 -52.614  15.570  1.00  0.00     0.005 C 
ENDBRANCH  17  18
ENDBRANCH  16  17
ENDBRANCH   3  16
TORSDOF 6
ENDMDL
MODEL 6
REMARK VINA RESULT:      -5.2      2.308      2.732
REMARK  6 active torsions:
REMARK  status: ('A' for Active; 'I' for Inactive)
REMARK    1  A    between atoms: S_2  and  C_4 
REMARK    2  A    between atoms: N_10  and  C_11 
REMARK    3  A    between atoms: C_11  and  C_12 
REMARK       I    between atoms: C_12  and  N_14 
REMARK    4  A    between atoms: N_14  and  C_15 
REMARK    5  A    between atoms: C_15  and  C_16 
REMARK    6  A    between atoms: C_16  and  C_17 
ROOT
HETATM    1  C   UNL     1     -40.552 -51.200  11.946  1.00  0.00     0.235 C 
HETATM    2  O   UNL     1     -39.893 -52.089  12.478  1.00  0.00    -0.272 OA
HETATM    3  N   UNL     1     -41.929 -51.231  11.862  1.00  0.00    -0.360 N 
HETATM    4  H   UNL     1     -42.424 -50.368  11.667  1.00  0.00     0.162 HD
ENDROOT
BRANCH   1   5
HETATM    5  C   UNL     1     -39.903 -49.996  11.303  1.00  0.00     0.234 C 
BRANCH   5   6
HETATM    6  N   UNL     1     -39.747 -48.857  12.186  1.00  0.00    -0.311 N 
HETATM    7  C   UNL     1     -40.398 -47.654  12.071  1.00  0.00     0.192 A 
HETATM    8  N   UNL     1     -39.931 -46.825  12.979  1.00  0.00    -0.277 N 
HETATM    9  N   UNL     1     -38.988 -47.494  13.720  1.00  0.00    -0.294 N 
ATOM     10  HN  UNL     1     -40.219 -45.855  13.111  1.00  0.00     0.189 HD
HETATM   11  C   UNL     1     -38.903 -48.715  13.245  1.00  0.00     0.202 A 
ATOM     12  HN  UNL     1     -38.450 -47.111  14.498  1.00  0.00     0.187 HD
BRANCH   7  13
HETATM   13  S   UNL     1     -41.652 -47.215  10.955  1.00  0.00     0.081 S 
HETATM   14  C   UNL     1     -42.922 -46.835  12.181  1.00  0.00     0.136 C 
HETATM   15  O   UNL     1     -41.235 -45.940  10.283  1.00  0.00    -0.250 OA
ENDBRANCH   7  13
ENDBRANCH   5   6
ENDBRANCH   1   5
BRANCH   3  16
HETATM   16  C   UNL     1     -42.670 -52.271  12.550  1.00  0.00     0.123 C 
BRANCH  16  17
HETATM   17  C   UNL     1     -43.922 -51.721  13.225  1.00  0.00     0.024 C 
BRANCH  17  18
HETATM   18  C   UNL     1     -45.208 -52.457  12.788  1.00  0.00    -0.013 C 
HETATM   19  C   UNL     1     -46.452 -51.582  13.021  1.00  0.00     0.005 C 
HETATM   20  C   UNL     1     -46.789 -51.421  14.504  1.00  0.00     0.000 C 
HETATM   21  C   UNL     1     -46.914 -52.769  15.210  1.00  0.00     0.000 C 
HETATM   22  C   UNL     1     -45.705 -53.670  14.970  1.00  0.00     0.000 C 
HETATM   23  C   UNL     1     -45.408 -53.816  13.479  1.00  0.00     0.005 C 
ENDBRANCH  17  18
ENDBRANCH  16  17
ENDBRANCH   3  16
TORSDOF 6
ENDMDL
MODEL 7
REMARK VINA RESULT:      -5.1      1.753      2.833
REMARK  6 active torsions:
REMARK  status: ('A' for Active; 'I' for Inactive)
REMARK    1  A    between atoms: S_2  and  C_4 
REMARK    2  A    between atoms: N_10  and  C_11 
REMARK    3  A    between atoms: C_11  and  C_12 
REMARK       I    between atoms: C_12  and  N_14 
REMARK    4  A    between atoms: N_14  and  C_15 
REMARK    5  A    between atoms: C_15  and  C_16 
REMARK    6  A    between atoms: C_16  and  C_17 
ROOT
HETATM    1  C   UNL     1     -42.495 -50.623  13.092  1.00  0.00     0.235 C 
HETATM    2  O   UNL     1     -43.547 -50.024  12.890  1.00  0.00    -0.272 OA
HETATM    3  N   UNL     1     -42.391 -51.998  13.043  1.00  0.00    -0.360 N 
HETATM    4  H   UNL     1     -41.471 -52.413  12.946  1.00  0.00     0.162 HD
ENDROOT
BRANCH   1   5
HETATM    5  C   UNL     1     -41.216 -49.901  13.447  1.00  0.00     0.234 C 
BRANCH   5   6
HETATM    6  N   UNL     1     -40.139 -50.087  12.495  1.00  0.00    -0.311 N 
HETATM    7  C   UNL     1     -38.994 -50.813  12.705  1.00  0.00     0.192 A 
HETATM    8  N   UNL     1     -38.199 -50.672  11.666  1.00  0.00    -0.277 N 
HETATM    9  N   UNL     1     -38.837 -49.873  10.749  1.00  0.00    -0.294 N 
ATOM     10  HN  UNL     1     -37.272 -51.084  11.560  1.00  0.00     0.189 HD
HETATM   11  C   UNL     1     -40.006 -49.546  11.251  1.00  0.00     0.202 A 
ATOM     12  HN  UNL     1     -38.469 -49.585   9.842  1.00  0.00     0.187 HD
BRANCH   7  13
HETATM   13  S   UNL     1     -38.583 -51.796  14.075  1.00  0.00     0.081 S 
HETATM   14  C   UNL     1     -38.225 -50.447  15.220  1.00  0.00     0.136 C 
HETATM   15  O   UNL     1     -39.834 -52.491  14.526  1.00  0.00    -0.250 OA
ENDBRANCH   7  13
ENDBRANCH   5   6
ENDBRANCH   1   5
BRANCH   3  16
HETATM   16  C   UNL     1     -43.519 -52.791  12.591  1.00  0.00     0.123 C 
BRANCH  16  17
HETATM   17  C   UNL     1     -44.179 -53.542  13.742  1.00  0.00     0.024 C 
BRANCH  17  18
HETATM   18  C   UNL     1     -45.698 -53.732  13.537  1.00  0.00    -0.013 C 
HETATM   19  C   UNL     1     -46.364 -52.421  13.085  1.00  0.00     0.005 C 
HETATM   20  C   UNL     1     -46.427 -51.378  14.201  1.00  0.00     0.000 C 
HETATM   21  C   UNL     1     -47.083 -51.931  15.464  1.00  0.00     0.000 C 
HETATM   22  C   UNL     1     -46.461 -53.249  15.917  1.00  0.00     0.000 C 
HETATM   23  C   UNL     1     -46.428 -54.268  14.781  1.00  0.00     0.005 C 
ENDBRANCH  17  18
ENDBRANCH  16  17
ENDBRANCH   3  16
TORSDOF 6
ENDMDL
MODEL 8
REMARK VINA RESULT:      -5.1      2.437      3.227
REMARK  6 active torsions:
REMARK  status: ('A' for Active; 'I' for Inactive)
REMARK    1  A    between atoms: S_2  and  C_4 
REMARK    2  A    between atoms: N_10  and  C_11 
REMARK    3  A    between atoms: C_11  and  C_12 
REMARK       I    between atoms: C_12  and  N_14 
REMARK    4  A    between atoms: N_14  and  C_15 
REMARK    5  A    between atoms: C_15  and  C_16 
REMARK    6  A    between atoms: C_16  and  C_17 
ROOT
HETATM    1  C   UNL     1     -40.861 -50.844  12.116  1.00  0.00     0.235 C 
HETATM    2  O   UNL     1     -40.379 -50.978  13.238  1.00  0.00    -0.272 OA
HETATM    3  N   UNL     1     -41.910 -51.610  11.652  1.00  0.00    -0.360 N 
HETATM    4  H   UNL     1     -42.433 -51.281  10.848  1.00  0.00     0.162 HD
ENDROOT
BRANCH   1   5
HETATM    5  C   UNL     1     -40.319 -49.840  11.126  1.00  0.00     0.234 C 
BRANCH   5   6
HETATM    6  N   UNL     1     -40.988 -48.554  11.150  1.00  0.00    -0.311 N 
HETATM    7  C   UNL     1     -40.768 -47.548  12.056  1.00  0.00     0.192 A 
HETATM    8  N   UNL     1     -41.627 -46.576  11.836  1.00  0.00    -0.277 N 
HETATM    9  N   UNL     1     -42.399 -46.929  10.757  1.00  0.00    -0.294 N 
ATOM     10  HN  UNL     1     -41.706 -45.712  12.373  1.00  0.00     0.189 HD
HETATM   11  C   UNL     1     -41.992 -48.107  10.344  1.00  0.00     0.202 A 
ATOM     12  HN  UNL     1     -43.153 -46.375  10.349  1.00  0.00     0.187 HD
BRANCH   7  13
HETATM   13  S   UNL     1     -39.569 -47.475  13.308  1.00  0.00     0.081 S 
HETATM   14  C   UNL     1     -39.348 -45.683  13.305  1.00  0.00     0.136 C 
HETATM   15  O   UNL     1     -40.232 -47.876  14.594  1.00  0.00    -0.250 OA
ENDBRANCH   7  13
ENDBRANCH   5   6
ENDBRANCH   1   5
BRANCH   3  16
HETATM   16  C   UNL     1     -42.594 -52.519  12.553  1.00  0.00     0.123 C 
BRANCH  16  17
HETATM   17  C   UNL     1     -43.837 -51.882  13.164  1.00  0.00     0.024 C 
BRANCH  17  18
HETATM   18  C   UNL     1     -45.145 -52.563  12.705  1.00  0.00    -0.013 C 
HETATM   19  C   UNL     1     -46.348 -51.619  12.870  1.00  0.00     0.005 C 
HETATM   20  C   UNL     1     -46.724 -51.396  14.335  1.00  0.00     0.000 C 
HETATM   21  C   UNL     1     -46.942 -52.713  15.075  1.00  0.00     0.000 C 
HETATM   22  C   UNL     1     -45.775 -53.682  14.903  1.00  0.00     0.000 C 
HETATM   23  C   UNL     1     -45.438 -53.888  13.428  1.00  0.00     0.005 C 
ENDBRANCH  17  18
ENDBRANCH  16  17
ENDBRANCH   3  16
TORSDOF 6
ENDMDL
MODEL 9
REMARK VINA RESULT:      -5.0      1.432      2.080
REMARK  6 active torsions:
REMARK  status: ('A' for Active; 'I' for Inactive)
REMARK    1  A    between atoms: S_2  and  C_4 
REMARK    2  A    between atoms: N_10  and  C_11 
REMARK    3  A    between atoms: C_11  and  C_12 
REMARK       I    between atoms: C_12  and  N_14 
REMARK    4  A    between atoms: N_14  and  C_15 
REMARK    5  A    between atoms: C_15  and  C_16 
REMARK    6  A    between atoms: C_16  and  C_17 
ROOT
HETATM    1  C   UNL     1     -39.075 -51.949  14.763  1.00  0.00     0.235 C 
HETATM    2  O   UNL     1     -39.717 -51.968  15.810  1.00  0.00    -0.272 OA
HETATM    3  N   UNL     1     -39.107 -52.976  13.842  1.00  0.00    -0.360 N 
HETATM    4  H   UNL     1     -38.787 -52.792  12.898  1.00  0.00     0.162 HD
ENDROOT
BRANCH   1   5
HETATM    5  C   UNL     1     -38.160 -50.801  14.405  1.00  0.00     0.234 C 
BRANCH   5   6
HETATM    6  N   UNL     1     -38.089 -50.513  12.986  1.00  0.00    -0.311 N 
HETATM    7  C   UNL     1     -39.001 -49.783  12.266  1.00  0.00     0.192 A 
HETATM    8  N   UNL     1     -38.670 -49.818  10.993  1.00  0.00    -0.277 N 
HETATM    9  N   UNL     1     -37.514 -50.550  10.875  1.00  0.00    -0.294 N 
ATOM     10  HN  UNL     1     -39.182 -49.379  10.228  1.00  0.00     0.189 HD
HETATM   11  C   UNL     1     -37.167 -50.943  12.079  1.00  0.00     0.202 A 
ATOM     12  HN  UNL     1     -37.015 -50.752  10.008  1.00  0.00     0.187 HD
BRANCH   7  13
HETATM   13  S   UNL     1     -40.381 -48.911  12.853  1.00  0.00     0.081 S 
HETATM   14  C   UNL     1     -40.730 -47.994  11.337  1.00  0.00     0.136 C 
HETATM   15  O   UNL     1     -41.483 -49.905  13.079  1.00  0.00    -0.250 OA
ENDBRANCH   7  13
ENDBRANCH   5   6
ENDBRANCH   1   5
BRANCH   3  16
HETATM   16  C   UNL     1     -40.042 -54.072  14.016  1.00  0.00     0.123 C 
BRANCH  16  17
HETATM   17  C   UNL     1     -41.265 -53.920  13.117  1.00  0.00     0.024 C 
BRANCH  17  18
HETATM   18  C   UNL     1     -42.394 -53.100  13.780  1.00  0.00    -0.013 C 
HETATM   19  C   UNL     1     -42.839 -53.743  15.105  1.00  0.00     0.005 C 
HETATM   20  C   UNL     1     -43.612 -55.045  14.898  1.00  0.00     0.000 C 
HETATM   21  C   UNL     1     -44.789 -54.864  13.942  1.00  0.00     0.000 C 
HETATM   22  C   UNL     1     -44.380 -54.201  12.629  1.00  0.00     0.000 C 
HETATM   23  C   UNL     1     -43.623 -52.898  12.877  1.00  0.00     0.005 C 
ENDBRANCH  17  18
ENDBRANCH  16  17
ENDBRANCH   3  16
TORSDOF 6
ENDMDL
