MODEL 1
REMARK VINA RESULT:      -6.4      0.000      0.000
REMARK  5 active torsions:
REMARK  status: ('A' for Active; 'I' for Inactive)
REMARK    1  A    between atoms: C_2  and  C_4 
REMARK    2  A    between atoms: C_4  and  N_5 
REMARK    3  A    between atoms: C_9  and  C_10 
REMARK    4  A    between atoms: C_10  and  N_11 
REMARK    5  A    between atoms: N_11  and  C_12 
ROOT
HETATM    1  C   UNL     1     -41.770 -52.765  12.164  1.00  0.00     0.116 A 
HETATM    2  N   UNL     1     -42.984 -52.683  11.590  1.00  0.00    -0.289 N 
ATOM      3  HN  UNL     1     -43.105 -52.119  10.749  1.00  0.00     0.188 HD
HETATM    4  N   UNL     1     -44.065 -53.351  12.119  1.00  0.00    -0.303 N 
ATOM      5  HN  UNL     1     -44.979 -53.262  11.674  1.00  0.00     0.186 HD
HETATM    6  C   UNL     1     -43.932 -54.120  13.220  1.00  0.00     0.029 A 
HETATM    7  C   UNL     1     -45.176 -54.815  13.683  1.00  0.00     0.070 C 
HETATM    8  C   UNL     1     -42.702 -54.254  13.858  1.00  0.00    -0.014 A 
HETATM    9  C   UNL     1     -42.521 -55.099  15.091  1.00  0.00     0.052 C 
HETATM   10  C   UNL     1     -41.607 -53.562  13.302  1.00  0.00     0.092 A 
HETATM   11  C   UNL     1     -40.305 -53.685  13.893  1.00  0.00     0.103 C 
HETATM   12  N   UNL     1     -39.264 -53.785  14.399  1.00  0.00    -0.191 NA
ENDROOT
BRANCH   1  13
HETATM   13  N   UNL     1     -40.668 -52.133  11.579  1.00  0.00    -0.274 NA
HETATM   14  H   UNL     1     -39.785 -52.477  11.961  1.00  0.00     0.129 HD
BRANCH  13  15
HETATM   15  C   UNL     1     -40.652 -50.665  11.543  1.00  0.00     0.127 C 
BRANCH  15  16
HETATM   16  C   UNL     1     -39.448 -50.216  12.392  1.00  0.00     0.163 C 
HETATM   17  O   UNL     1     -38.419 -51.228  12.282  1.00  0.00    -0.381 OA
HETATM   18  C   UNL     1     -37.239 -50.822  12.986  1.00  0.00     0.198 C 
HETATM   19  C   UNL     1     -37.527 -50.465  14.460  1.00  0.00     0.298 C 
HETATM   20  N   UNL     1     -38.644 -49.504  14.660  1.00  0.00     0.093 N 
HETATM   21  C   UNL     1     -39.801 -50.000  13.873  1.00  0.00     0.305 C 
BRANCH  20  22
HETATM   22  C   UNL     1     -38.219 -48.128  14.321  1.00  0.00     0.276 C 
BRANCH  22  23
HETATM   23  C   UNL     1     -39.313 -47.037  14.400  1.00  0.00     0.006 C 
HETATM   24  C   UNL     1     -39.004 -45.977  15.459  1.00  0.00     0.011 C 
HETATM   25  C   UNL     1     -39.484 -46.352  13.039  1.00  0.00     0.011 C 
ENDBRANCH  22  23
ENDBRANCH  20  22
ENDBRANCH  15  16
ENDBRANCH  13  15
ENDBRANCH   1  13
TORSDOF 5
ENDMDL
MODEL 2
REMARK VINA RESULT:      -6.4      2.263      6.378
REMARK  5 active torsions:
REMARK  status: ('A' for Active; 'I' for Inactive)
REMARK    1  A    between atoms: C_2  and  C_4 
REMARK    2  A    between atoms: C_4  and  N_5 
REMARK    3  A    between atoms: C_9  and  C_10 
REMARK    4  A    between atoms: C_10  and  N_11 
REMARK    5  A    between atoms: N_11  and  C_12 
ROOT
HETATM    1  C   UNL     1     -40.093 -50.841  12.237  1.00  0.00     0.116 A 
HETATM    2  N   UNL     1     -40.690 -50.569  11.063  1.00  0.00    -0.289 N 
ATOM      3  HN  UNL     1     -41.011 -51.336  10.473  1.00  0.00     0.188 HD
HETATM    4  N   UNL     1     -40.877 -49.270  10.647  1.00  0.00    -0.303 N 
ATOM      5  HN  UNL     1     -41.321 -49.089   9.747  1.00  0.00     0.186 HD
HETATM    6  C   UNL     1     -40.480 -48.234  11.416  1.00  0.00     0.029 A 
HETATM    7  C   UNL     1     -40.762 -46.869  10.865  1.00  0.00     0.070 C 
HETATM    8  C   UNL     1     -39.862 -48.446  12.645  1.00  0.00    -0.014 A 
HETATM    9  C   UNL     1     -39.403 -47.312  13.523  1.00  0.00     0.052 C 
HETATM   10  C   UNL     1     -39.679 -49.783  13.053  1.00  0.00     0.092 A 
HETATM   11  C   UNL     1     -39.078 -50.069  14.325  1.00  0.00     0.103 C 
HETATM   12  N   UNL     1     -38.574 -50.277  15.351  1.00  0.00    -0.191 NA
ENDROOT
BRANCH   1  13
HETATM   13  N   UNL     1     -39.966 -52.164  12.676  1.00  0.00    -0.274 NA
HETATM   14  H   UNL     1     -39.008 -52.506  12.584  1.00  0.00     0.129 HD
BRANCH  13  15
HETATM   15  C   UNL     1     -40.901 -53.162  12.141  1.00  0.00     0.127 C 
BRANCH  15  16
HETATM   16  C   UNL     1     -42.047 -53.284  13.163  1.00  0.00     0.163 C 
HETATM   17  O   UNL     1     -41.844 -54.499  13.921  1.00  0.00    -0.381 OA
HETATM   18  C   UNL     1     -42.836 -54.622  14.948  1.00  0.00     0.198 C 
HETATM   19  C   UNL     1     -44.273 -54.536  14.389  1.00  0.00     0.298 C 
HETATM   20  N   UNL     1     -44.531 -53.363  13.513  1.00  0.00     0.093 N 
HETATM   21  C   UNL     1     -43.438 -53.312  12.509  1.00  0.00     0.305 C 
BRANCH  20  22
HETATM   22  C   UNL     1     -44.679 -52.131  14.318  1.00  0.00     0.276 C 
BRANCH  22  23
HETATM   23  C   UNL     1     -45.988 -51.332  14.108  1.00  0.00     0.006 C 
HETATM   24  C   UNL     1     -46.639 -51.623  12.755  1.00  0.00     0.011 C 
HETATM   25  C   UNL     1     -46.990 -51.647  15.225  1.00  0.00     0.011 C 
ENDBRANCH  22  23
ENDBRANCH  20  22
ENDBRANCH  15  16
ENDBRANCH  13  15
ENDBRANCH   1  13
TORSDOF 5
ENDMDL
MODEL 3
REMARK VINA RESULT:      -6.2      2.542      3.641
REMARK  5 active torsions:
REMARK  status: ('A' for Active; 'I' for Inactive)
REMARK    1  A    between atoms: C_2  and  C_4 
REMARK    2  A    between atoms: C_4  and  N_5 
REMARK    3  A    between atoms: C_9  and  C_10 
REMARK    4  A    between atoms: C_10  and  N_11 
REMARK    5  A    between atoms: N_11  and  C_12 
ROOT
HETATM    1  C   UNL     1     -41.595 -52.590  12.201  1.00  0.00     0.116 A 
HETATM    2  N   UNL     1     -42.791 -52.473  11.594  1.00  0.00    -0.289 N 
ATOM      3  HN  UNL     1     -42.886 -51.855  10.789  1.00  0.00     0.188 HD
HETATM    4  N   UNL     1     -43.886 -53.174  12.044  1.00  0.00    -0.303 N 
ATOM      5  HN  UNL     1     -44.785 -53.058  11.576  1.00  0.00     0.186 HD
HETATM    6  C   UNL     1     -43.786 -54.013  13.097  1.00  0.00     0.029 A 
HETATM    7  C   UNL     1     -45.041 -54.738  13.474  1.00  0.00     0.070 C 
HETATM    8  C   UNL     1     -42.576 -54.187  13.764  1.00  0.00    -0.014 A 
HETATM    9  C   UNL     1     -42.433 -55.110  14.945  1.00  0.00     0.052 C 
HETATM   10  C   UNL     1     -41.466 -53.459  13.289  1.00  0.00     0.092 A 
HETATM   11  C   UNL     1     -40.184 -53.618  13.913  1.00  0.00     0.103 C 
HETATM   12  N   UNL     1     -39.159 -53.751  14.444  1.00  0.00    -0.191 NA
ENDROOT
BRANCH   1  13
HETATM   13  N   UNL     1     -40.477 -51.920  11.694  1.00  0.00    -0.274 NA
HETATM   14  H   UNL     1     -39.734 -52.568  11.425  1.00  0.00     0.129 HD
BRANCH  13  15
HETATM   15  C   UNL     1     -39.911 -50.822  12.488  1.00  0.00     0.127 C 
BRANCH  15  16
HETATM   16  C   UNL     1     -40.301 -49.515  11.773  1.00  0.00     0.163 C 
HETATM   17  O   UNL     1     -39.406 -48.471  12.225  1.00  0.00    -0.381 OA
HETATM   18  C   UNL     1     -39.669 -47.248  11.527  1.00  0.00     0.198 C 
HETATM   19  C   UNL     1     -41.147 -46.814  11.638  1.00  0.00     0.298 C 
HETATM   20  N   UNL     1     -42.133 -47.870  11.286  1.00  0.00     0.093 N 
HETATM   21  C   UNL     1     -41.757 -49.094  12.036  1.00  0.00     0.305 C 
BRANCH  20  22
HETATM   22  C   UNL     1     -42.207 -48.050   9.820  1.00  0.00     0.276 C 
BRANCH  22  23
HETATM   23  C   UNL     1     -43.502 -47.550   9.135  1.00  0.00     0.006 C 
HETATM   24  C   UNL     1     -43.663 -46.033   9.229  1.00  0.00     0.011 C 
HETATM   25  C   UNL     1     -43.520 -47.967   7.659  1.00  0.00     0.011 C 
ENDBRANCH  22  23
ENDBRANCH  20  22
ENDBRANCH  15  16
ENDBRANCH  13  15
ENDBRANCH   1  13
TORSDOF 5
ENDMDL
MODEL 4
REMARK VINA RESULT:      -6.0      1.396      2.420
REMARK  5 active torsions:
REMARK  status: ('A' for Active; 'I' for Inactive)
REMARK    1  A    between atoms: C_2  and  C_4 
REMARK    2  A    between atoms: C_4  and  N_5 
REMARK    3  A    between atoms: C_9  and  C_10 
REMARK    4  A    between atoms: C_10  and  N_11 
REMARK    5  A    between atoms: N_11  and  C_12 
ROOT
HETATM    1  C   UNL     1     -41.307 -52.598  12.309  1.00  0.00     0.116 A 
HETATM    2  N   UNL     1     -42.451 -52.494  11.609  1.00  0.00    -0.289 N 
ATOM      3  HN  UNL     1     -42.474 -51.919  10.767  1.00  0.00     0.188 HD
HETATM    4  N   UNL     1     -43.592 -53.151  12.011  1.00  0.00    -0.303 N 
ATOM      5  HN  UNL     1     -44.451 -53.046  11.471  1.00  0.00     0.186 HD
HETATM    6  C   UNL     1     -43.587 -53.934  13.111  1.00  0.00     0.029 A 
HETATM    7  C   UNL     1     -44.882 -54.616  13.429  1.00  0.00     0.070 C 
HETATM    8  C   UNL     1     -42.435 -54.092  13.876  1.00  0.00    -0.014 A 
HETATM    9  C   UNL     1     -42.399 -54.952  15.111  1.00  0.00     0.052 C 
HETATM   10  C   UNL     1     -41.278 -53.409  13.448  1.00  0.00     0.092 A 
HETATM   11  C   UNL     1     -40.049 -53.556  14.175  1.00  0.00     0.103 C 
HETATM   12  N   UNL     1     -39.069 -53.677  14.788  1.00  0.00    -0.191 NA
ENDROOT
BRANCH   1  13
HETATM   13  N   UNL     1     -40.140 -51.975  11.853  1.00  0.00    -0.274 NA
HETATM   14  H   UNL     1     -39.331 -52.217  12.428  1.00  0.00     0.129 HD
BRANCH  13  15
HETATM   15  C   UNL     1     -40.173 -50.525  11.631  1.00  0.00     0.127 C 
BRANCH  15  16
HETATM   16  C   UNL     1     -39.516 -49.875  12.863  1.00  0.00     0.163 C 
HETATM   17  O   UNL     1     -39.607 -48.438  12.715  1.00  0.00    -0.381 OA
HETATM   18  C   UNL     1     -39.086 -47.780  13.876  1.00  0.00     0.198 C 
HETATM   19  C   UNL     1     -37.645 -48.226  14.208  1.00  0.00     0.298 C 
HETATM   20  N   UNL     1     -37.450 -49.698  14.276  1.00  0.00     0.093 N 
HETATM   21  C   UNL     1     -38.045 -50.281  13.048  1.00  0.00     0.305 C 
BRANCH  20  22
HETATM   22  C   UNL     1     -37.999 -50.241  15.538  1.00  0.00     0.276 C 
BRANCH  22  23
HETATM   23  C   UNL     1     -37.017 -50.318  16.733  1.00  0.00     0.006 C 
HETATM   24  C   UNL     1     -35.564 -50.101  16.308  1.00  0.00     0.011 C 
HETATM   25  C   UNL     1     -37.390 -49.278  17.797  1.00  0.00     0.011 C 
ENDBRANCH  22  23
ENDBRANCH  20  22
ENDBRANCH  15  16
ENDBRANCH  13  15
ENDBRANCH   1  13
TORSDOF 5
ENDMDL
MODEL 5
REMARK VINA RESULT:      -5.9      2.921      6.533
REMARK  5 active torsions:
REMARK  status: ('A' for Active; 'I' for Inactive)
REMARK    1  A    between atoms: C_2  and  C_4 
REMARK    2  A    between atoms: C_4  and  N_5 
REMARK    3  A    between atoms: C_9  and  C_10 
REMARK    4  A    between atoms: C_10  and  N_11 
REMARK    5  A    between atoms: N_11  and  C_12 
ROOT
HETATM    1  C   UNL     1     -40.865 -48.168  11.300  1.00  0.00     0.116 A 
HETATM    2  N   UNL     1     -41.445 -48.815  10.274  1.00  0.00    -0.289 N 
ATOM      3  HN  UNL     1     -41.219 -49.796  10.107  1.00  0.00     0.188 HD
HETATM    4  N   UNL     1     -42.338 -48.175   9.444  1.00  0.00    -0.303 N 
ATOM      5  HN  UNL     1     -42.754 -48.684   8.664  1.00  0.00     0.186 HD
HETATM    6  C   UNL     1     -42.669 -46.883   9.651  1.00  0.00     0.029 A 
HETATM    7  C   UNL     1     -43.671 -46.308   8.697  1.00  0.00     0.070 C 
HETATM    8  C   UNL     1     -42.112 -46.157  10.700  1.00  0.00    -0.014 A 
HETATM    9  C   UNL     1     -42.456 -44.714  10.953  1.00  0.00     0.052 C 
HETATM   10  C   UNL     1     -41.198 -46.830  11.537  1.00  0.00     0.092 A 
HETATM   11  C   UNL     1     -40.614 -46.147  12.656  1.00  0.00     0.103 C 
HETATM   12  N   UNL     1     -40.140 -45.569  13.545  1.00  0.00    -0.191 NA
ENDROOT
BRANCH   1  13
HETATM   13  N   UNL     1     -40.008 -48.848  12.172  1.00  0.00    -0.274 NA
HETATM   14  H   UNL     1     -39.265 -48.242  12.525  1.00  0.00     0.129 HD
BRANCH  13  15
HETATM   15  C   UNL     1     -39.435 -50.123  11.723  1.00  0.00     0.127 C 
BRANCH  15  16
HETATM   16  C   UNL     1     -40.031 -51.217  12.627  1.00  0.00     0.163 C 
HETATM   17  O   UNL     1     -38.952 -52.077  13.063  1.00  0.00    -0.381 OA
HETATM   18  C   UNL     1     -39.437 -53.066  13.979  1.00  0.00     0.198 C 
HETATM   19  C   UNL     1     -40.612 -53.882  13.396  1.00  0.00     0.298 C 
HETATM   20  N   UNL     1     -41.718 -53.064  12.833  1.00  0.00     0.093 N 
HETATM   21  C   UNL     1     -41.109 -52.059  11.925  1.00  0.00     0.305 C 
BRANCH  20  22
HETATM   22  C   UNL     1     -42.545 -52.487  13.915  1.00  0.00     0.276 C 
BRANCH  22  23
HETATM   23  C   UNL     1     -44.079 -52.564  13.717  1.00  0.00     0.006 C 
HETATM   24  C   UNL     1     -44.692 -51.206  13.373  1.00  0.00     0.011 C 
HETATM   25  C   UNL     1     -44.424 -53.566  12.609  1.00  0.00     0.011 C 
ENDBRANCH  22  23
ENDBRANCH  20  22
ENDBRANCH  15  16
ENDBRANCH  13  15
ENDBRANCH   1  13
TORSDOF 5
ENDMDL
MODEL 6
REMARK VINA RESULT:      -5.9      3.484      5.149
REMARK  5 active torsions:
REMARK  status: ('A' for Active; 'I' for Inactive)
REMARK    1  A    between atoms: C_2  and  C_4 
REMARK    2  A    between atoms: C_4  and  N_5 
REMARK    3  A    between atoms: C_9  and  C_10 
REMARK    4  A    between atoms: C_10  and  N_11 
REMARK    5  A    between atoms: N_11  and  C_12 
ROOT
HETATM    1  C   UNL     1     -40.351 -50.336  11.841  1.00  0.00     0.116 A 
HETATM    2  N   UNL     1     -41.633 -50.592  11.522  1.00  0.00    -0.289 N 
ATOM      3  HN  UNL     1     -42.145 -49.932  10.937  1.00  0.00     0.188 HD
HETATM    4  N   UNL     1     -42.263 -51.729  11.973  1.00  0.00    -0.303 N 
ATOM      5  HN  UNL     1     -43.239 -51.894  11.729  1.00  0.00     0.186 HD
HETATM    6  C   UNL     1     -41.605 -52.629  12.733  1.00  0.00     0.029 A 
HETATM    7  C   UNL     1     -42.391 -53.838  13.139  1.00  0.00     0.070 C 
HETATM    8  C   UNL     1     -40.274 -52.431  13.093  1.00  0.00    -0.014 A 
HETATM    9  C   UNL     1     -39.515 -53.412  13.945  1.00  0.00     0.052 C 
HETATM   10  C   UNL     1     -39.647 -51.259  12.623  1.00  0.00     0.092 A 
HETATM   11  C   UNL     1     -38.267 -51.011  12.931  1.00  0.00     0.103 C 
HETATM   12  N   UNL     1     -37.155 -50.823  13.207  1.00  0.00    -0.191 NA
ENDROOT
BRANCH   1  13
HETATM   13  N   UNL     1     -39.704 -49.208  11.324  1.00  0.00    -0.274 NA
HETATM   14  H   UNL     1     -38.753 -49.421  11.020  1.00  0.00     0.129 HD
BRANCH  13  15
HETATM   15  C   UNL     1     -39.703 -47.982  12.132  1.00  0.00     0.127 C 
BRANCH  15  16
HETATM   16  C   UNL     1     -40.508 -46.934  11.342  1.00  0.00     0.163 C 
HETATM   17  O   UNL     1     -40.098 -45.621  11.792  1.00  0.00    -0.381 OA
HETATM   18  C   UNL     1     -40.755 -44.601  11.030  1.00  0.00     0.198 C 
HETATM   19  C   UNL     1     -42.292 -44.752  11.047  1.00  0.00     0.298 C 
HETATM   20  N   UNL     1     -42.788 -46.108  10.693  1.00  0.00     0.093 N 
HETATM   21  C   UNL     1     -42.029 -47.085  11.513  1.00  0.00     0.305 C 
BRANCH  20  22
HETATM   22  C   UNL     1     -42.696 -46.335   9.234  1.00  0.00     0.276 C 
BRANCH  22  23
HETATM   23  C   UNL     1     -43.968 -46.894   8.550  1.00  0.00     0.006 C 
HETATM   24  C   UNL     1     -43.653 -48.027   7.572  1.00  0.00     0.011 C 
HETATM   25  C   UNL     1     -44.961 -47.400   9.602  1.00  0.00     0.011 C 
ENDBRANCH  22  23
ENDBRANCH  20  22
ENDBRANCH  15  16
ENDBRANCH  13  15
ENDBRANCH   1  13
TORSDOF 5
ENDMDL
MODEL 7
REMARK VINA RESULT:      -5.9      1.919      6.500
REMARK  5 active torsions:
REMARK  status: ('A' for Active; 'I' for Inactive)
REMARK    1  A    between atoms: C_2  and  C_4 
REMARK    2  A    between atoms: C_4  and  N_5 
REMARK    3  A    between atoms: C_9  and  C_10 
REMARK    4  A    between atoms: C_10  and  N_11 
REMARK    5  A    between atoms: N_11  and  C_12 
ROOT
HETATM    1  C   UNL     1     -40.064 -49.900  11.608  1.00  0.00     0.116 A 
HETATM    2  N   UNL     1     -40.809 -49.588  10.533  1.00  0.00    -0.289 N 
ATOM      3  HN  UNL     1     -41.137 -50.331   9.916  1.00  0.00     0.188 HD
HETATM    4  N   UNL     1     -41.136 -48.280  10.252  1.00  0.00    -0.303 N 
ATOM      5  HN  UNL     1     -41.690 -48.067   9.423  1.00  0.00     0.186 HD
HETATM    6  C   UNL     1     -40.731 -47.277  11.060  1.00  0.00     0.029 A 
HETATM    7  C   UNL     1     -41.172 -45.902  10.661  1.00  0.00     0.070 C 
HETATM    8  C   UNL     1     -39.964 -47.533  12.194  1.00  0.00    -0.014 A 
HETATM    9  C   UNL     1     -39.493 -46.436  13.111  1.00  0.00     0.052 C 
HETATM   10  C   UNL     1     -39.639 -48.878  12.463  1.00  0.00     0.092 A 
HETATM   11  C   UNL     1     -38.879 -49.211  13.634  1.00  0.00     0.103 C 
HETATM   12  N   UNL     1     -38.248 -49.455  14.579  1.00  0.00    -0.191 NA
ENDROOT
BRANCH   1  13
HETATM   13  N   UNL     1     -39.793 -51.238  11.916  1.00  0.00    -0.274 NA
HETATM   14  H   UNL     1     -38.920 -51.557  11.491  1.00  0.00     0.129 HD
BRANCH  13  15
HETATM   15  C   UNL     1     -40.849 -52.229  11.680  1.00  0.00     0.127 C 
BRANCH  15  16
HETATM   16  C   UNL     1     -41.359 -52.667  13.066  1.00  0.00     0.163 C 
HETATM   17  O   UNL     1     -40.339 -52.348  14.041  1.00  0.00    -0.381 OA
HETATM   18  C   UNL     1     -40.795 -52.657  15.364  1.00  0.00     0.198 C 
HETATM   19  C   UNL     1     -41.267 -54.122  15.496  1.00  0.00     0.298 C 
HETATM   20  N   UNL     1     -42.244 -54.556  14.462  1.00  0.00     0.093 N 
HETATM   21  C   UNL     1     -41.692 -54.167  13.140  1.00  0.00     0.305 C 
BRANCH  20  22
HETATM   22  C   UNL     1     -43.588 -54.007  14.748  1.00  0.00     0.276 C 
BRANCH  22  23
HETATM   23  C   UNL     1     -44.630 -54.126  13.609  1.00  0.00     0.006 C 
HETATM   24  C   UNL     1     -45.565 -55.322  13.797  1.00  0.00     0.011 C 
HETATM   25  C   UNL     1     -45.466 -52.844  13.516  1.00  0.00     0.011 C 
ENDBRANCH  22  23
ENDBRANCH  20  22
ENDBRANCH  15  16
ENDBRANCH  13  15
ENDBRANCH   1  13
TORSDOF 5
ENDMDL
MODEL 8
REMARK VINA RESULT:      -5.8      1.602      2.362
REMARK  5 active torsions:
REMARK  status: ('A' for Active; 'I' for Inactive)
REMARK    1  A    between atoms: C_2  and  C_4 
REMARK    2  A    between atoms: C_4  and  N_5 
REMARK    3  A    between atoms: C_9  and  C_10 
REMARK    4  A    between atoms: C_10  and  N_11 
REMARK    5  A    between atoms: N_11  and  C_12 
ROOT
HETATM    1  C   UNL     1     -41.153 -53.687  13.122  1.00  0.00     0.116 A 
HETATM    2  N   UNL     1     -41.633 -53.089  12.016  1.00  0.00    -0.289 N 
ATOM      3  HN  UNL     1     -40.984 -52.760  11.302  1.00  0.00     0.188 HD
HETATM    4  N   UNL     1     -42.986 -52.914  11.835  1.00  0.00    -0.303 N 
ATOM      5  HN  UNL     1     -43.325 -52.445  10.995  1.00  0.00     0.186 HD
HETATM    6  C   UNL     1     -43.870 -53.355  12.755  1.00  0.00     0.029 A 
HETATM    7  C   UNL     1     -45.314 -53.130  12.431  1.00  0.00     0.070 C 
HETATM    8  C   UNL     1     -43.440 -53.990  13.917  1.00  0.00    -0.014 A 
HETATM    9  C   UNL     1     -44.400 -54.489  14.965  1.00  0.00     0.052 C 
HETATM   10  C   UNL     1     -42.050 -54.158  14.086  1.00  0.00     0.092 A 
HETATM   11  C   UNL     1     -41.545 -54.834  15.246  1.00  0.00     0.103 C 
HETATM   12  N   UNL     1     -41.157 -55.369  16.202  1.00  0.00    -0.191 NA
ENDROOT
BRANCH   1  13
HETATM   13  N   UNL     1     -39.780 -53.914  13.263  1.00  0.00    -0.274 NA
HETATM   14  H   UNL     1     -39.582 -54.864  13.583  1.00  0.00     0.129 HD
BRANCH  13  15
HETATM   15  C   UNL     1     -38.998 -52.953  14.052  1.00  0.00     0.127 C 
BRANCH  15  16
HETATM   16  C   UNL     1     -38.920 -51.660  13.219  1.00  0.00     0.163 C 
HETATM   17  O   UNL     1     -37.586 -51.562  12.666  1.00  0.00    -0.381 OA
HETATM   18  C   UNL     1     -37.480 -50.418  11.810  1.00  0.00     0.198 C 
HETATM   19  C   UNL     1     -37.897 -49.112  12.520  1.00  0.00     0.298 C 
HETATM   20  N   UNL     1     -39.217 -49.168  13.201  1.00  0.00     0.093 N 
HETATM   21  C   UNL     1     -39.233 -50.396  14.036  1.00  0.00     0.305 C 
BRANCH  20  22
HETATM   22  C   UNL     1     -40.318 -49.085  12.217  1.00  0.00     0.276 C 
BRANCH  22  23
HETATM   23  C   UNL     1     -40.467 -47.736  11.472  1.00  0.00     0.006 C 
HETATM   24  C   UNL     1     -41.649 -47.733  10.502  1.00  0.00     0.011 C 
HETATM   25  C   UNL     1     -40.639 -46.589  12.476  1.00  0.00     0.011 C 
ENDBRANCH  22  23
ENDBRANCH  20  22
ENDBRANCH  15  16
ENDBRANCH  13  15
ENDBRANCH   1  13
TORSDOF 5
ENDMDL
MODEL 9
REMARK VINA RESULT:      -5.7      3.061      6.467
REMARK  5 active torsions:
REMARK  status: ('A' for Active; 'I' for Inactive)
REMARK    1  A    between atoms: C_2  and  C_4 
REMARK    2  A    between atoms: C_4  and  N_5 
REMARK    3  A    between atoms: C_9  and  C_10 
REMARK    4  A    between atoms: C_10  and  N_11 
REMARK    5  A    between atoms: N_11  and  C_12 
ROOT
HETATM    1  C   UNL     1     -41.561 -52.425  12.391  1.00  0.00     0.116 A 
HETATM    2  N   UNL     1     -41.996 -51.352  11.708  1.00  0.00    -0.289 N 
ATOM      3  HN  UNL     1     -42.933 -51.358  11.307  1.00  0.00     0.188 HD
HETATM    4  N   UNL     1     -41.196 -50.244  11.542  1.00  0.00    -0.303 N 
ATOM      5  HN  UNL     1     -41.543 -49.447  11.008  1.00  0.00     0.186 HD
HETATM    6  C   UNL     1     -39.958 -50.199  12.077  1.00  0.00     0.029 A 
HETATM    7  C   UNL     1     -39.196 -48.929  11.850  1.00  0.00     0.070 C 
HETATM    8  C   UNL     1     -39.449 -51.272  12.803  1.00  0.00    -0.014 A 
HETATM    9  C   UNL     1     -38.070 -51.256  13.407  1.00  0.00     0.052 C 
HETATM   10  C   UNL     1     -40.283 -52.398  12.960  1.00  0.00     0.092 A 
HETATM   11  C   UNL     1     -39.830 -53.525  13.725  1.00  0.00     0.103 C 
HETATM   12  N   UNL     1     -39.436 -54.433  14.334  1.00  0.00    -0.191 NA
ENDROOT
BRANCH   1  13
HETATM   13  N   UNL     1     -42.407 -53.518  12.605  1.00  0.00    -0.274 NA
HETATM   14  H   UNL     1     -42.069 -54.360  12.134  1.00  0.00     0.129 HD
BRANCH  13  15
HETATM   15  C   UNL     1     -43.840 -53.345  12.339  1.00  0.00     0.127 C 
BRANCH  15  16
HETATM   16  C   UNL     1     -44.516 -53.105  13.702  1.00  0.00     0.163 C 
HETATM   17  O   UNL     1     -43.901 -53.988  14.669  1.00  0.00    -0.381 OA
HETATM   18  C   UNL     1     -44.433 -53.748  15.978  1.00  0.00     0.198 C 
HETATM   19  C   UNL     1     -45.974 -53.852  16.014  1.00  0.00     0.298 C 
HETATM   20  N   UNL     1     -46.676 -53.048  14.979  1.00  0.00     0.093 N 
HETATM   21  C   UNL     1     -46.034 -53.348  13.674  1.00  0.00     0.305 C 
BRANCH  20  22
HETATM   22  C   UNL     1     -46.678 -51.614  15.342  1.00  0.00     0.276 C 
BRANCH  22  23
HETATM   23  C   UNL     1     -46.764 -51.293  16.854  1.00  0.00     0.006 C 
HETATM   24  C   UNL     1     -45.806 -50.176  17.269  1.00  0.00     0.011 C 
HETATM   25  C   UNL     1     -48.195 -50.896  17.235  1.00  0.00     0.011 C 
ENDBRANCH  22  23
ENDBRANCH  20  22
ENDBRANCH  15  16
ENDBRANCH  13  15
ENDBRANCH   1  13
TORSDOF 5
ENDMDL
