MODEL 1
REMARK VINA RESULT:      -6.3      0.000      0.000
REMARK  4 active torsions:
REMARK  status: ('A' for Active; 'I' for Inactive)
REMARK       I    between atoms: C_2  and  N_3 
REMARK       I    between atoms: C_2  and  N_14 
REMARK    1  A    between atoms: N_3  and  C_4 
REMARK    2  A    between atoms: C_4  and  C_5 
REMARK    3  A    between atoms: C_5  and  N_6 
REMARK    4  A    between atoms: N_14  and  C_15 
ROOT
HETATM    1  O   UNL     1     -38.958 -50.505  11.847  1.00  0.00    -0.247 OA
HETATM    2  C   UNL     1     -40.073 -50.153  11.471  1.00  0.00     0.321 C 
HETATM    3  N   UNL     1     -41.144 -50.987  11.431  1.00  0.00    -0.341 N 
HETATM    4  N   UNL     1     -40.280 -48.859  11.093  1.00  0.00    -0.295 N 
HETATM    5  H   UNL     1     -42.009 -50.579  11.081  1.00  0.00     0.164 HD
HETATM    6  H   UNL     1     -39.441 -48.299  11.147  1.00  0.00     0.172 HD
ENDROOT
BRANCH   3   7
HETATM    7  C   UNL     1     -41.131 -52.366  11.876  1.00  0.00     0.144 C 
BRANCH   7   8
HETATM    8  C   UNL     1     -41.878 -52.559  13.198  1.00  0.00     0.145 C 
BRANCH   8   9
HETATM    9  N   UNL     1     -43.300 -52.222  13.152  1.00  0.00    -0.351 N 
HETATM   10  C   UNL     1     -44.194 -53.137  12.449  1.00  0.00     0.126 C 
HETATM   11  C   UNL     1     -45.126 -53.870  13.399  1.00  0.00     0.020 C 
HETATM   12  C   UNL     1     -46.393 -53.084  13.731  1.00  0.00     0.002 C 
HETATM   13  C   UNL     1     -46.242 -51.565  13.784  1.00  0.00     0.009 C 
HETATM   14  C   UNL     1     -45.015 -51.091  14.537  1.00  0.00     0.103 C 
HETATM   15  C   UNL     1     -43.703 -51.054  13.769  1.00  0.00     0.219 C 
HETATM   16  O   UNL     1     -42.953 -50.083  13.877  1.00  0.00    -0.273 OA
ENDBRANCH   8   9
ENDBRANCH   7   8
ENDBRANCH   3   7
BRANCH   4  17
HETATM   17  C   UNL     1     -41.471 -48.232  10.711  1.00  0.00     0.108 A 
HETATM   18  C   UNL     1     -42.203 -47.574  11.692  1.00  0.00     0.049 A 
HETATM   19  C   UNL     1     -43.411 -46.971  11.344  1.00  0.00     0.005 A 
HETATM   20  C   UNL     1     -43.856 -47.048  10.031  1.00  0.00     0.017 A 
HETATM   21  C   UNL     1     -43.065 -47.713   9.114  1.00  0.00     0.089 A 
HETATM   22  N   UNL     1     -41.886 -48.297   9.425  1.00  0.00    -0.352 N 
ATOM     23  HN  UNL     1     -41.328 -48.770   8.714  1.00  0.00     0.166 HD
ENDBRANCH   4  17
TORSDOF 4
ENDMDL
MODEL 2
REMARK VINA RESULT:      -6.1      1.986      2.786
REMARK  4 active torsions:
REMARK  status: ('A' for Active; 'I' for Inactive)
REMARK       I    between atoms: C_2  and  N_3 
REMARK       I    between atoms: C_2  and  N_14 
REMARK    1  A    between atoms: N_3  and  C_4 
REMARK    2  A    between atoms: C_4  and  C_5 
REMARK    3  A    between atoms: C_5  and  N_6 
REMARK    4  A    between atoms: N_14  and  C_15 
ROOT
HETATM    1  O   UNL     1     -39.887 -50.154  11.895  1.00  0.00    -0.247 OA
HETATM    2  C   UNL     1     -40.912 -49.632  11.464  1.00  0.00     0.321 C 
HETATM    3  N   UNL     1     -42.159 -50.056  11.793  1.00  0.00    -0.341 N 
HETATM    4  N   UNL     1     -40.822 -48.557  10.631  1.00  0.00    -0.295 N 
HETATM    5  H   UNL     1     -42.927 -49.553  11.354  1.00  0.00     0.164 HD
HETATM    6  H   UNL     1     -39.867 -48.299  10.429  1.00  0.00     0.172 HD
ENDROOT
BRANCH   3   7
HETATM    7  C   UNL     1     -42.446 -51.124  12.730  1.00  0.00     0.144 C 
BRANCH   7   8
HETATM    8  C   UNL     1     -42.411 -52.505  12.070  1.00  0.00     0.145 C 
BRANCH   8   9
HETATM    9  N   UNL     1     -42.457 -53.630  13.003  1.00  0.00    -0.351 N 
HETATM   10  C   UNL     1     -41.194 -54.107  13.557  1.00  0.00     0.126 C 
HETATM   11  C   UNL     1     -41.066 -53.802  15.039  1.00  0.00     0.020 C 
HETATM   12  C   UNL     1     -41.714 -54.860  15.932  1.00  0.00     0.002 C 
HETATM   13  C   UNL     1     -42.959 -55.540  15.367  1.00  0.00     0.009 C 
HETATM   14  C   UNL     1     -43.951 -54.585  14.733  1.00  0.00     0.103 C 
HETATM   15  C   UNL     1     -43.692 -54.175  13.292  1.00  0.00     0.219 C 
HETATM   16  O   UNL     1     -44.622 -54.146  12.483  1.00  0.00    -0.273 OA
ENDBRANCH   8   9
ENDBRANCH   7   8
ENDBRANCH   3   7
BRANCH   4  17
HETATM   17  C   UNL     1     -41.848 -47.770  10.092  1.00  0.00     0.108 A 
HETATM   18  C   UNL     1     -42.106 -46.542  10.689  1.00  0.00     0.049 A 
HETATM   19  C   UNL     1     -43.144 -45.755  10.193  1.00  0.00     0.005 A 
HETATM   20  C   UNL     1     -43.899 -46.220   9.124  1.00  0.00     0.017 A 
HETATM   21  C   UNL     1     -43.573 -47.448   8.582  1.00  0.00     0.089 A 
HETATM   22  N   UNL     1     -42.563 -48.224   9.038  1.00  0.00    -0.352 N 
ATOM     23  HN  UNL     1     -42.350 -49.121   8.603  1.00  0.00     0.166 HD
ENDBRANCH   4  17
TORSDOF 4
ENDMDL
MODEL 3
REMARK VINA RESULT:      -6.1      1.593      2.147
REMARK  4 active torsions:
REMARK  status: ('A' for Active; 'I' for Inactive)
REMARK       I    between atoms: C_2  and  N_3 
REMARK       I    between atoms: C_2  and  N_14 
REMARK    1  A    between atoms: N_3  and  C_4 
REMARK    2  A    between atoms: C_4  and  C_5 
REMARK    3  A    between atoms: C_5  and  N_6 
REMARK    4  A    between atoms: N_14  and  C_15 
ROOT
HETATM    1  O   UNL     1     -40.084 -50.063  11.606  1.00  0.00    -0.247 OA
HETATM    2  C   UNL     1     -41.115 -49.493  11.259  1.00  0.00     0.321 C 
HETATM    3  N   UNL     1     -42.313 -49.684  11.869  1.00  0.00    -0.341 N 
HETATM    4  N   UNL     1     -41.079 -48.601  10.229  1.00  0.00    -0.295 N 
HETATM    5  H   UNL     1     -43.097 -49.167  11.475  1.00  0.00     0.164 HD
HETATM    6  H   UNL     1     -40.158 -48.511   9.823  1.00  0.00     0.172 HD
ENDROOT
BRANCH   3   7
HETATM    7  C   UNL     1     -42.522 -50.525  13.031  1.00  0.00     0.144 C 
BRANCH   7   8
HETATM    8  C   UNL     1     -42.994 -51.932  12.656  1.00  0.00     0.145 C 
BRANCH   8   9
HETATM    9  N   UNL     1     -43.916 -52.542  13.612  1.00  0.00    -0.351 N 
HETATM   10  C   UNL     1     -44.891 -51.675  14.267  1.00  0.00     0.126 C 
HETATM   11  C   UNL     1     -46.310 -51.953  13.801  1.00  0.00     0.020 C 
HETATM   12  C   UNL     1     -46.988 -53.086  14.570  1.00  0.00     0.002 C 
HETATM   13  C   UNL     1     -46.073 -54.215  15.041  1.00  0.00     0.009 C 
HETATM   14  C   UNL     1     -45.088 -54.692  13.991  1.00  0.00     0.103 C 
HETATM   15  C   UNL     1     -43.799 -53.899  13.841  1.00  0.00     0.219 C 
HETATM   16  O   UNL     1     -42.723 -54.488  13.724  1.00  0.00    -0.273 OA
ENDBRANCH   8   9
ENDBRANCH   7   8
ENDBRANCH   3   7
BRANCH   4  17
HETATM   17  C   UNL     1     -42.105 -47.791   9.726  1.00  0.00     0.108 A 
HETATM   18  C   UNL     1     -42.305 -46.552  10.322  1.00  0.00     0.049 A 
HETATM   19  C   UNL     1     -43.342 -45.741   9.863  1.00  0.00     0.005 A 
HETATM   20  C   UNL     1     -44.153 -46.194   8.830  1.00  0.00     0.017 A 
HETATM   21  C   UNL     1     -43.882 -47.435   8.286  1.00  0.00     0.089 A 
HETATM   22  N   UNL     1     -42.876 -48.234   8.707  1.00  0.00    -0.352 N 
ATOM     23  HN  UNL     1     -42.705 -49.140   8.271  1.00  0.00     0.166 HD
ENDBRANCH   4  17
TORSDOF 4
ENDMDL
MODEL 4
REMARK VINA RESULT:      -6.1      1.607      2.097
REMARK  4 active torsions:
REMARK  status: ('A' for Active; 'I' for Inactive)
REMARK       I    between atoms: C_2  and  N_3 
REMARK       I    between atoms: C_2  and  N_14 
REMARK    1  A    between atoms: N_3  and  C_4 
REMARK    2  A    between atoms: C_4  and  C_5 
REMARK    3  A    between atoms: C_5  and  N_6 
REMARK    4  A    between atoms: N_14  and  C_15 
ROOT
HETATM    1  O   UNL     1     -39.600 -51.880  12.401  1.00  0.00    -0.247 OA
HETATM    2  C   UNL     1     -40.577 -51.223  12.049  1.00  0.00     0.321 C 
HETATM    3  N   UNL     1     -41.840 -51.722  12.022  1.00  0.00    -0.341 N 
HETATM    4  N   UNL     1     -40.418 -49.919  11.685  1.00  0.00    -0.295 N 
HETATM    5  H   UNL     1     -42.561 -51.083  11.693  1.00  0.00     0.164 HD
HETATM    6  H   UNL     1     -39.455 -49.618  11.727  1.00  0.00     0.172 HD
ENDROOT
BRANCH   3   7
HETATM    7  C   UNL     1     -42.209 -53.055  12.457  1.00  0.00     0.144 C 
BRANCH   7   8
HETATM    8  C   UNL     1     -42.365 -53.152  13.976  1.00  0.00     0.145 C 
BRANCH   8   9
HETATM    9  N   UNL     1     -43.735 -52.998  14.461  1.00  0.00    -0.351 N 
HETATM   10  C   UNL     1     -44.199 -51.650  14.777  1.00  0.00     0.126 C 
HETATM   11  C   UNL     1     -45.246 -51.159  13.792  1.00  0.00     0.020 C 
HETATM   12  C   UNL     1     -46.666 -51.597  14.151  1.00  0.00     0.002 C 
HETATM   13  C   UNL     1     -46.793 -52.959  14.831  1.00  0.00     0.009 C 
HETATM   14  C   UNL     1     -45.961 -54.051  14.189  1.00  0.00     0.103 C 
HETATM   15  C   UNL     1     -44.499 -54.139  14.600  1.00  0.00     0.219 C 
HETATM   16  O   UNL     1     -43.993 -55.236  14.844  1.00  0.00    -0.273 OA
ENDBRANCH   8   9
ENDBRANCH   7   8
ENDBRANCH   3   7
BRANCH   4  17
HETATM   17  C   UNL     1     -41.391 -48.977  11.330  1.00  0.00     0.108 A 
HETATM   18  C   UNL     1     -42.190 -48.457  12.341  1.00  0.00     0.049 A 
HETATM   19  C   UNL     1     -43.189 -47.543  12.009  1.00  0.00     0.005 A 
HETATM   20  C   UNL     1     -43.366 -47.182  10.680  1.00  0.00     0.017 A 
HETATM   21  C   UNL     1     -42.525 -47.738   9.737  1.00  0.00     0.089 A 
HETATM   22  N   UNL     1     -41.542 -48.618  10.035  1.00  0.00    -0.352 N 
ATOM     23  HN  UNL     1     -40.936 -48.998   9.308  1.00  0.00     0.166 HD
ENDBRANCH   4  17
TORSDOF 4
ENDMDL
MODEL 5
REMARK VINA RESULT:      -6.0      1.857      2.687
REMARK  4 active torsions:
REMARK  status: ('A' for Active; 'I' for Inactive)
REMARK       I    between atoms: C_2  and  N_3 
REMARK       I    between atoms: C_2  and  N_14 
REMARK    1  A    between atoms: N_3  and  C_4 
REMARK    2  A    between atoms: C_4  and  C_5 
REMARK    3  A    between atoms: C_5  and  N_6 
REMARK    4  A    between atoms: N_14  and  C_15 
ROOT
HETATM    1  O   UNL     1     -40.540 -53.379  12.077  1.00  0.00    -0.247 OA
HETATM    2  C   UNL     1     -40.888 -52.221  12.298  1.00  0.00     0.321 C 
HETATM    3  N   UNL     1     -41.523 -51.839  13.436  1.00  0.00    -0.341 N 
HETATM    4  N   UNL     1     -40.614 -51.248  11.383  1.00  0.00    -0.295 N 
HETATM    5  H   UNL     1     -41.775 -50.854  13.491  1.00  0.00     0.164 HD
HETATM    6  H   UNL     1     -40.143 -51.605  10.564  1.00  0.00     0.172 HD
ENDROOT
BRANCH   3   7
HETATM    7  C   UNL     1     -41.816 -52.717  14.551  1.00  0.00     0.144 C 
BRANCH   7   8
HETATM    8  C   UNL     1     -42.937 -53.709  14.234  1.00  0.00     0.145 C 
BRANCH   8   9
HETATM    9  N   UNL     1     -44.289 -53.190  14.437  1.00  0.00    -0.351 N 
HETATM   10  C   UNL     1     -44.791 -53.113  15.805  1.00  0.00     0.126 C 
HETATM   11  C   UNL     1     -44.933 -51.679  16.284  1.00  0.00     0.020 C 
HETATM   12  C   UNL     1     -46.264 -51.039  15.893  1.00  0.00     0.002 C 
HETATM   13  C   UNL     1     -46.857 -51.492  14.559  1.00  0.00     0.009 C 
HETATM   14  C   UNL     1     -45.852 -51.554  13.426  1.00  0.00     0.103 C 
HETATM   15  C   UNL     1     -45.007 -52.815  13.319  1.00  0.00     0.219 C 
HETATM   16  O   UNL     1     -44.824 -53.342  12.220  1.00  0.00    -0.273 OA
ENDBRANCH   8   9
ENDBRANCH   7   8
ENDBRANCH   3   7
BRANCH   4  17
HETATM   17  C   UNL     1     -40.846 -49.870  11.465  1.00  0.00     0.108 A 
HETATM   18  C   UNL     1     -39.790 -49.056  11.859  1.00  0.00     0.049 A 
HETATM   19  C   UNL     1     -40.005 -47.684  11.981  1.00  0.00     0.005 A 
HETATM   20  C   UNL     1     -41.266 -47.167  11.716  1.00  0.00     0.017 A 
HETATM   21  C   UNL     1     -42.259 -48.042  11.322  1.00  0.00     0.089 A 
HETATM   22  N   UNL     1     -42.072 -49.375  11.186  1.00  0.00    -0.352 N 
ATOM     23  HN  UNL     1     -42.832 -49.985  10.883  1.00  0.00     0.166 HD
ENDBRANCH   4  17
TORSDOF 4
ENDMDL
MODEL 6
REMARK VINA RESULT:      -5.8      2.998      6.163
REMARK  4 active torsions:
REMARK  status: ('A' for Active; 'I' for Inactive)
REMARK       I    between atoms: C_2  and  N_3 
REMARK       I    between atoms: C_2  and  N_14 
REMARK    1  A    between atoms: N_3  and  C_4 
REMARK    2  A    between atoms: C_4  and  C_5 
REMARK    3  A    between atoms: C_5  and  N_6 
REMARK    4  A    between atoms: N_14  and  C_15 
ROOT
HETATM    1  O   UNL     1     -42.958 -55.914  15.674  1.00  0.00    -0.247 OA
HETATM    2  C   UNL     1     -43.318 -54.881  15.115  1.00  0.00     0.321 C 
HETATM    3  N   UNL     1     -42.453 -53.998  14.553  1.00  0.00    -0.341 N 
HETATM    4  N   UNL     1     -44.647 -54.595  15.018  1.00  0.00    -0.295 N 
HETATM    5  H   UNL     1     -42.875 -53.170  14.137  1.00  0.00     0.164 HD
HETATM    6  H   UNL     1     -45.229 -55.293  15.459  1.00  0.00     0.172 HD
ENDROOT
BRANCH   3   7
HETATM    7  C   UNL     1     -41.017 -54.181  14.483  1.00  0.00     0.144 C 
BRANCH   7   8
HETATM    8  C   UNL     1     -40.425 -53.663  13.170  1.00  0.00     0.145 C 
BRANCH   8   9
HETATM    9  N   UNL     1     -40.192 -52.221  13.132  1.00  0.00    -0.351 N 
HETATM   10  C   UNL     1     -39.070 -51.691  13.902  1.00  0.00     0.126 C 
HETATM   11  C   UNL     1     -37.953 -51.179  13.009  1.00  0.00     0.020 C 
HETATM   12  C   UNL     1     -38.158 -49.736  12.551  1.00  0.00     0.002 C 
HETATM   13  C   UNL     1     -39.607 -49.302  12.336  1.00  0.00     0.009 C 
HETATM   14  C   UNL     1     -40.447 -50.310  11.576  1.00  0.00     0.103 C 
HETATM   15  C   UNL     1     -41.054 -51.450  12.378  1.00  0.00     0.219 C 
HETATM   16  O   UNL     1     -42.226 -51.781  12.188  1.00  0.00    -0.273 OA
ENDBRANCH   8   9
ENDBRANCH   7   8
ENDBRANCH   3   7
BRANCH   4  17
HETATM   17  C   UNL     1     -45.274 -53.527  14.364  1.00  0.00     0.108 A 
HETATM   18  C   UNL     1     -45.834 -52.525  15.147  1.00  0.00     0.049 A 
HETATM   19  C   UNL     1     -46.494 -51.469  14.520  1.00  0.00     0.005 A 
HETATM   20  C   UNL     1     -46.584 -51.449  13.134  1.00  0.00     0.017 A 
HETATM   21  C   UNL     1     -45.994 -52.480  12.429  1.00  0.00     0.089 A 
HETATM   22  N   UNL     1     -45.339 -53.509  13.014  1.00  0.00    -0.352 N 
ATOM     23  HN  UNL     1     -44.909 -54.245  12.454  1.00  0.00     0.166 HD
ENDBRANCH   4  17
TORSDOF 4
ENDMDL
MODEL 7
REMARK VINA RESULT:      -5.6      2.630      6.467
REMARK  4 active torsions:
REMARK  status: ('A' for Active; 'I' for Inactive)
REMARK       I    between atoms: C_2  and  N_3 
REMARK       I    between atoms: C_2  and  N_14 
REMARK    1  A    between atoms: N_3  and  C_4 
REMARK    2  A    between atoms: C_4  and  C_5 
REMARK    3  A    between atoms: C_5  and  N_6 
REMARK    4  A    between atoms: N_14  and  C_15 
ROOT
HETATM    1  O   UNL     1     -40.595 -51.191  11.955  1.00  0.00    -0.247 OA
HETATM    2  C   UNL     1     -41.771 -50.932  12.199  1.00  0.00     0.321 C 
HETATM    3  N   UNL     1     -42.370 -49.770  11.832  1.00  0.00    -0.341 N 
HETATM    4  N   UNL     1     -42.542 -51.850  12.847  1.00  0.00    -0.295 N 
HETATM    5  H   UNL     1     -43.344 -49.668  12.110  1.00  0.00     0.164 HD
HETATM    6  H   UNL     1     -42.031 -52.687  13.090  1.00  0.00     0.172 HD
ENDROOT
BRANCH   3   7
HETATM    7  C   UNL     1     -41.732 -48.720  11.063  1.00  0.00     0.144 C 
BRANCH   7   8
HETATM    8  C   UNL     1     -42.453 -47.377  11.196  1.00  0.00     0.145 C 
BRANCH   8   9
HETATM    9  N   UNL     1     -41.629 -46.290  11.719  1.00  0.00    -0.351 N 
HETATM   10  C   UNL     1     -41.445 -46.208  13.165  1.00  0.00     0.126 C 
HETATM   11  C   UNL     1     -40.021 -46.537  13.580  1.00  0.00     0.020 C 
HETATM   12  C   UNL     1     -39.080 -45.335  13.519  1.00  0.00     0.002 C 
HETATM   13  C   UNL     1     -39.369 -44.316  12.418  1.00  0.00     0.009 C 
HETATM   14  C   UNL     1     -39.661 -44.934  11.065  1.00  0.00     0.103 C 
HETATM   15  C   UNL     1     -41.085 -45.403  10.811  1.00  0.00     0.219 C 
HETATM   16  O   UNL     1     -41.633 -45.155   9.735  1.00  0.00    -0.273 OA
ENDBRANCH   8   9
ENDBRANCH   7   8
ENDBRANCH   3   7
BRANCH   4  17
HETATM   17  C   UNL     1     -43.908 -51.796  13.153  1.00  0.00     0.108 A 
HETATM   18  C   UNL     1     -44.282 -51.205  14.354  1.00  0.00     0.049 A 
HETATM   19  C   UNL     1     -45.632 -51.170  14.697  1.00  0.00     0.005 A 
HETATM   20  C   UNL     1     -46.567 -51.733  13.839  1.00  0.00     0.017 A 
HETATM   21  C   UNL     1     -46.114 -52.294  12.661  1.00  0.00     0.089 A 
HETATM   22  N   UNL     1     -44.811 -52.331  12.301  1.00  0.00    -0.352 N 
ATOM     23  HN  UNL     1     -44.520 -52.747  11.416  1.00  0.00     0.166 HD
ENDBRANCH   4  17
TORSDOF 4
ENDMDL
MODEL 8
REMARK VINA RESULT:      -5.4      1.654      5.754
REMARK  4 active torsions:
REMARK  status: ('A' for Active; 'I' for Inactive)
REMARK       I    between atoms: C_2  and  N_3 
REMARK       I    between atoms: C_2  and  N_14 
REMARK    1  A    between atoms: N_3  and  C_4 
REMARK    2  A    between atoms: C_4  and  C_5 
REMARK    3  A    between atoms: C_5  and  N_6 
REMARK    4  A    between atoms: N_14  and  C_15 
ROOT
HETATM    1  O   UNL     1     -40.536 -53.438  12.546  1.00  0.00    -0.247 OA
HETATM    2  C   UNL     1     -41.529 -52.730  12.697  1.00  0.00     0.321 C 
HETATM    3  N   UNL     1     -41.518 -51.384  12.524  1.00  0.00    -0.341 N 
HETATM    4  N   UNL     1     -42.720 -53.303  13.030  1.00  0.00    -0.295 N 
HETATM    5  H   UNL     1     -42.402 -50.908  12.697  1.00  0.00     0.164 HD
HETATM    6  H   UNL     1     -42.653 -54.304  13.143  1.00  0.00     0.172 HD
ENDROOT
BRANCH   3   7
HETATM    7  C   UNL     1     -40.367 -50.618  12.086  1.00  0.00     0.144 C 
BRANCH   7   8
HETATM    8  C   UNL     1     -40.725 -49.590  11.011  1.00  0.00     0.145 C 
BRANCH   8   9
HETATM    9  N   UNL     1     -41.119 -48.279  11.525  1.00  0.00    -0.351 N 
HETATM   10  C   UNL     1     -40.063 -47.312  11.806  1.00  0.00     0.126 C 
HETATM   11  C   UNL     1     -40.079 -46.146  10.833  1.00  0.00     0.020 C 
HETATM   12  C   UNL     1     -41.038 -45.030  11.242  1.00  0.00     0.002 C 
HETATM   13  C   UNL     1     -42.307 -45.471  11.970  1.00  0.00     0.009 C 
HETATM   14  C   UNL     1     -42.994 -46.669  11.344  1.00  0.00     0.103 C 
HETATM   15  C   UNL     1     -42.466 -48.045  11.720  1.00  0.00     0.219 C 
HETATM   16  O   UNL     1     -43.253 -48.954  11.988  1.00  0.00    -0.273 OA
ENDBRANCH   8   9
ENDBRANCH   7   8
ENDBRANCH   3   7
BRANCH   4  17
HETATM   17  C   UNL     1     -43.978 -52.704  13.172  1.00  0.00     0.108 A 
HETATM   18  C   UNL     1     -44.292 -52.137  14.402  1.00  0.00     0.049 A 
HETATM   19  C   UNL     1     -45.551 -51.565  14.580  1.00  0.00     0.005 A 
HETATM   20  C   UNL     1     -46.461 -51.583  13.530  1.00  0.00     0.017 A 
HETATM   21  C   UNL     1     -46.068 -52.159  12.338  1.00  0.00     0.089 A 
HETATM   22  N   UNL     1     -44.849 -52.710  12.138  1.00  0.00    -0.352 N 
ATOM     23  HN  UNL     1     -44.596 -53.117  11.237  1.00  0.00     0.166 HD
ENDBRANCH   4  17
TORSDOF 4
ENDMDL
MODEL 9
REMARK VINA RESULT:      -5.3      2.938      5.864
REMARK  4 active torsions:
REMARK  status: ('A' for Active; 'I' for Inactive)
REMARK       I    between atoms: C_2  and  N_3 
REMARK       I    between atoms: C_2  and  N_14 
REMARK    1  A    between atoms: N_3  and  C_4 
REMARK    2  A    between atoms: C_4  and  C_5 
REMARK    3  A    between atoms: C_5  and  N_6 
REMARK    4  A    between atoms: N_14  and  C_15 
ROOT
HETATM    1  O   UNL     1     -39.847 -54.021  12.987  1.00  0.00    -0.247 OA
HETATM    2  C   UNL     1     -40.926 -53.613  13.412  1.00  0.00     0.321 C 
HETATM    3  N   UNL     1     -41.065 -52.974  14.601  1.00  0.00    -0.341 N 
HETATM    4  N   UNL     1     -42.051 -53.777  12.660  1.00  0.00    -0.295 N 
HETATM    5  H   UNL     1     -42.015 -52.703  14.849  1.00  0.00     0.164 HD
HETATM    6  H   UNL     1     -41.872 -54.260  11.791  1.00  0.00     0.172 HD
ENDROOT
BRANCH   3   7
HETATM    7  C   UNL     1     -39.970 -52.636  15.489  1.00  0.00     0.144 C 
BRANCH   7   8
HETATM    8  C   UNL     1     -39.798 -51.125  15.655  1.00  0.00     0.145 C 
BRANCH   8   9
HETATM    9  N   UNL     1     -39.414 -50.416  14.435  1.00  0.00    -0.351 N 
HETATM   10  C   UNL     1     -37.997 -50.126  14.233  1.00  0.00     0.126 C 
HETATM   11  C   UNL     1     -37.402 -50.943  13.099  1.00  0.00     0.020 C 
HETATM   12  C   UNL     1     -37.600 -50.304  11.725  1.00  0.00     0.002 C 
HETATM   13  C   UNL     1     -38.891 -49.510  11.537  1.00  0.00     0.009 C 
HETATM   14  C   UNL     1     -40.128 -50.206  12.072  1.00  0.00     0.103 C 
HETATM   15  C   UNL     1     -40.417 -50.057  13.558  1.00  0.00     0.219 C 
HETATM   16  O   UNL     1     -41.565 -49.825  13.941  1.00  0.00    -0.273 OA
ENDBRANCH   8   9
ENDBRANCH   7   8
ENDBRANCH   3   7
BRANCH   4  17
HETATM   17  C   UNL     1     -43.353 -53.327  12.910  1.00  0.00     0.108 A 
HETATM   18  C   UNL     1     -44.316 -54.274  13.235  1.00  0.00     0.049 A 
HETATM   19  C   UNL     1     -45.628 -53.855  13.455  1.00  0.00     0.005 A 
HETATM   20  C   UNL     1     -45.940 -52.507  13.337  1.00  0.00     0.017 A 
HETATM   21  C   UNL     1     -44.922 -51.628  13.019  1.00  0.00     0.089 A 
HETATM   22  N   UNL     1     -43.641 -52.009  12.811  1.00  0.00    -0.352 N 
ATOM     23  HN  UNL     1     -42.918 -51.326  12.588  1.00  0.00     0.166 HD
ENDBRANCH   4  17
TORSDOF 4
ENDMDL
