MODEL 1
REMARK VINA RESULT:      -6.5      0.000      0.000
REMARK  4 active torsions:
REMARK  status: ('A' for Active; 'I' for Inactive)
REMARK    1  A    between atoms: C_2  and  C_3 
REMARK    2  A    between atoms: C_2  and  N_10 
REMARK    3  A    between atoms: C_3  and  N_4 
REMARK       I    between atoms: N_10  and  C_11 
REMARK    4  A    between atoms: C_11  and  C_13 
ROOT
HETATM    1  N   UNL     1     -42.386 -48.410  10.169  1.00  0.00    -0.355 N 
HETATM    2  C   UNL     1     -42.561 -47.075   9.905  1.00  0.00     0.223 C 
HETATM    3  O   UNL     1     -42.082 -46.202  10.632  1.00  0.00    -0.273 OA
HETATM    4  H   UNL     1     -42.949 -49.085   9.662  1.00  0.00     0.162 HD
ENDROOT
BRANCH   1   5
HETATM    5  C   UNL     1     -41.681 -48.862  11.382  1.00  0.00     0.100 C 
HETATM    6  C   UNL     1     -42.667 -49.451  12.394  1.00  0.00     0.034 C 
BRANCH   5   7
HETATM    7  C   UNL     1     -40.492 -49.820  11.138  1.00  0.00     0.172 C 
BRANCH   7   8
HETATM    8  N   UNL     1     -40.583 -51.070  11.862  1.00  0.00    -0.302 N 
HETATM    9  C   UNL     1     -40.149 -51.316  13.133  1.00  0.00     0.111 A 
HETATM   10  C   UNL     1     -40.462 -52.628  13.399  1.00  0.00     0.037 A 
HETATM   11  C   UNL     1     -41.112 -53.080  12.235  1.00  0.00     0.108 A 
HETATM   12  N   UNL     1     -41.195 -52.132  11.299  1.00  0.00    -0.310 N 
ATOM     13  HN  UNL     1     -41.621 -52.195  10.374  1.00  0.00     0.186 HD
ENDBRANCH   7   8
ENDBRANCH   5   7
ENDBRANCH   1   5
BRANCH   2  14
HETATM   14  C   UNL     1     -43.427 -46.670   8.719  1.00  0.00     0.096 C 
HETATM   15  C   UNL     1     -44.829 -46.256   9.158  1.00  0.00     0.025 C 
HETATM   16  C   UNL     1     -45.780 -47.433   9.283  1.00  0.00     0.103 C 
HETATM   17  C   UNL     1     -45.775 -48.301   8.052  1.00  0.00     0.217 C 
HETATM   18  O   UNL     1     -46.784 -48.837   7.608  1.00  0.00    -0.274 OA
HETATM   19  N   UNL     1     -44.543 -48.582   7.525  1.00  0.00    -0.360 N 
HETATM   20  C   UNL     1     -43.444 -47.636   7.541  1.00  0.00     0.136 C 
HETATM   21  H   UNL     1     -44.622 -49.169   6.701  1.00  0.00     0.162 HD
ENDBRANCH   2  14
TORSDOF 4
ENDMDL
MODEL 2
REMARK VINA RESULT:      -6.1      4.263      5.823
REMARK  4 active torsions:
REMARK  status: ('A' for Active; 'I' for Inactive)
REMARK    1  A    between atoms: C_2  and  C_3 
REMARK    2  A    between atoms: C_2  and  N_10 
REMARK    3  A    between atoms: C_3  and  N_4 
REMARK       I    between atoms: N_10  and  C_11 
REMARK    4  A    between atoms: C_11  and  C_13 
ROOT
HETATM    1  N   UNL     1     -43.162 -51.557  12.531  1.00  0.00    -0.355 N 
HETATM    2  C   UNL     1     -44.020 -50.933  13.401  1.00  0.00     0.223 C 
HETATM    3  O   UNL     1     -43.620 -50.109  14.227  1.00  0.00    -0.273 OA
HETATM    4  H   UNL     1     -43.497 -52.358  12.006  1.00  0.00     0.162 HD
ENDROOT
BRANCH   1   5
HETATM    5  C   UNL     1     -41.707 -51.328  12.597  1.00  0.00     0.100 C 
HETATM    6  C   UNL     1     -40.941 -52.622  12.315  1.00  0.00     0.034 C 
BRANCH   5   7
HETATM    7  C   UNL     1     -41.181 -50.164  11.724  1.00  0.00     0.172 C 
BRANCH   7   8
HETATM    8  N   UNL     1     -39.777 -49.871  11.917  1.00  0.00    -0.302 N 
HETATM    9  C   UNL     1     -39.174 -49.471  13.075  1.00  0.00     0.111 A 
HETATM   10  C   UNL     1     -37.837 -49.330  12.783  1.00  0.00     0.037 A 
HETATM   11  C   UNL     1     -37.729 -49.699  11.430  1.00  0.00     0.108 A 
HETATM   12  N   UNL     1     -38.907 -50.036  10.899  1.00  0.00    -0.310 N 
ATOM     13  HN  UNL     1     -39.104 -50.347   9.948  1.00  0.00     0.186 HD
ENDBRANCH   7   8
ENDBRANCH   5   7
ENDBRANCH   1   5
BRANCH   2  14
HETATM   14  C   UNL     1     -45.492 -51.324  13.385  1.00  0.00     0.096 C 
HETATM   15  C   UNL     1     -46.068 -51.415  14.797  1.00  0.00     0.025 C 
HETATM   16  C   UNL     1     -45.849 -52.774  15.437  1.00  0.00     0.103 C 
HETATM   17  C   UNL     1     -46.289 -53.902  14.541  1.00  0.00     0.217 C 
HETATM   18  O   UNL     1     -46.828 -54.919  14.963  1.00  0.00    -0.274 OA
HETATM   19  N   UNL     1     -45.926 -53.797  13.226  1.00  0.00    -0.360 N 
HETATM   20  C   UNL     1     -45.857 -52.528  12.526  1.00  0.00     0.136 C 
HETATM   21  H   UNL     1     -46.258 -54.591  12.689  1.00  0.00     0.162 HD
ENDBRANCH   2  14
TORSDOF 4
ENDMDL
MODEL 3
REMARK VINA RESULT:      -5.9      3.265      5.282
REMARK  4 active torsions:
REMARK  status: ('A' for Active; 'I' for Inactive)
REMARK    1  A    between atoms: C_2  and  C_3 
REMARK    2  A    between atoms: C_2  and  N_10 
REMARK    3  A    between atoms: C_3  and  N_4 
REMARK       I    between atoms: N_10  and  C_11 
REMARK    4  A    between atoms: C_11  and  C_13 
ROOT
HETATM    1  N   UNL     1     -42.441 -49.272  12.017  1.00  0.00    -0.355 N 
HETATM    2  C   UNL     1     -42.203 -50.556  12.437  1.00  0.00     0.223 C 
HETATM    3  O   UNL     1     -41.296 -51.238  11.955  1.00  0.00    -0.273 OA
HETATM    4  H   UNL     1     -43.304 -48.818  12.298  1.00  0.00     0.162 HD
ENDROOT
BRANCH   1   5
HETATM    5  C   UNL     1     -41.669 -48.675  10.912  1.00  0.00     0.100 C 
HETATM    6  C   UNL     1     -42.580 -47.854   9.995  1.00  0.00     0.034 C 
BRANCH   5   7
HETATM    7  C   UNL     1     -40.425 -47.860  11.337  1.00  0.00     0.172 C 
BRANCH   7   8
HETATM    8  N   UNL     1     -39.305 -48.672  11.761  1.00  0.00    -0.302 N 
HETATM    9  C   UNL     1     -38.643 -48.600  12.953  1.00  0.00     0.111 A 
HETATM   10  C   UNL     1     -37.670 -49.571  12.911  1.00  0.00     0.037 A 
HETATM   11  C   UNL     1     -37.846 -50.197  11.664  1.00  0.00     0.108 A 
HETATM   12  N   UNL     1     -38.847 -49.658  10.962  1.00  0.00    -0.310 N 
ATOM     13  HN  UNL     1     -39.186 -49.928  10.038  1.00  0.00     0.186 HD
ENDBRANCH   7   8
ENDBRANCH   5   7
ENDBRANCH   1   5
BRANCH   2  14
HETATM   14  C   UNL     1     -43.131 -51.170  13.477  1.00  0.00     0.096 C 
HETATM   15  C   UNL     1     -42.610 -52.516  13.975  1.00  0.00     0.025 C 
HETATM   16  C   UNL     1     -43.042 -53.677  13.096  1.00  0.00     0.103 C 
HETATM   17  C   UNL     1     -44.526 -53.672  12.836  1.00  0.00     0.217 C 
HETATM   18  O   UNL     1     -45.197 -54.696  12.772  1.00  0.00    -0.274 OA
HETATM   19  N   UNL     1     -45.074 -52.456  12.530  1.00  0.00    -0.360 N 
HETATM   20  C   UNL     1     -44.610 -51.212  13.115  1.00  0.00     0.136 C 
HETATM   21  H   UNL     1     -46.073 -52.534  12.370  1.00  0.00     0.162 HD
ENDBRANCH   2  14
TORSDOF 4
ENDMDL
MODEL 4
REMARK VINA RESULT:      -5.9      3.279      5.587
REMARK  4 active torsions:
REMARK  status: ('A' for Active; 'I' for Inactive)
REMARK    1  A    between atoms: C_2  and  C_3 
REMARK    2  A    between atoms: C_2  and  N_10 
REMARK    3  A    between atoms: C_3  and  N_4 
REMARK       I    between atoms: N_10  and  C_11 
REMARK    4  A    between atoms: C_11  and  C_13 
ROOT
HETATM    1  N   UNL     1     -42.371 -52.464  13.244  1.00  0.00    -0.355 N 
HETATM    2  C   UNL     1     -41.205 -52.088  12.626  1.00  0.00     0.223 C 
HETATM    3  O   UNL     1     -40.498 -52.900  12.026  1.00  0.00    -0.273 OA
HETATM    4  H   UNL     1     -42.818 -51.812  13.881  1.00  0.00     0.162 HD
ENDROOT
BRANCH   1   5
HETATM    5  C   UNL     1     -42.791 -53.876  13.285  1.00  0.00     0.100 C 
HETATM    6  C   UNL     1     -42.563 -54.470  14.678  1.00  0.00     0.034 C 
BRANCH   5   7
HETATM    7  C   UNL     1     -44.230 -54.153  12.789  1.00  0.00     0.172 C 
BRANCH   7   8
HETATM    8  N   UNL     1     -45.166 -53.086  13.069  1.00  0.00    -0.302 N 
HETATM    9  C   UNL     1     -45.611 -52.685  14.296  1.00  0.00     0.111 A 
HETATM   10  C   UNL     1     -46.469 -51.634  14.069  1.00  0.00     0.037 A 
HETATM   11  C   UNL     1     -46.450 -51.456  12.674  1.00  0.00     0.108 A 
HETATM   12  N   UNL     1     -45.651 -52.333  12.060  1.00  0.00    -0.310 N 
ATOM     13  HN  UNL     1     -45.454 -52.416  11.063  1.00  0.00     0.186 HD
ENDBRANCH   7   8
ENDBRANCH   5   7
ENDBRANCH   1   5
BRANCH   2  14
HETATM   14  C   UNL     1     -40.747 -50.640  12.748  1.00  0.00     0.096 C 
HETATM   15  C   UNL     1     -41.882 -49.723  13.198  1.00  0.00     0.025 C 
HETATM   16  C   UNL     1     -42.728 -49.220  12.041  1.00  0.00     0.103 C 
HETATM   17  C   UNL     1     -41.889 -48.631  10.938  1.00  0.00     0.217 C 
HETATM   18  O   UNL     1     -42.233 -47.649  10.288  1.00  0.00    -0.274 OA
HETATM   19  N   UNL     1     -40.770 -49.341  10.594  1.00  0.00    -0.360 N 
HETATM   20  C   UNL     1     -39.977 -50.078  11.559  1.00  0.00     0.136 C 
HETATM   21  H   UNL     1     -40.260 -48.881   9.847  1.00  0.00     0.162 HD
ENDBRANCH   2  14
TORSDOF 4
ENDMDL
MODEL 5
REMARK VINA RESULT:      -5.8      2.766      4.182
REMARK  4 active torsions:
REMARK  status: ('A' for Active; 'I' for Inactive)
REMARK    1  A    between atoms: C_2  and  C_3 
REMARK    2  A    between atoms: C_2  and  N_10 
REMARK    3  A    between atoms: C_3  and  N_4 
REMARK       I    between atoms: N_10  and  C_11 
REMARK    4  A    between atoms: C_11  and  C_13 
ROOT
HETATM    1  N   UNL     1     -42.496 -50.574  12.422  1.00  0.00    -0.355 N 
HETATM    2  C   UNL     1     -41.699 -49.669  11.768  1.00  0.00     0.223 C 
HETATM    3  O   UNL     1     -40.712 -50.023  11.120  1.00  0.00    -0.273 OA
HETATM    4  H   UNL     1     -43.177 -50.231  13.092  1.00  0.00     0.162 HD
ENDROOT
BRANCH   1   5
HETATM    5  C   UNL     1     -42.161 -52.010  12.444  1.00  0.00     0.100 C 
HETATM    6  C   UNL     1     -41.225 -52.330  13.612  1.00  0.00     0.034 C 
BRANCH   5   7
HETATM    7  C   UNL     1     -43.372 -52.972  12.418  1.00  0.00     0.172 C 
BRANCH   7   8
HETATM    8  N   UNL     1     -44.588 -52.405  12.961  1.00  0.00    -0.302 N 
HETATM    9  C   UNL     1     -44.834 -52.084  14.265  1.00  0.00     0.111 A 
HETATM   10  C   UNL     1     -46.106 -51.564  14.299  1.00  0.00     0.037 A 
HETATM   11  C   UNL     1     -46.534 -51.584  12.959  1.00  0.00     0.108 A 
HETATM   12  N   UNL     1     -45.609 -52.088  12.138  1.00  0.00    -0.310 N 
ATOM     13  HN  UNL     1     -45.662 -52.207  11.126  1.00  0.00     0.186 HD
ENDBRANCH   7   8
ENDBRANCH   5   7
ENDBRANCH   1   5
BRANCH   2  14
HETATM   14  C   UNL     1     -42.011 -48.184  11.908  1.00  0.00     0.096 C 
HETATM   15  C   UNL     1     -43.472 -47.880  11.585  1.00  0.00     0.025 C 
HETATM   16  C   UNL     1     -43.715 -47.658  10.103  1.00  0.00     0.103 C 
HETATM   17  C   UNL     1     -42.756 -46.657   9.514  1.00  0.00     0.217 C 
HETATM   18  O   UNL     1     -43.080 -45.847   8.653  1.00  0.00    -0.274 OA
HETATM   19  N   UNL     1     -41.446 -46.792   9.890  1.00  0.00    -0.360 N 
HETATM   20  C   UNL     1     -41.048 -47.229  11.215  1.00  0.00     0.136 C 
HETATM   21  H   UNL     1     -40.865 -46.085   9.454  1.00  0.00     0.162 HD
ENDBRANCH   2  14
TORSDOF 4
ENDMDL
MODEL 6
REMARK VINA RESULT:      -5.8      2.323      3.334
REMARK  4 active torsions:
REMARK  status: ('A' for Active; 'I' for Inactive)
REMARK    1  A    between atoms: C_2  and  C_3 
REMARK    2  A    between atoms: C_2  and  N_10 
REMARK    3  A    between atoms: C_3  and  N_4 
REMARK       I    between atoms: N_10  and  C_11 
REMARK    4  A    between atoms: C_11  and  C_13 
ROOT
HETATM    1  N   UNL     1     -39.593 -48.780  12.073  1.00  0.00    -0.355 N 
HETATM    2  C   UNL     1     -40.949 -48.698  11.890  1.00  0.00     0.223 C 
HETATM    3  O   UNL     1     -41.632 -49.693  11.634  1.00  0.00    -0.273 OA
HETATM    4  H   UNL     1     -39.049 -47.924  12.091  1.00  0.00     0.162 HD
ENDROOT
BRANCH   1   5
HETATM    5  C   UNL     1     -38.875 -50.056  11.895  1.00  0.00     0.100 C 
HETATM    6  C   UNL     1     -37.506 -49.823  11.252  1.00  0.00     0.034 C 
BRANCH   5   7
HETATM    7  C   UNL     1     -38.754 -50.930  13.166  1.00  0.00     0.172 C 
BRANCH   7   8
HETATM    8  N   UNL     1     -39.631 -52.081  13.176  1.00  0.00    -0.302 N 
HETATM    9  C   UNL     1     -39.775 -52.994  14.180  1.00  0.00     0.111 A 
HETATM   10  C   UNL     1     -40.724 -53.892  13.750  1.00  0.00     0.037 A 
HETATM   11  C   UNL     1     -41.115 -53.416  12.485  1.00  0.00     0.108 A 
HETATM   12  N   UNL     1     -40.457 -52.308  12.134  1.00  0.00    -0.310 N 
ATOM     13  HN  UNL     1     -40.556 -51.760  11.279  1.00  0.00     0.186 HD
ENDBRANCH   7   8
ENDBRANCH   5   7
ENDBRANCH   1   5
BRANCH   2  14
HETATM   14  C   UNL     1     -41.612 -47.327  11.937  1.00  0.00     0.096 C 
HETATM   15  C   UNL     1     -43.122 -47.421  11.725  1.00  0.00     0.025 C 
HETATM   16  C   UNL     1     -43.513 -47.414  10.258  1.00  0.00     0.103 C 
HETATM   17  C   UNL     1     -42.876 -46.274   9.506  1.00  0.00     0.217 C 
HETATM   18  O   UNL     1     -43.451 -45.657   8.616  1.00  0.00    -0.274 OA
HETATM   19  N   UNL     1     -41.552 -46.049   9.772  1.00  0.00    -0.360 N 
HETATM   20  C   UNL     1     -40.969 -46.240  11.085  1.00  0.00     0.136 C 
HETATM   21  H   UNL     1     -41.197 -45.269   9.228  1.00  0.00     0.162 HD
ENDBRANCH   2  14
TORSDOF 4
ENDMDL
MODEL 7
REMARK VINA RESULT:      -5.8      3.122      4.213
REMARK  4 active torsions:
REMARK  status: ('A' for Active; 'I' for Inactive)
REMARK    1  A    between atoms: C_2  and  C_3 
REMARK    2  A    between atoms: C_2  and  N_10 
REMARK    3  A    between atoms: C_3  and  N_4 
REMARK       I    between atoms: N_10  and  C_11 
REMARK    4  A    between atoms: C_11  and  C_13 
ROOT
HETATM    1  N   UNL     1     -39.268 -48.287  11.528  1.00  0.00    -0.355 N 
HETATM    2  C   UNL     1     -40.528 -47.916  11.135  1.00  0.00     0.223 C 
HETATM    3  O   UNL     1     -41.387 -48.749  10.838  1.00  0.00    -0.273 OA
HETATM    4  H   UNL     1     -38.543 -47.578  11.577  1.00  0.00     0.162 HD
ENDROOT
BRANCH   1   5
HETATM    5  C   UNL     1     -38.857 -49.703  11.538  1.00  0.00     0.100 C 
HETATM    6  C   UNL     1     -37.382 -49.843  11.153  1.00  0.00     0.034 C 
BRANCH   5   7
HETATM    7  C   UNL     1     -39.169 -50.473  12.843  1.00  0.00     0.172 C 
BRANCH   7   8
HETATM    8  N   UNL     1     -40.045 -51.611  12.661  1.00  0.00    -0.302 N 
HETATM    9  C   UNL     1     -40.187 -52.679  13.499  1.00  0.00     0.111 A 
HETATM   10  C   UNL     1     -41.135 -53.493  12.926  1.00  0.00     0.037 A 
HETATM   11  C   UNL     1     -41.528 -52.814  11.758  1.00  0.00     0.108 A 
HETATM   12  N   UNL     1     -40.871 -51.662  11.596  1.00  0.00    -0.310 N 
ATOM     13  HN  UNL     1     -40.971 -50.980  10.844  1.00  0.00     0.186 HD
ENDBRANCH   7   8
ENDBRANCH   5   7
ENDBRANCH   1   5
BRANCH   2  14
HETATM   14  C   UNL     1     -40.846 -46.432  10.999  1.00  0.00     0.096 C 
HETATM   15  C   UNL     1     -40.212 -45.613  12.121  1.00  0.00     0.025 C 
HETATM   16  C   UNL     1     -41.079 -45.549  13.367  1.00  0.00     0.103 C 
HETATM   17  C   UNL     1     -42.493 -45.136  13.054  1.00  0.00     0.217 C 
HETATM   18  O   UNL     1     -43.156 -44.413  13.789  1.00  0.00    -0.274 OA
HETATM   19  N   UNL     1     -43.062 -45.733  11.961  1.00  0.00    -0.360 N 
HETATM   20  C   UNL     1     -42.309 -46.077  10.770  1.00  0.00     0.136 C 
HETATM   21  H   UNL     1     -44.011 -45.404  11.816  1.00  0.00     0.162 HD
ENDBRANCH   2  14
TORSDOF 4
ENDMDL
MODEL 8
REMARK VINA RESULT:      -5.7      3.528      6.676
REMARK  4 active torsions:
REMARK  status: ('A' for Active; 'I' for Inactive)
REMARK    1  A    between atoms: C_2  and  C_3 
REMARK    2  A    between atoms: C_2  and  N_10 
REMARK    3  A    between atoms: C_3  and  N_4 
REMARK       I    between atoms: N_10  and  C_11 
REMARK    4  A    between atoms: C_11  and  C_13 
ROOT
HETATM    1  N   UNL     1     -42.453 -50.178  12.772  1.00  0.00    -0.355 N 
HETATM    2  C   UNL     1     -43.459 -50.983  13.245  1.00  0.00     0.223 C 
HETATM    3  O   UNL     1     -44.644 -50.652  13.171  1.00  0.00    -0.273 OA
HETATM    4  H   UNL     1     -41.494 -50.396  13.023  1.00  0.00     0.162 HD
ENDROOT
BRANCH   1   5
HETATM    5  C   UNL     1     -42.741 -48.840  12.223  1.00  0.00     0.100 C 
HETATM    6  C   UNL     1     -42.684 -47.778  13.323  1.00  0.00     0.034 C 
BRANCH   5   7
HETATM    7  C   UNL     1     -41.884 -48.428  11.003  1.00  0.00     0.172 C 
BRANCH   7   8
HETATM    8  N   UNL     1     -42.616 -47.705   9.985  1.00  0.00    -0.302 N 
HETATM    9  C   UNL     1     -43.133 -46.446  10.085  1.00  0.00     0.111 A 
HETATM   10  C   UNL     1     -43.724 -46.176   8.872  1.00  0.00     0.037 A 
HETATM   11  C   UNL     1     -43.481 -47.324   8.096  1.00  0.00     0.108 A 
HETATM   12  N   UNL     1     -42.799 -48.256   8.768  1.00  0.00    -0.310 N 
ATOM     13  HN  UNL     1     -42.490 -49.170   8.438  1.00  0.00     0.186 HD
ENDBRANCH   7   8
ENDBRANCH   5   7
ENDBRANCH   1   5
BRANCH   2  14
HETATM   14  C   UNL     1     -43.087 -52.286  13.940  1.00  0.00     0.096 C 
HETATM   15  C   UNL     1     -42.924 -53.432  12.943  1.00  0.00     0.025 C 
HETATM   16  C   UNL     1     -44.235 -54.128  12.624  1.00  0.00     0.103 C 
HETATM   17  C   UNL     1     -44.984 -54.525  13.869  1.00  0.00     0.217 C 
HETATM   18  O   UNL     1     -45.624 -55.567  13.961  1.00  0.00    -0.274 OA
HETATM   19  N   UNL     1     -45.034 -53.584  14.862  1.00  0.00    -0.360 N 
HETATM   20  C   UNL     1     -43.940 -52.674  15.141  1.00  0.00     0.136 C 
HETATM   21  H   UNL     1     -45.554 -53.925  15.664  1.00  0.00     0.162 HD
ENDBRANCH   2  14
TORSDOF 4
ENDMDL
MODEL 9
REMARK VINA RESULT:      -5.7      4.693      6.248
REMARK  4 active torsions:
REMARK  status: ('A' for Active; 'I' for Inactive)
REMARK    1  A    between atoms: C_2  and  C_3 
REMARK    2  A    between atoms: C_2  and  N_10 
REMARK    3  A    between atoms: C_3  and  N_4 
REMARK       I    between atoms: N_10  and  C_11 
REMARK    4  A    between atoms: C_11  and  C_13 
ROOT
HETATM    1  N   UNL     1     -43.114 -51.956  12.486  1.00  0.00    -0.355 N 
HETATM    2  C   UNL     1     -43.763 -52.535  13.547  1.00  0.00     0.223 C 
HETATM    3  O   UNL     1     -43.176 -52.814  14.594  1.00  0.00    -0.273 OA
HETATM    4  H   UNL     1     -43.583 -51.920  11.587  1.00  0.00     0.162 HD
ENDROOT
BRANCH   1   5
HETATM    5  C   UNL     1     -41.660 -51.712  12.523  1.00  0.00     0.100 C 
HETATM    6  C   UNL     1     -40.891 -52.940  12.027  1.00  0.00     0.034 C 
BRANCH   5   7
HETATM    7  C   UNL     1     -41.186 -50.428  11.803  1.00  0.00     0.172 C 
BRANCH   7   8
HETATM    8  N   UNL     1     -39.778 -50.140  11.975  1.00  0.00    -0.302 N 
HETATM    9  C   UNL     1     -39.113 -49.976  13.156  1.00  0.00     0.111 A 
HETATM   10  C   UNL     1     -37.799 -49.738  12.826  1.00  0.00     0.037 A 
HETATM   11  C   UNL     1     -37.767 -49.809  11.422  1.00  0.00     0.108 A 
HETATM   12  N   UNL     1     -38.970 -50.062  10.898  1.00  0.00    -0.310 N 
ATOM     13  HN  UNL     1     -39.219 -50.170   9.915  1.00  0.00     0.186 HD
ENDBRANCH   7   8
ENDBRANCH   5   7
ENDBRANCH   1   5
BRANCH   2  14
HETATM   14  C   UNL     1     -45.234 -52.902  13.392  1.00  0.00     0.096 C 
HETATM   15  C   UNL     1     -46.122 -51.661  13.324  1.00  0.00     0.025 C 
HETATM   16  C   UNL     1     -46.529 -51.150  14.695  1.00  0.00     0.103 C 
HETATM   17  C   UNL     1     -47.098 -52.242  15.562  1.00  0.00     0.217 C 
HETATM   18  O   UNL     1     -48.030 -52.062  16.338  1.00  0.00    -0.274 OA
HETATM   19  N   UNL     1     -46.422 -53.432  15.545  1.00  0.00    -0.360 N 
HETATM   20  C   UNL     1     -45.769 -53.951  14.358  1.00  0.00     0.136 C 
HETATM   21  H   UNL     1     -46.865 -54.115  16.151  1.00  0.00     0.162 HD
ENDBRANCH   2  14
TORSDOF 4
ENDMDL
