MODEL 1
REMARK VINA RESULT:      -6.4      0.000      0.000
REMARK  3 active torsions:
REMARK  status: ('A' for Active; 'I' for Inactive)
REMARK       I    between atoms: C_2  and  N_3 
REMARK       I    between atoms: C_2  and  N_12 
REMARK    1  A    between atoms: N_3  and  C_4 
REMARK    2  A    between atoms: N_12  and  C_13 
REMARK    3  A    between atoms: C_18  and  C_20 
ROOT
HETATM    1  O   UNL     1     -41.396 -52.039  12.129  1.00  0.00    -0.247 OA
HETATM    2  C   UNL     1     -40.942 -51.307  13.000  1.00  0.00     0.322 C 
HETATM    3  N   UNL     1     -40.448 -51.810  14.190  1.00  0.00    -0.330 N 
HETATM    4  N   UNL     1     -40.936 -49.935  12.980  1.00  0.00    -0.288 N 
HETATM    5  H   UNL     1     -39.599 -51.365  14.524  1.00  0.00     0.165 HD
HETATM    6  H   UNL     1     -40.971 -49.446  13.857  1.00  0.00     0.172 HD
ENDROOT
BRANCH   3   7
HETATM    7  C   UNL     1     -40.497 -53.268  14.399  1.00  0.00     0.172 C 
HETATM    8  C   UNL     1     -41.128 -53.560  15.760  1.00  0.00     0.034 C 
HETATM    9  C   UNL     1     -41.515 -55.026  15.905  1.00  0.00     0.004 C 
HETATM   10  C   UNL     1     -40.384 -55.922  16.390  1.00  0.00     0.015 C 
HETATM   11  C   UNL     1     -38.981 -55.557  15.928  1.00  0.00     0.095 C 
HETATM   12  N   UNL     1     -38.852 -55.162  14.541  1.00  0.00    -0.261 NA
HETATM   13  C   UNL     1     -39.097 -53.860  14.162  1.00  0.00     0.220 C 
HETATM   14  H   UNL     1     -37.965 -55.449  14.140  1.00  0.00     0.130 HD
HETATM   15  O   UNL     1     -38.239 -53.258  13.511  1.00  0.00    -0.278 OA
ENDBRANCH   3   7
BRANCH   4  16
HETATM   16  C   UNL     1     -41.360 -49.275  11.856  1.00  0.00     0.169 A 
HETATM   17  N   UNL     1     -40.919 -49.355  10.624  1.00  0.00    -0.279 N 
HETATM   18  N   UNL     1     -41.636 -48.545   9.764  1.00  0.00    -0.296 N 
ATOM     19  HN  UNL     1     -40.138 -49.944  10.334  1.00  0.00     0.189 HD
HETATM   20  C   UNL     1     -42.605 -47.912  10.386  1.00  0.00     0.074 A 
ATOM     21  HN  UNL     1     -41.439 -48.451   8.768  1.00  0.00     0.187 HD
HETATM   22  S   UNL     1     -42.659 -48.186  12.081  1.00  0.00    -0.037 SA
BRANCH  20  23
HETATM   23  C   UNL     1     -43.606 -47.020   9.649  1.00  0.00     0.044 A 
HETATM   24  C   UNL     1     -45.023 -47.538   9.477  1.00  0.00     0.012 A 
HETATM   25  C   UNL     1     -44.121 -47.464   8.294  1.00  0.00     0.012 A 
ENDBRANCH  20  23
ENDBRANCH   4  16
TORSDOF 3
ENDMDL
MODEL 2
REMARK VINA RESULT:      -6.3      3.349      8.140
REMARK  3 active torsions:
REMARK  status: ('A' for Active; 'I' for Inactive)
REMARK       I    between atoms: C_2  and  N_3 
REMARK       I    between atoms: C_2  and  N_12 
REMARK    1  A    between atoms: N_3  and  C_4 
REMARK    2  A    between atoms: N_12  and  C_13 
REMARK    3  A    between atoms: C_18  and  C_20 
ROOT
HETATM    1  O   UNL     1     -39.883 -49.110  11.762  1.00  0.00    -0.247 OA
HETATM    2  C   UNL     1     -41.092 -48.985  11.614  1.00  0.00     0.322 C 
HETATM    3  N   UNL     1     -41.671 -47.753  11.366  1.00  0.00    -0.330 N 
HETATM    4  N   UNL     1     -42.030 -49.975  11.758  1.00  0.00    -0.288 N 
HETATM    5  H   UNL     1     -42.417 -47.762  10.677  1.00  0.00     0.165 HD
HETATM    6  H   UNL     1     -42.955 -49.716  12.056  1.00  0.00     0.172 HD
ENDROOT
BRANCH   3   7
HETATM    7  C   UNL     1     -40.791 -46.574  11.298  1.00  0.00     0.172 C 
HETATM    8  C   UNL     1     -40.495 -46.085  12.716  1.00  0.00     0.034 C 
HETATM    9  C   UNL     1     -39.341 -45.091  12.746  1.00  0.00     0.004 C 
HETATM   10  C   UNL     1     -39.755 -43.650  12.483  1.00  0.00     0.015 C 
HETATM   11  C   UNL     1     -40.902 -43.440  11.506  1.00  0.00     0.095 C 
HETATM   12  N   UNL     1     -40.882 -44.264  10.315  1.00  0.00    -0.261 NA
HETATM   13  C   UNL     1     -41.405 -45.539  10.340  1.00  0.00     0.220 C 
HETATM   14  H   UNL     1     -41.260 -43.780   9.507  1.00  0.00     0.130 HD
HETATM   15  O   UNL     1     -42.244 -45.854   9.494  1.00  0.00    -0.278 OA
ENDBRANCH   3   7
BRANCH   4  16
HETATM   16  C   UNL     1     -41.622 -51.265  11.973  1.00  0.00     0.169 A 
HETATM   17  N   UNL     1     -41.164 -52.150  11.120  1.00  0.00    -0.279 N 
HETATM   18  N   UNL     1     -40.828 -53.339  11.738  1.00  0.00    -0.296 N 
ATOM     19  HN  UNL     1     -41.068 -51.980  10.119  1.00  0.00     0.189 HD
HETATM   20  C   UNL     1     -41.024 -53.286  13.036  1.00  0.00     0.074 A 
ATOM     21  HN  UNL     1     -40.471 -54.158  11.247  1.00  0.00     0.187 HD
HETATM   22  S   UNL     1     -41.717 -51.814  13.590  1.00  0.00    -0.037 SA
BRANCH  20  23
HETATM   23  C   UNL     1     -40.649 -54.438  13.969  1.00  0.00     0.044 A 
HETATM   24  C   UNL     1     -39.917 -54.098  15.256  1.00  0.00     0.012 A 
HETATM   25  C   UNL     1     -39.184 -54.780  14.154  1.00  0.00     0.012 A 
ENDBRANCH  20  23
ENDBRANCH   4  16
TORSDOF 3
ENDMDL
MODEL 3
REMARK VINA RESULT:      -6.2      4.037      8.115
REMARK  3 active torsions:
REMARK  status: ('A' for Active; 'I' for Inactive)
REMARK       I    between atoms: C_2  and  N_3 
REMARK       I    between atoms: C_2  and  N_12 
REMARK    1  A    between atoms: N_3  and  C_4 
REMARK    2  A    between atoms: N_12  and  C_13 
REMARK    3  A    between atoms: C_18  and  C_20 
ROOT
HETATM    1  O   UNL     1     -41.459 -48.117  12.374  1.00  0.00    -0.247 OA
HETATM    2  C   UNL     1     -40.237 -48.161  12.305  1.00  0.00     0.322 C 
HETATM    3  N   UNL     1     -39.462 -47.019  12.395  1.00  0.00    -0.330 N 
HETATM    4  N   UNL     1     -39.483 -49.276  12.045  1.00  0.00    -0.288 N 
HETATM    5  H   UNL     1     -38.614 -47.120  12.944  1.00  0.00     0.165 HD
HETATM    6  H   UNL     1     -38.599 -49.156  11.579  1.00  0.00     0.172 HD
ENDROOT
BRANCH   3   7
HETATM    7  C   UNL     1     -40.148 -45.726  12.561  1.00  0.00     0.172 C 
HETATM    8  C   UNL     1     -40.134 -44.973  11.231  1.00  0.00     0.034 C 
HETATM    9  C   UNL     1     -41.100 -43.796  11.233  1.00  0.00     0.004 C 
HETATM   10  C   UNL     1     -40.516 -42.513  11.809  1.00  0.00     0.015 C 
HETATM   11  C   UNL     1     -39.521 -42.671  12.949  1.00  0.00     0.095 C 
HETATM   12  N   UNL     1     -39.859 -43.656  13.956  1.00  0.00    -0.261 NA
HETATM   13  C   UNL     1     -39.543 -44.984  13.765  1.00  0.00     0.220 C 
HETATM   14  H   UNL     1     -39.545 -43.383  14.881  1.00  0.00     0.130 HD
HETATM   15  O   UNL     1     -38.909 -45.576  14.642  1.00  0.00    -0.278 OA
ENDBRANCH   3   7
BRANCH   4  16
HETATM   16  C   UNL     1     -40.094 -50.500  11.960  1.00  0.00     0.169 A 
HETATM   17  N   UNL     1     -40.756 -51.036  10.963  1.00  0.00    -0.279 N 
HETATM   18  N   UNL     1     -41.196 -52.311  11.261  1.00  0.00    -0.296 N 
ATOM     19  HN  UNL     1     -40.925 -50.568  10.074  1.00  0.00     0.189 HD
HETATM   20  C   UNL     1     -40.822 -52.688  12.464  1.00  0.00     0.074 A 
ATOM     21  HN  UNL     1     -41.745 -52.890  10.626  1.00  0.00     0.187 HD
HETATM   22  S   UNL     1     -39.982 -51.483  13.355  1.00  0.00    -0.037 SA
BRANCH  20  23
HETATM   23  C   UNL     1     -41.103 -54.089  13.008  1.00  0.00     0.044 A 
HETATM   24  C   UNL     1     -42.363 -54.289  13.833  1.00  0.00     0.012 A 
HETATM   25  C   UNL     1     -41.034 -54.319  14.505  1.00  0.00     0.012 A 
ENDBRANCH  20  23
ENDBRANCH   4  16
TORSDOF 3
ENDMDL
MODEL 4
REMARK VINA RESULT:      -6.1      3.802      4.743
REMARK  3 active torsions:
REMARK  status: ('A' for Active; 'I' for Inactive)
REMARK       I    between atoms: C_2  and  N_3 
REMARK       I    between atoms: C_2  and  N_12 
REMARK    1  A    between atoms: N_3  and  C_4 
REMARK    2  A    between atoms: N_12  and  C_13 
REMARK    3  A    between atoms: C_18  and  C_20 
ROOT
HETATM    1  O   UNL     1     -41.905 -50.462  12.828  1.00  0.00    -0.247 OA
HETATM    2  C   UNL     1     -42.982 -49.972  12.514  1.00  0.00     0.322 C 
HETATM    3  N   UNL     1     -44.179 -50.612  12.782  1.00  0.00    -0.330 N 
HETATM    4  N   UNL     1     -43.165 -48.817  11.797  1.00  0.00    -0.288 N 
HETATM    5  H   UNL     1     -44.926 -50.004  13.102  1.00  0.00     0.165 HD
HETATM    6  H   UNL     1     -43.988 -48.737  11.225  1.00  0.00     0.172 HD
ENDROOT
BRANCH   3   7
HETATM    7  C   UNL     1     -44.129 -51.924  13.450  1.00  0.00     0.172 C 
HETATM    8  C   UNL     1     -44.559 -53.008  12.462  1.00  0.00     0.034 C 
HETATM    9  C   UNL     1     -44.219 -54.404  12.966  1.00  0.00     0.004 C 
HETATM   10  C   UNL     1     -45.275 -55.010  13.880  1.00  0.00     0.015 C 
HETATM   11  C   UNL     1     -46.023 -54.045  14.787  1.00  0.00     0.095 C 
HETATM   12  N   UNL     1     -45.221 -53.023  15.428  1.00  0.00    -0.261 NA
HETATM   13  C   UNL     1     -44.925 -51.852  14.765  1.00  0.00     0.220 C 
HETATM   14  H   UNL     1     -45.565 -52.788  16.353  1.00  0.00     0.130 HD
HETATM   15  O   UNL     1     -45.174 -50.777  15.315  1.00  0.00    -0.278 OA
ENDBRANCH   3   7
BRANCH   4  16
HETATM   16  C   UNL     1     -42.081 -48.042  11.478  1.00  0.00     0.169 A 
HETATM   17  N   UNL     1     -41.022 -48.340  10.763  1.00  0.00    -0.279 N 
HETATM   18  N   UNL     1     -40.160 -47.267  10.645  1.00  0.00    -0.296 N 
ATOM     19  HN  UNL     1     -40.855 -49.255  10.345  1.00  0.00     0.189 HD
HETATM   20  C   UNL     1     -40.623 -46.199  11.255  1.00  0.00     0.074 A 
ATOM     21  HN  UNL     1     -39.272 -47.299  10.145  1.00  0.00     0.187 HD
HETATM   22  S   UNL     1     -42.101 -46.447  12.095  1.00  0.00    -0.037 SA
BRANCH  20  23
HETATM   23  C   UNL     1     -39.905 -44.850  11.203  1.00  0.00     0.044 A 
HETATM   24  C   UNL     1     -39.183 -44.383  12.455  1.00  0.00     0.012 A 
HETATM   25  C   UNL     1     -40.442 -43.704  12.039  1.00  0.00     0.012 A 
ENDBRANCH  20  23
ENDBRANCH   4  16
TORSDOF 3
ENDMDL
MODEL 5
REMARK VINA RESULT:      -5.9      4.274      5.802
REMARK  3 active torsions:
REMARK  status: ('A' for Active; 'I' for Inactive)
REMARK       I    between atoms: C_2  and  N_3 
REMARK       I    between atoms: C_2  and  N_12 
REMARK    1  A    between atoms: N_3  and  C_4 
REMARK    2  A    between atoms: N_12  and  C_13 
REMARK    3  A    between atoms: C_18  and  C_20 
ROOT
HETATM    1  O   UNL     1     -43.304 -51.691  13.661  1.00  0.00    -0.247 OA
HETATM    2  C   UNL     1     -43.360 -52.451  12.702  1.00  0.00     0.322 C 
HETATM    3  N   UNL     1     -44.446 -53.282  12.494  1.00  0.00    -0.330 N 
HETATM    4  N   UNL     1     -42.366 -52.663  11.781  1.00  0.00    -0.288 N 
HETATM    5  H   UNL     1     -44.746 -53.359  11.527  1.00  0.00     0.165 HD
HETATM    6  H   UNL     1     -42.310 -53.564  11.339  1.00  0.00     0.172 HD
ENDROOT
BRANCH   3   7
HETATM    7  C   UNL     1     -45.546 -53.244  13.473  1.00  0.00     0.172 C 
HETATM    8  C   UNL     1     -45.718 -51.813  13.982  1.00  0.00     0.034 C 
HETATM    9  C   UNL     1     -47.031 -51.630  14.732  1.00  0.00     0.004 C 
HETATM   10  C   UNL     1     -46.960 -52.000  16.207  1.00  0.00     0.015 C 
HETATM   11  C   UNL     1     -46.038 -53.152  16.576  1.00  0.00     0.095 C 
HETATM   12  N   UNL     1     -46.070 -54.299  15.693  1.00  0.00    -0.261 NA
HETATM   13  C   UNL     1     -45.304 -54.319  14.547  1.00  0.00     0.220 C 
HETATM   14  H   UNL     1     -45.923 -55.172  16.189  1.00  0.00     0.130 HD
HETATM   15  O   UNL     1     -44.554 -55.278  14.349  1.00  0.00    -0.278 OA
ENDBRANCH   3   7
BRANCH   4  16
HETATM   16  C   UNL     1     -41.231 -51.896  11.824  1.00  0.00     0.169 A 
HETATM   17  N   UNL     1     -40.874 -50.890  11.063  1.00  0.00    -0.279 N 
HETATM   18  N   UNL     1     -39.660 -50.354  11.449  1.00  0.00    -0.296 N 
ATOM     19  HN  UNL     1     -41.426 -50.543  10.279  1.00  0.00     0.189 HD
HETATM   20  C   UNL     1     -39.170 -50.967  12.503  1.00  0.00     0.074 A 
ATOM     21  HN  UNL     1     -39.200 -49.578  10.974  1.00  0.00     0.187 HD
HETATM   22  S   UNL     1     -40.108 -52.300  13.049  1.00  0.00    -0.037 SA
BRANCH  20  23
HETATM   23  C   UNL     1     -37.880 -50.514  13.188  1.00  0.00     0.044 A 
HETATM   24  C   UNL     1     -37.991 -49.909  14.578  1.00  0.00     0.012 A 
HETATM   25  C   UNL     1     -37.658 -49.032  13.420  1.00  0.00     0.012 A 
ENDBRANCH  20  23
ENDBRANCH   4  16
TORSDOF 3
ENDMDL
MODEL 6
REMARK VINA RESULT:      -5.8      4.010      8.575
REMARK  3 active torsions:
REMARK  status: ('A' for Active; 'I' for Inactive)
REMARK       I    between atoms: C_2  and  N_3 
REMARK       I    between atoms: C_2  and  N_12 
REMARK    1  A    between atoms: N_3  and  C_4 
REMARK    2  A    between atoms: N_12  and  C_13 
REMARK    3  A    between atoms: C_18  and  C_20 
ROOT
HETATM    1  O   UNL     1     -41.115 -48.411  12.561  1.00  0.00    -0.247 OA
HETATM    2  C   UNL     1     -40.377 -48.118  11.629  1.00  0.00     0.322 C 
HETATM    3  N   UNL     1     -40.815 -47.345  10.569  1.00  0.00    -0.330 N 
HETATM    4  N   UNL     1     -39.093 -48.565  11.444  1.00  0.00    -0.288 N 
HETATM    5  H   UNL     1     -40.147 -46.654  10.239  1.00  0.00     0.165 HD
HETATM    6  H   UNL     1     -38.749 -48.650  10.503  1.00  0.00     0.172 HD
ENDROOT
BRANCH   3   7
HETATM    7  C   UNL     1     -42.215 -46.886  10.577  1.00  0.00     0.172 C 
HETATM    8  C   UNL     1     -43.043 -47.783   9.657  1.00  0.00     0.034 C 
HETATM    9  C   UNL     1     -44.539 -47.586   9.867  1.00  0.00     0.004 C 
HETATM   10  C   UNL     1     -45.135 -46.441   9.062  1.00  0.00     0.015 C 
HETATM   11  C   UNL     1     -44.242 -45.230   8.839  1.00  0.00     0.095 C 
HETATM   12  N   UNL     1     -43.468 -44.791   9.982  1.00  0.00    -0.261 NA
HETATM   13  C   UNL     1     -42.255 -45.379  10.270  1.00  0.00     0.220 C 
HETATM   14  H   UNL     1     -43.347 -43.784  10.002  1.00  0.00     0.130 HD
HETATM   15  O   UNL     1     -41.265 -44.659  10.418  1.00  0.00    -0.278 OA
ENDBRANCH   3   7
BRANCH   4  16
HETATM   16  C   UNL     1     -38.493 -49.317  12.420  1.00  0.00     0.169 A 
HETATM   17  N   UNL     1     -38.298 -50.613  12.474  1.00  0.00    -0.279 N 
HETATM   18  N   UNL     1     -37.623 -50.986  13.620  1.00  0.00    -0.296 N 
ATOM     19  HN  UNL     1     -38.608 -51.267  11.756  1.00  0.00     0.189 HD
HETATM   20  C   UNL     1     -37.316 -49.948  14.366  1.00  0.00     0.074 A 
ATOM     21  HN  UNL     1     -37.390 -51.950  13.859  1.00  0.00     0.187 HD
HETATM   22  S   UNL     1     -37.906 -48.448  13.771  1.00  0.00    -0.037 SA
BRANCH  20  23
HETATM   23  C   UNL     1     -36.490 -50.075  15.647  1.00  0.00     0.044 A 
HETATM   24  C   UNL     1     -37.236 -50.113  16.970  1.00  0.00     0.012 A 
HETATM   25  C   UNL     1     -36.448 -48.903  16.607  1.00  0.00     0.012 A 
ENDBRANCH  20  23
ENDBRANCH   4  16
TORSDOF 3
ENDMDL
MODEL 7
REMARK VINA RESULT:      -5.5      2.350      2.819
REMARK  3 active torsions:
REMARK  status: ('A' for Active; 'I' for Inactive)
REMARK       I    between atoms: C_2  and  N_3 
REMARK       I    between atoms: C_2  and  N_12 
REMARK    1  A    between atoms: N_3  and  C_4 
REMARK    2  A    between atoms: N_12  and  C_13 
REMARK    3  A    between atoms: C_18  and  C_20 
ROOT
HETATM    1  O   UNL     1     -40.969 -51.276  13.409  1.00  0.00    -0.247 OA
HETATM    2  C   UNL     1     -40.837 -51.604  12.236  1.00  0.00     0.322 C 
HETATM    3  N   UNL     1     -40.998 -52.915  11.825  1.00  0.00    -0.330 N 
HETATM    4  N   UNL     1     -40.436 -50.788  11.210  1.00  0.00    -0.288 N 
HETATM    5  H   UNL     1     -41.494 -53.029  10.946  1.00  0.00     0.165 HD
HETATM    6  H   UNL     1     -39.943 -51.201  10.437  1.00  0.00     0.172 HD
ENDROOT
BRANCH   3   7
HETATM    7  C   UNL     1     -41.320 -53.928  12.845  1.00  0.00     0.172 C 
HETATM    8  C   UNL     1     -42.634 -53.553  13.529  1.00  0.00     0.034 C 
HETATM    9  C   UNL     1     -43.198 -54.707  14.348  1.00  0.00     0.004 C 
HETATM   10  C   UNL     1     -42.644 -54.793  15.764  1.00  0.00     0.015 C 
HETATM   11  C   UNL     1     -41.194 -54.375  15.953  1.00  0.00     0.095 C 
HETATM   12  N   UNL     1     -40.264 -54.829  14.939  1.00  0.00    -0.261 NA
HETATM   13  C   UNL     1     -40.105 -54.117  13.770  1.00  0.00     0.220 C 
HETATM   14  H   UNL     1     -39.345 -55.025  15.320  1.00  0.00     0.130 HD
HETATM   15  O   UNL     1     -38.969 -53.781  13.427  1.00  0.00    -0.278 OA
ENDBRANCH   3   7
BRANCH   4  16
HETATM   16  C   UNL     1     -40.265 -49.448  11.440  1.00  0.00     0.169 A 
HETATM   17  N   UNL     1     -39.378 -48.835  12.188  1.00  0.00    -0.279 N 
HETATM   18  N   UNL     1     -39.517 -47.461  12.134  1.00  0.00    -0.296 N 
ATOM     19  HN  UNL     1     -38.671 -49.316  12.742  1.00  0.00     0.189 HD
HETATM   20  C   UNL     1     -40.488 -47.101  11.326  1.00  0.00     0.074 A 
ATOM     21  HN  UNL     1     -38.936 -46.807  12.658  1.00  0.00     0.187 HD
HETATM   22  S   UNL     1     -41.364 -48.410  10.639  1.00  0.00    -0.037 SA
BRANCH  20  23
HETATM   23  C   UNL     1     -40.795 -45.635  11.017  1.00  0.00     0.044 A 
HETATM   24  C   UNL     1     -39.814 -44.876  10.138  1.00  0.00     0.012 A 
HETATM   25  C   UNL     1     -39.890 -44.563  11.592  1.00  0.00     0.012 A 
ENDBRANCH  20  23
ENDBRANCH   4  16
TORSDOF 3
ENDMDL
MODEL 8
REMARK VINA RESULT:      -5.5      3.679      7.523
REMARK  3 active torsions:
REMARK  status: ('A' for Active; 'I' for Inactive)
REMARK       I    between atoms: C_2  and  N_3 
REMARK       I    between atoms: C_2  and  N_12 
REMARK    1  A    between atoms: N_3  and  C_4 
REMARK    2  A    between atoms: N_12  and  C_13 
REMARK    3  A    between atoms: C_18  and  C_20 
ROOT
HETATM    1  O   UNL     1     -42.674 -49.285  12.377  1.00  0.00    -0.247 OA
HETATM    2  C   UNL     1     -41.510 -49.637  12.523  1.00  0.00     0.322 C 
HETATM    3  N   UNL     1     -40.469 -48.727  12.517  1.00  0.00    -0.330 N 
HETATM    4  N   UNL     1     -41.063 -50.931  12.616  1.00  0.00    -0.288 N 
HETATM    5  H   UNL     1     -39.746 -48.899  13.210  1.00  0.00     0.165 HD
HETATM    6  H   UNL     1     -40.135 -51.138  12.291  1.00  0.00     0.172 HD
ENDROOT
BRANCH   3   7
HETATM    7  C   UNL     1     -40.792 -47.305  12.312  1.00  0.00     0.172 C 
HETATM    8  C   UNL     1     -40.109 -46.813  11.035  1.00  0.00     0.034 C 
HETATM    9  C   UNL     1     -40.656 -45.467  10.580  1.00  0.00     0.004 C 
HETATM   10  C   UNL     1     -39.987 -44.268  11.237  1.00  0.00     0.015 C 
HETATM   11  C   UNL     1     -39.536 -44.448  12.679  1.00  0.00     0.095 C 
HETATM   12  N   UNL     1     -40.459 -45.145  13.551  1.00  0.00    -0.261 NA
HETATM   13  C   UNL     1     -40.469 -46.522  13.596  1.00  0.00     0.220 C 
HETATM   14  H   UNL     1     -40.428 -44.795  14.503  1.00  0.00     0.130 HD
HETATM   15  O   UNL     1     -40.368 -47.082  14.690  1.00  0.00    -0.278 OA
ENDBRANCH   3   7
BRANCH   4  16
HETATM   16  C   UNL     1     -41.971 -51.956  12.670  1.00  0.00     0.169 A 
HETATM   17  N   UNL     1     -42.564 -52.600  11.693  1.00  0.00    -0.279 N 
HETATM   18  N   UNL     1     -43.396 -53.599  12.162  1.00  0.00    -0.296 N 
ATOM     19  HN  UNL     1     -42.428 -52.388  10.706  1.00  0.00     0.189 HD
HETATM   20  C   UNL     1     -43.370 -53.679  13.474  1.00  0.00     0.074 A 
ATOM     21  HN  UNL     1     -43.961 -54.201  11.564  1.00  0.00     0.187 HD
HETATM   22  S   UNL     1     -42.399 -52.485  14.239  1.00  0.00    -0.037 SA
BRANCH  20  23
HETATM   23  C   UNL     1     -44.131 -54.759  14.243  1.00  0.00     0.044 A 
HETATM   24  C   UNL     1     -45.541 -55.093  13.786  1.00  0.00     0.012 A 
HETATM   25  C   UNL     1     -45.341 -54.355  15.064  1.00  0.00     0.012 A 
ENDBRANCH  20  23
ENDBRANCH   4  16
TORSDOF 3
ENDMDL
MODEL 9
REMARK VINA RESULT:      -5.4      3.028      4.118
REMARK  3 active torsions:
REMARK  status: ('A' for Active; 'I' for Inactive)
REMARK       I    between atoms: C_2  and  N_3 
REMARK       I    between atoms: C_2  and  N_12 
REMARK    1  A    between atoms: N_3  and  C_4 
REMARK    2  A    between atoms: N_12  and  C_13 
REMARK    3  A    between atoms: C_18  and  C_20 
ROOT
HETATM    1  O   UNL     1     -41.533 -48.740  13.195  1.00  0.00    -0.247 OA
HETATM    2  C   UNL     1     -41.874 -49.142  12.089  1.00  0.00     0.322 C 
HETATM    3  N   UNL     1     -41.911 -50.491  11.785  1.00  0.00    -0.330 N 
HETATM    4  N   UNL     1     -42.164 -48.360  11.000  1.00  0.00    -0.288 N 
HETATM    5  H   UNL     1     -42.710 -50.782  11.229  1.00  0.00     0.165 HD
HETATM    6  H   UNL     1     -41.993 -48.737  10.083  1.00  0.00     0.172 HD
ENDROOT
BRANCH   3   7
HETATM    7  C   UNL     1     -41.512 -51.449  12.830  1.00  0.00     0.172 C 
HETATM    8  C   UNL     1     -40.004 -51.684  12.747  1.00  0.00     0.034 C 
HETATM    9  C   UNL     1     -39.469 -52.391  13.986  1.00  0.00     0.004 C 
HETATM   10  C   UNL     1     -39.571 -53.909  13.928  1.00  0.00     0.015 C 
HETATM   11  C   UNL     1     -40.776 -54.482  13.197  1.00  0.00     0.095 C 
HETATM   12  N   UNL     1     -42.043 -53.826  13.447  1.00  0.00    -0.261 NA
HETATM   13  C   UNL     1     -42.399 -52.702  12.733  1.00  0.00     0.220 C 
HETATM   14  H   UNL     1     -42.822 -54.475  13.430  1.00  0.00     0.130 HD
HETATM   15  O   UNL     1     -43.490 -52.683  12.159  1.00  0.00    -0.278 OA
ENDBRANCH   3   7
BRANCH   4  16
HETATM   16  C   UNL     1     -42.205 -46.998  11.139  1.00  0.00     0.169 A 
HETATM   17  N   UNL     1     -43.179 -46.230  11.567  1.00  0.00    -0.279 N 
HETATM   18  N   UNL     1     -42.816 -44.897  11.589  1.00  0.00    -0.296 N 
ATOM     19  HN  UNL     1     -44.095 -46.577  11.850  1.00  0.00     0.189 HD
HETATM   20  C   UNL     1     -41.572 -44.724  11.199  1.00  0.00     0.074 A 
ATOM     21  HN  UNL     1     -43.436 -44.140  11.872  1.00  0.00     0.187 HD
HETATM   22  S   UNL     1     -40.780 -46.163  10.693  1.00  0.00    -0.037 SA
BRANCH  20  23
HETATM   23  C   UNL     1     -40.892 -43.355  11.215  1.00  0.00     0.044 A 
HETATM   24  C   UNL     1     -40.116 -42.964  12.461  1.00  0.00     0.012 A 
HETATM   25  C   UNL     1     -41.411 -42.293  12.164  1.00  0.00     0.012 A 
ENDBRANCH  20  23
ENDBRANCH   4  16
TORSDOF 3
ENDMDL
