MODEL 1
REMARK VINA RESULT:      -5.8      0.000      0.000
REMARK  3 active torsions:
REMARK  status: ('A' for Active; 'I' for Inactive)
REMARK    1  A    between atoms: C_2  and  C_3 
REMARK       I    between atoms: C_2  and  N_10 
REMARK    2  A    between atoms: C_3  and  N_4 
REMARK    3  A    between atoms: N_10  and  C_11 
ROOT
HETATM    1  C   UNL     1     -44.032 -52.061  13.400  1.00  0.00     0.122 C 
HETATM    2  C   UNL     1     -45.228 -51.089  13.190  1.00  0.00     0.046 C 
HETATM    3  C   UNL     1     -46.588 -51.564  13.727  1.00  0.00     0.004 C 
HETATM    4  C   UNL     1     -46.861 -51.277  15.200  1.00  0.00     0.000 C 
HETATM    5  C   UNL     1     -45.690 -51.422  16.161  1.00  0.00     0.000 C 
HETATM    6  C   UNL     1     -44.754 -52.591  15.865  1.00  0.00     0.004 C 
HETATM    7  C   UNL     1     -43.630 -52.222  14.886  1.00  0.00     0.046 C 
HETATM    8  C   UNL     1     -44.400 -53.410  12.867  1.00  0.00     0.091 C 
HETATM    9  N   UNL     1     -44.648 -54.446  12.410  1.00  0.00    -0.195 NA
ENDROOT
BRANCH   1  10
HETATM   10  N   UNL     1     -42.862 -51.613  12.580  1.00  0.00    -0.338 N 
HETATM   11  C   UNL     1     -42.106 -50.486  12.802  1.00  0.00     0.237 C 
HETATM   12  O   UNL     1     -42.300 -49.729  13.749  1.00  0.00    -0.272 OA
HETATM   13  H   UNL     1     -42.625 -52.191  11.780  1.00  0.00     0.164 HD
BRANCH  11  14
HETATM   14  C   UNL     1     -41.068 -50.174  11.739  1.00  0.00     0.231 C 
BRANCH  14  15
HETATM   15  N   UNL     1     -40.984 -48.772  11.375  1.00  0.00    -0.343 N 
HETATM   16  C   UNL     1     -40.040 -47.879  11.810  1.00  0.00     0.109 A 
HETATM   17  C   UNL     1     -40.244 -46.749  11.054  1.00  0.00     0.106 A 
HETATM   18  N   UNL     1     -41.292 -46.927  10.189  1.00  0.00    -0.361 N 
HETATM   19  C   UNL     1     -41.709 -48.157  10.394  1.00  0.00     0.182 A 
ATOM     20  HN  UNL     1     -41.668 -46.248   9.527  1.00  0.00     0.166 HD
ENDBRANCH  14  15
ENDBRANCH  11  14
ENDBRANCH   1  10
TORSDOF 3
ENDMDL
MODEL 2
REMARK VINA RESULT:      -5.7      1.855      2.312
REMARK  3 active torsions:
REMARK  status: ('A' for Active; 'I' for Inactive)
REMARK    1  A    between atoms: C_2  and  C_3 
REMARK       I    between atoms: C_2  and  N_10 
REMARK    2  A    between atoms: C_3  and  N_4 
REMARK    3  A    between atoms: N_10  and  C_11 
ROOT
HETATM    1  C   UNL     1     -44.971 -52.648  13.114  1.00  0.00     0.122 C 
HETATM    2  C   UNL     1     -45.001 -51.519  14.184  1.00  0.00     0.046 C 
HETATM    3  C   UNL     1     -46.336 -51.319  14.919  1.00  0.00     0.004 C 
HETATM    4  C   UNL     1     -46.571 -52.212  16.132  1.00  0.00     0.000 C 
HETATM    5  C   UNL     1     -46.087 -53.652  16.035  1.00  0.00     0.000 C 
HETATM    6  C   UNL     1     -46.280 -54.305  14.669  1.00  0.00     0.004 C 
HETATM    7  C   UNL     1     -45.096 -54.067  13.720  1.00  0.00     0.046 C 
HETATM    8  C   UNL     1     -46.106 -52.445  12.160  1.00  0.00     0.091 C 
HETATM    9  N   UNL     1     -46.947 -52.274  11.380  1.00  0.00    -0.195 NA
ENDROOT
BRANCH   1  10
HETATM   10  N   UNL     1     -43.728 -52.532  12.287  1.00  0.00    -0.338 N 
HETATM   11  C   UNL     1     -42.438 -52.542  12.764  1.00  0.00     0.237 C 
HETATM   12  O   UNL     1     -42.168 -52.686  13.953  1.00  0.00    -0.272 OA
HETATM   13  H   UNL     1     -43.861 -52.420  11.288  1.00  0.00     0.164 HD
BRANCH  11  14
HETATM   14  C   UNL     1     -41.358 -52.259  11.736  1.00  0.00     0.231 C 
BRANCH  14  15
HETATM   15  N   UNL     1     -40.673 -50.993  11.917  1.00  0.00    -0.343 N 
HETATM   16  C   UNL     1     -39.593 -50.767  12.731  1.00  0.00     0.109 A 
HETATM   17  C   UNL     1     -39.177 -49.493  12.424  1.00  0.00     0.106 A 
HETATM   18  N   UNL     1     -39.982 -48.938  11.464  1.00  0.00    -0.361 N 
HETATM   19  C   UNL     1     -40.864 -49.867  11.168  1.00  0.00     0.182 A 
ATOM     20  HN  UNL     1     -39.911 -48.003  11.064  1.00  0.00     0.166 HD
ENDBRANCH  14  15
ENDBRANCH  11  14
ENDBRANCH   1  10
TORSDOF 3
ENDMDL
MODEL 3
REMARK VINA RESULT:      -5.6      2.493      3.031
REMARK  3 active torsions:
REMARK  status: ('A' for Active; 'I' for Inactive)
REMARK    1  A    between atoms: C_2  and  C_3 
REMARK       I    between atoms: C_2  and  N_10 
REMARK    2  A    between atoms: C_3  and  N_4 
REMARK    3  A    between atoms: N_10  and  C_11 
ROOT
HETATM    1  C   UNL     1     -42.885 -52.459  14.107  1.00  0.00     0.122 C 
HETATM    2  C   UNL     1     -43.409 -52.535  12.644  1.00  0.00     0.046 C 
HETATM    3  C   UNL     1     -44.721 -53.307  12.435  1.00  0.00     0.004 C 
HETATM    4  C   UNL     1     -46.005 -52.513  12.651  1.00  0.00     0.000 C 
HETATM    5  C   UNL     1     -46.012 -51.507  13.794  1.00  0.00     0.000 C 
HETATM    6  C   UNL     1     -45.279 -51.960  15.054  1.00  0.00     0.004 C 
HETATM    7  C   UNL     1     -43.784 -51.607  15.034  1.00  0.00     0.046 C 
HETATM    8  C   UNL     1     -42.811 -53.843  14.670  1.00  0.00     0.091 C 
HETATM    9  N   UNL     1     -42.696 -54.912  15.105  1.00  0.00    -0.195 NA
ENDROOT
BRANCH   1  10
HETATM   10  N   UNL     1     -41.478 -51.948  14.117  1.00  0.00    -0.338 N 
HETATM   11  C   UNL     1     -40.423 -52.475  13.408  1.00  0.00     0.237 C 
HETATM   12  O   UNL     1     -40.543 -53.428  12.644  1.00  0.00    -0.272 OA
HETATM   13  H   UNL     1     -41.292 -51.151  14.717  1.00  0.00     0.164 HD
BRANCH  11  14
HETATM   14  C   UNL     1     -39.065 -51.866  13.707  1.00  0.00     0.231 C 
BRANCH  14  15
HETATM   15  N   UNL     1     -38.568 -50.970  12.679  1.00  0.00    -0.343 N 
HETATM   16  C   UNL     1     -37.269 -50.869  12.254  1.00  0.00     0.109 A 
HETATM   17  C   UNL     1     -37.319 -50.051  11.150  1.00  0.00     0.106 A 
HETATM   18  N   UNL     1     -38.604 -49.643  10.907  1.00  0.00    -0.361 N 
HETATM   19  C   UNL     1     -39.336 -50.222  11.833  1.00  0.00     0.182 A 
ATOM     20  HN  UNL     1     -38.924 -49.022  10.164  1.00  0.00     0.166 HD
ENDBRANCH  14  15
ENDBRANCH  11  14
ENDBRANCH   1  10
TORSDOF 3
ENDMDL
MODEL 4
REMARK VINA RESULT:      -5.5      1.575      2.192
REMARK  3 active torsions:
REMARK  status: ('A' for Active; 'I' for Inactive)
REMARK    1  A    between atoms: C_2  and  C_3 
REMARK       I    between atoms: C_2  and  N_10 
REMARK    2  A    between atoms: C_3  and  N_4 
REMARK    3  A    between atoms: N_10  and  C_11 
ROOT
HETATM    1  C   UNL     1     -44.036 -52.056  13.433  1.00  0.00     0.122 C 
HETATM    2  C   UNL     1     -45.227 -51.072  13.253  1.00  0.00     0.046 C 
HETATM    3  C   UNL     1     -46.583 -51.545  13.803  1.00  0.00     0.004 C 
HETATM    4  C   UNL     1     -46.833 -51.277  15.283  1.00  0.00     0.000 C 
HETATM    5  C   UNL     1     -45.650 -51.445  16.226  1.00  0.00     0.000 C 
HETATM    6  C   UNL     1     -44.728 -52.616  15.900  1.00  0.00     0.004 C 
HETATM    7  C   UNL     1     -43.614 -52.241  14.911  1.00  0.00     0.046 C 
HETATM    8  C   UNL     1     -44.421 -53.394  12.886  1.00  0.00     0.091 C 
HETATM    9  N   UNL     1     -44.683 -54.422  12.418  1.00  0.00    -0.195 NA
ENDROOT
BRANCH   1  10
HETATM   10  N   UNL     1     -42.874 -51.604  12.603  1.00  0.00    -0.338 N 
HETATM   11  C   UNL     1     -42.171 -50.434  12.769  1.00  0.00     0.237 C 
HETATM   12  O   UNL     1     -42.412 -49.633  13.668  1.00  0.00    -0.272 OA
HETATM   13  H   UNL     1     -42.600 -52.216  11.842  1.00  0.00     0.164 HD
BRANCH  11  14
HETATM   14  C   UNL     1     -41.131 -50.138  11.703  1.00  0.00     0.231 C 
BRANCH  14  15
HETATM   15  N   UNL     1     -39.757 -50.281  12.147  1.00  0.00    -0.343 N 
HETATM   16  C   UNL     1     -39.302 -51.160  13.096  1.00  0.00     0.109 A 
HETATM   17  C   UNL     1     -37.931 -51.072  13.033  1.00  0.00     0.106 A 
HETATM   18  N   UNL     1     -37.547 -50.157  12.089  1.00  0.00    -0.361 N 
HETATM   19  C   UNL     1     -38.665 -49.707  11.562  1.00  0.00     0.182 A 
ATOM     20  HN  UNL     1     -36.595 -49.882  11.846  1.00  0.00     0.166 HD
ENDBRANCH  14  15
ENDBRANCH  11  14
ENDBRANCH   1  10
TORSDOF 3
ENDMDL
MODEL 5
REMARK VINA RESULT:      -5.4      1.429      2.058
REMARK  3 active torsions:
REMARK  status: ('A' for Active; 'I' for Inactive)
REMARK    1  A    between atoms: C_2  and  C_3 
REMARK       I    between atoms: C_2  and  N_10 
REMARK    2  A    between atoms: C_3  and  N_4 
REMARK    3  A    between atoms: N_10  and  C_11 
ROOT
HETATM    1  C   UNL     1     -43.277 -51.808  13.100  1.00  0.00     0.122 C 
HETATM    2  C   UNL     1     -43.888 -53.083  12.454  1.00  0.00     0.046 C 
HETATM    3  C   UNL     1     -44.635 -54.032  13.405  1.00  0.00     0.004 C 
HETATM    4  C   UNL     1     -46.098 -53.696  13.670  1.00  0.00     0.000 C 
HETATM    5  C   UNL     1     -46.458 -52.223  13.800  1.00  0.00     0.000 C 
HETATM    6  C   UNL     1     -45.427 -51.371  14.536  1.00  0.00     0.004 C 
HETATM    7  C   UNL     1     -44.344 -50.807  13.605  1.00  0.00     0.046 C 
HETATM    8  C   UNL     1     -42.426 -52.210  14.263  1.00  0.00     0.091 C 
HETATM    9  N   UNL     1     -41.721 -52.507  15.134  1.00  0.00    -0.195 NA
ENDROOT
BRANCH   1  10
HETATM   10  N   UNL     1     -42.345 -51.145  12.134  1.00  0.00    -0.338 N 
HETATM   11  C   UNL     1     -41.591 -50.021  12.381  1.00  0.00     0.237 C 
HETATM   12  O   UNL     1     -41.583 -49.450  13.468  1.00  0.00    -0.272 OA
HETATM   13  H   UNL     1     -42.282 -51.561  11.210  1.00  0.00     0.164 HD
BRANCH  11  14
HETATM   14  C   UNL     1     -40.840 -49.460  11.187  1.00  0.00     0.231 C 
BRANCH  14  15
HETATM   15  N   UNL     1     -41.204 -48.101  10.832  1.00  0.00    -0.343 N 
HETATM   16  C   UNL     1     -40.495 -46.969  11.138  1.00  0.00     0.109 A 
HETATM   17  C   UNL     1     -41.113 -45.962  10.433  1.00  0.00     0.106 A 
HETATM   18  N   UNL     1     -42.180 -46.450   9.726  1.00  0.00    -0.361 N 
HETATM   19  C   UNL     1     -42.203 -47.741   9.974  1.00  0.00     0.182 A 
ATOM     20  HN  UNL     1     -42.821 -45.922   9.133  1.00  0.00     0.166 HD
ENDBRANCH  14  15
ENDBRANCH  11  14
ENDBRANCH   1  10
TORSDOF 3
ENDMDL
MODEL 6
REMARK VINA RESULT:      -5.4      2.683      3.262
REMARK  3 active torsions:
REMARK  status: ('A' for Active; 'I' for Inactive)
REMARK    1  A    between atoms: C_2  and  C_3 
REMARK       I    between atoms: C_2  and  N_10 
REMARK    2  A    between atoms: C_3  and  N_4 
REMARK    3  A    between atoms: N_10  and  C_11 
ROOT
HETATM    1  C   UNL     1     -44.576 -53.199  14.740  1.00  0.00     0.122 C 
HETATM    2  C   UNL     1     -45.338 -51.961  14.187  1.00  0.00     0.046 C 
HETATM    3  C   UNL     1     -46.835 -51.882  14.526  1.00  0.00     0.004 C 
HETATM    4  C   UNL     1     -47.183 -51.256  15.872  1.00  0.00     0.000 C 
HETATM    5  C   UNL     1     -46.264 -51.576  17.042  1.00  0.00     0.000 C 
HETATM    6  C   UNL     1     -45.746 -53.011  17.080  1.00  0.00     0.004 C 
HETATM    7  C   UNL     1     -44.446 -53.199  16.282  1.00  0.00     0.046 C 
HETATM    8  C   UNL     1     -45.304 -54.441  14.333  1.00  0.00     0.091 C 
HETATM    9  N   UNL     1     -45.825 -55.416  13.981  1.00  0.00    -0.195 NA
ENDROOT
BRANCH   1  10
HETATM   10  N   UNL     1     -43.228 -53.297  14.095  1.00  0.00    -0.338 N 
HETATM   11  C   UNL     1     -42.289 -54.274  14.332  1.00  0.00     0.237 C 
HETATM   12  O   UNL     1     -42.484 -55.214  15.098  1.00  0.00    -0.272 OA
HETATM   13  H   UNL     1     -42.989 -52.562  13.437  1.00  0.00     0.164 HD
BRANCH  11  14
HETATM   14  C   UNL     1     -40.943 -54.064  13.663  1.00  0.00     0.231 C 
BRANCH  14  15
HETATM   15  N   UNL     1     -40.791 -52.777  13.010  1.00  0.00    -0.343 N 
HETATM   16  C   UNL     1     -40.052 -51.719  13.472  1.00  0.00     0.109 A 
HETATM   17  C   UNL     1     -40.045 -50.812  12.439  1.00  0.00     0.106 A 
HETATM   18  N   UNL     1     -40.769 -51.283  11.375  1.00  0.00    -0.361 N 
HETATM   19  C   UNL     1     -41.195 -52.472  11.741  1.00  0.00     0.182 A 
ATOM     20  HN  UNL     1     -40.942 -50.811  10.488  1.00  0.00     0.166 HD
ENDBRANCH  14  15
ENDBRANCH  11  14
ENDBRANCH   1  10
TORSDOF 3
ENDMDL
MODEL 7
REMARK VINA RESULT:      -5.2      3.027      3.471
REMARK  3 active torsions:
REMARK  status: ('A' for Active; 'I' for Inactive)
REMARK    1  A    between atoms: C_2  and  C_3 
REMARK       I    between atoms: C_2  and  N_10 
REMARK    2  A    between atoms: C_3  and  N_4 
REMARK    3  A    between atoms: N_10  and  C_11 
ROOT
HETATM    1  C   UNL     1     -44.520 -53.414  14.894  1.00  0.00     0.122 C 
HETATM    2  C   UNL     1     -45.095 -52.117  14.257  1.00  0.00     0.046 C 
HETATM    3  C   UNL     1     -46.616 -51.927  14.365  1.00  0.00     0.004 C 
HETATM    4  C   UNL     1     -47.119 -51.289  15.655  1.00  0.00     0.000 C 
HETATM    5  C   UNL     1     -46.416 -51.688  16.945  1.00  0.00     0.000 C 
HETATM    6  C   UNL     1     -46.017 -53.159  17.032  1.00  0.00     0.004 C 
HETATM    7  C   UNL     1     -44.628 -53.437  16.438  1.00  0.00     0.046 C 
HETATM    8  C   UNL     1     -45.267 -54.594  14.356  1.00  0.00     0.091 C 
HETATM    9  N   UNL     1     -45.798 -55.523  13.910  1.00  0.00    -0.195 NA
ENDROOT
BRANCH   1  10
HETATM   10  N   UNL     1     -43.100 -53.609  14.460  1.00  0.00    -0.338 N 
HETATM   11  C   UNL     1     -42.639 -53.560  13.164  1.00  0.00     0.237 C 
HETATM   12  O   UNL     1     -43.366 -53.309  12.207  1.00  0.00    -0.272 OA
HETATM   13  H   UNL     1     -42.428 -53.810  15.192  1.00  0.00     0.164 HD
BRANCH  11  14
HETATM   14  C   UNL     1     -41.182 -53.938  12.974  1.00  0.00     0.231 C 
BRANCH  14  15
HETATM   15  N   UNL     1     -40.248 -52.842  13.150  1.00  0.00    -0.343 N 
HETATM   16  C   UNL     1     -40.296 -51.630  12.512  1.00  0.00     0.109 A 
HETATM   17  C   UNL     1     -39.343 -50.861  13.138  1.00  0.00     0.106 A 
HETATM   18  N   UNL     1     -38.712 -51.576  14.121  1.00  0.00    -0.361 N 
HETATM   19  C   UNL     1     -39.285 -52.760  14.115  1.00  0.00     0.182 A 
ATOM     20  HN  UNL     1     -37.957 -51.258  14.728  1.00  0.00     0.166 HD
ENDBRANCH  14  15
ENDBRANCH  11  14
ENDBRANCH   1  10
TORSDOF 3
ENDMDL
MODEL 8
REMARK VINA RESULT:      -5.1      2.251      6.351
REMARK  3 active torsions:
REMARK  status: ('A' for Active; 'I' for Inactive)
REMARK    1  A    between atoms: C_2  and  C_3 
REMARK       I    between atoms: C_2  and  N_10 
REMARK    2  A    between atoms: C_3  and  N_4 
REMARK    3  A    between atoms: N_10  and  C_11 
ROOT
HETATM    1  C   UNL     1     -41.881 -48.383  11.412  1.00  0.00     0.122 C 
HETATM    2  C   UNL     1     -40.403 -47.900  11.451  1.00  0.00     0.046 C 
HETATM    3  C   UNL     1     -40.175 -46.399  11.209  1.00  0.00     0.004 C 
HETATM    4  C   UNL     1     -40.301 -45.498  12.432  1.00  0.00     0.000 C 
HETATM    5  C   UNL     1     -41.396 -45.841  13.433  1.00  0.00     0.000 C 
HETATM    6  C   UNL     1     -42.704 -46.326  12.816  1.00  0.00     0.004 C 
HETATM    7  C   UNL     1     -42.731 -47.845  12.589  1.00  0.00     0.046 C 
HETATM    8  C   UNL     1     -42.510 -47.925  10.135  1.00  0.00     0.091 C 
HETATM    9  N   UNL     1     -42.998 -47.625   9.126  1.00  0.00    -0.195 NA
ENDROOT
BRANCH   1  10
HETATM   10  N   UNL     1     -41.926 -49.879  11.366  1.00  0.00    -0.338 N 
HETATM   11  C   UNL     1     -41.476 -50.730  12.349  1.00  0.00     0.237 C 
HETATM   12  O   UNL     1     -41.007 -50.332  13.412  1.00  0.00    -0.272 OA
HETATM   13  H   UNL     1     -42.311 -50.292  10.524  1.00  0.00     0.164 HD
BRANCH  11  14
HETATM   14  C   UNL     1     -41.498 -52.206  11.996  1.00  0.00     0.231 C 
BRANCH  14  15
HETATM   15  N   UNL     1     -42.463 -52.989  12.746  1.00  0.00    -0.343 N 
HETATM   16  C   UNL     1     -43.791 -53.139  12.443  1.00  0.00     0.109 A 
HETATM   17  C   UNL     1     -44.244 -54.110  13.303  1.00  0.00     0.106 A 
HETATM   18  N   UNL     1     -43.236 -54.538  14.126  1.00  0.00    -0.361 N 
HETATM   19  C   UNL     1     -42.173 -53.857  13.759  1.00  0.00     0.182 A 
ATOM     20  HN  UNL     1     -43.297 -55.237  14.866  1.00  0.00     0.166 HD
ENDBRANCH  14  15
ENDBRANCH  11  14
ENDBRANCH   1  10
TORSDOF 3
ENDMDL
MODEL 9
REMARK VINA RESULT:      -5.0      3.775      5.281
REMARK  3 active torsions:
REMARK  status: ('A' for Active; 'I' for Inactive)
REMARK    1  A    between atoms: C_2  and  C_3 
REMARK       I    between atoms: C_2  and  N_10 
REMARK    2  A    between atoms: C_3  and  N_4 
REMARK    3  A    between atoms: N_10  and  C_11 
ROOT
HETATM    1  C   UNL     1     -43.497 -52.902  14.360  1.00  0.00     0.122 C 
HETATM    2  C   UNL     1     -43.919 -52.640  12.886  1.00  0.00     0.046 C 
HETATM    3  C   UNL     1     -45.332 -53.102  12.495  1.00  0.00     0.004 C 
HETATM    4  C   UNL     1     -46.461 -52.122  12.793  1.00  0.00     0.000 C 
HETATM    5  C   UNL     1     -46.367 -51.331  14.090  1.00  0.00     0.000 C 
HETATM    6  C   UNL     1     -45.821 -52.112  15.282  1.00  0.00     0.004 C 
HETATM    7  C   UNL     1     -44.289 -52.054  15.383  1.00  0.00     0.046 C 
HETATM    8  C   UNL     1     -43.717 -54.347  14.680  1.00  0.00     0.091 C 
HETATM    9  N   UNL     1     -43.830 -55.474  14.930  1.00  0.00    -0.195 NA
ENDROOT
BRANCH   1  10
HETATM   10  N   UNL     1     -42.024 -52.679  14.514  1.00  0.00    -0.338 N 
HETATM   11  C   UNL     1     -41.034 -53.301  13.790  1.00  0.00     0.237 C 
HETATM   12  O   UNL     1     -41.269 -54.103  12.891  1.00  0.00    -0.272 OA
HETATM   13  H   UNL     1     -41.741 -52.020  15.231  1.00  0.00     0.164 HD
BRANCH  11  14
HETATM   14  C   UNL     1     -39.613 -53.012  14.241  1.00  0.00     0.231 C 
BRANCH  14  15
HETATM   15  N   UNL     1     -39.141 -53.859  15.321  1.00  0.00    -0.343 N 
HETATM   16  C   UNL     1     -38.814 -55.186  15.223  1.00  0.00     0.109 A 
HETATM   17  C   UNL     1     -38.240 -55.500  16.432  1.00  0.00     0.106 A 
HETATM   18  N   UNL     1     -38.226 -54.409  17.261  1.00  0.00    -0.361 N 
HETATM   19  C   UNL     1     -38.762 -53.433  16.562  1.00  0.00     0.182 A 
ATOM     20  HN  UNL     1     -37.875 -54.365  18.217  1.00  0.00     0.166 HD
ENDBRANCH  14  15
ENDBRANCH  11  14
ENDBRANCH   1  10
TORSDOF 3
ENDMDL
