MODEL 1
REMARK VINA RESULT:      -4.3      0.000      0.000
REMARK  4 active torsions:
REMARK  status: ('A' for Active; 'I' for Inactive)
REMARK    1  A    between atoms: N_3  and  C_4 
REMARK    2  A    between atoms: C_4  and  C_5 
REMARK    3  A    between atoms: C_5  and  C_6 
REMARK    4  A    between atoms: C_9  and  N_10 
ROOT
HETATM    1  C   UNL     2     -42.152 -47.329  10.091  1.00  0.00     0.019 A 
HETATM    2  C   UNL     2     -42.746 -46.071  10.149  1.00  0.00     0.078 A 
HETATM    3  S   UNL     2     -43.923 -45.986   8.947  1.00  0.00    -0.064 SA
HETATM    4  C   UNL     2     -43.618 -47.550   8.413  1.00  0.00     0.142 A 
HETATM    5  N   UNL     2     -42.642 -48.152   9.123  1.00  0.00    -0.340 N 
ATOM      6  HN  UNL     2     -42.312 -49.103   8.956  1.00  0.00     0.167 HD
ENDROOT
BRANCH   1   7
HETATM    7  C   UNL     2     -41.059 -47.768  11.023  1.00  0.00     0.087 C 
BRANCH   7   8
HETATM    8  C   UNL     2     -41.145 -49.266  11.333  1.00  0.00     0.272 C 
BRANCH   8   9
HETATM    9  N   UNL     2     -40.235 -50.029  10.485  1.00  0.00     0.078 N 
HETATM   10  H   UNL     2     -39.947 -50.893  10.998  1.00  0.00     0.312 HD
HETATM   11  H   UNL     2     -39.374 -49.461  10.310  1.00  0.00     0.312 HD
ENDBRANCH   8   9
ENDBRANCH   7   8
ENDBRANCH   1   7
BRANCH   4  12
HETATM   12  N   UNL     2     -44.299 -48.178   7.348  1.00  0.00    -0.380 N 
HETATM   13  H   UNL     2     -45.239 -47.863   7.075  1.00  0.00     0.158 HD
HETATM   14  H   UNL     2     -43.856 -48.955   6.837  1.00  0.00     0.158 HD
ENDBRANCH   4  12
TORSDOF 4
ENDMDL
MODEL 2
REMARK VINA RESULT:      -4.1      1.797      3.873
REMARK  4 active torsions:
REMARK  status: ('A' for Active; 'I' for Inactive)
REMARK    1  A    between atoms: N_3  and  C_4 
REMARK    2  A    between atoms: C_4  and  C_5 
REMARK    3  A    between atoms: C_5  and  C_6 
REMARK    4  A    between atoms: C_9  and  N_10 
ROOT
HETATM    1  C   UNL     2     -43.085 -47.249   9.936  1.00  0.00     0.019 A 
HETATM    2  C   UNL     2     -42.861 -46.839  11.249  1.00  0.00     0.078 A 
HETATM    3  S   UNL     2     -41.649 -47.807  11.905  1.00  0.00    -0.064 SA
HETATM    4  C   UNL     2     -41.470 -48.697  10.491  1.00  0.00     0.142 A 
HETATM    5  N   UNL     2     -42.307 -48.285   9.517  1.00  0.00    -0.340 N 
ATOM      6  HN  UNL     2     -42.350 -48.695   8.584  1.00  0.00     0.167 HD
ENDROOT
BRANCH   1   7
HETATM    7  C   UNL     2     -44.098 -46.605   9.034  1.00  0.00     0.087 C 
BRANCH   7   8
HETATM    8  C   UNL     2     -45.450 -47.323   9.095  1.00  0.00     0.272 C 
BRANCH   8   9
HETATM    9  N   UNL     2     -45.560 -48.324   8.039  1.00  0.00     0.078 N 
HETATM   10  H   UNL     2     -44.858 -48.102   7.296  1.00  0.00     0.312 HD
HETATM   11  H   UNL     2     -46.511 -48.260   7.606  1.00  0.00     0.312 HD
ENDBRANCH   8   9
ENDBRANCH   7   8
ENDBRANCH   1   7
BRANCH   4  12
HETATM   12  N   UNL     2     -40.553 -49.757  10.323  1.00  0.00    -0.380 N 
HETATM   13  H   UNL     2     -39.803 -49.908  11.012  1.00  0.00     0.158 HD
HETATM   14  H   UNL     2     -40.630 -50.385   9.511  1.00  0.00     0.158 HD
ENDBRANCH   4  12
TORSDOF 4
ENDMDL
MODEL 3
REMARK VINA RESULT:      -4.0      6.108      7.444
REMARK  4 active torsions:
REMARK  status: ('A' for Active; 'I' for Inactive)
REMARK    1  A    between atoms: N_3  and  C_4 
REMARK    2  A    between atoms: C_4  and  C_5 
REMARK    3  A    between atoms: C_5  and  C_6 
REMARK    4  A    between atoms: C_9  and  N_10 
ROOT
HETATM    1  C   UNL     2     -43.369 -53.529  12.745  1.00  0.00     0.019 A 
HETATM    2  C   UNL     2     -42.397 -54.113  13.555  1.00  0.00     0.078 A 
HETATM    3  S   UNL     2     -40.908 -53.420  13.178  1.00  0.00    -0.064 SA
HETATM    4  C   UNL     2     -41.573 -52.414  12.007  1.00  0.00     0.142 A 
HETATM    5  N   UNL     2     -42.906 -52.581  11.884  1.00  0.00    -0.340 N 
ATOM      6  HN  UNL     2     -43.493 -52.062  11.231  1.00  0.00     0.167 HD
ENDROOT
BRANCH   1   7
HETATM    7  C   UNL     2     -44.823 -53.896  12.809  1.00  0.00     0.087 C 
BRANCH   7   8
HETATM    8  C   UNL     2     -45.100 -54.923  13.912  1.00  0.00     0.272 C 
BRANCH   8   9
HETATM    9  N   UNL     2     -46.511 -54.921  14.287  1.00  0.00     0.078 N 
HETATM   10  H   UNL     2     -46.769 -55.879  14.618  1.00  0.00     0.312 HD
HETATM   11  H   UNL     2     -47.088 -54.711  13.440  1.00  0.00     0.312 HD
ENDBRANCH   8   9
ENDBRANCH   7   8
ENDBRANCH   1   7
BRANCH   4  12
HETATM   12  N   UNL     2     -40.835 -51.493  11.232  1.00  0.00    -0.380 N 
HETATM   13  H   UNL     2     -40.467 -51.766  10.311  1.00  0.00     0.158 HD
HETATM   14  H   UNL     2     -40.663 -50.541  11.585  1.00  0.00     0.158 HD
ENDBRANCH   4  12
TORSDOF 4
ENDMDL
MODEL 4
REMARK VINA RESULT:      -3.9      4.420      5.983
REMARK  4 active torsions:
REMARK  status: ('A' for Active; 'I' for Inactive)
REMARK    1  A    between atoms: N_3  and  C_4 
REMARK    2  A    between atoms: C_4  and  C_5 
REMARK    3  A    between atoms: C_5  and  C_6 
REMARK    4  A    between atoms: C_9  and  N_10 
ROOT
HETATM    1  C   UNL     2     -40.531 -52.412  12.670  1.00  0.00     0.019 A 
HETATM    2  C   UNL     2     -39.954 -51.541  13.591  1.00  0.00     0.078 A 
HETATM    3  S   UNL     2     -39.769 -50.038  12.853  1.00  0.00    -0.064 SA
HETATM    4  C   UNL     2     -40.429 -50.569  11.402  1.00  0.00     0.142 A 
HETATM    5  N   UNL     2     -40.796 -51.866  11.450  1.00  0.00    -0.340 N 
ATOM      6  HN  UNL     2     -41.219 -52.374  10.673  1.00  0.00     0.167 HD
ENDROOT
BRANCH   1   7
HETATM    7  C   UNL     2     -40.853 -53.845  12.982  1.00  0.00     0.087 C 
BRANCH   7   8
HETATM    8  C   UNL     2     -40.009 -54.375  14.146  1.00  0.00     0.272 C 
BRANCH   8   9
HETATM    9  N   UNL     2     -38.784 -55.003  13.662  1.00  0.00     0.078 N 
HETATM   10  H   UNL     2     -38.697 -55.947  14.104  1.00  0.00     0.312 HD
HETATM   11  H   UNL     2     -37.964 -54.431  13.969  1.00  0.00     0.312 HD
ENDBRANCH   8   9
ENDBRANCH   7   8
ENDBRANCH   1   7
BRANCH   4  12
HETATM   12  N   UNL     2     -40.592 -49.763  10.254  1.00  0.00    -0.380 N 
HETATM   13  H   UNL     2     -40.979 -48.813  10.338  1.00  0.00     0.158 HD
HETATM   14  H   UNL     2     -40.323 -50.122   9.327  1.00  0.00     0.158 HD
ENDBRANCH   4  12
TORSDOF 4
ENDMDL
MODEL 5
REMARK VINA RESULT:      -3.9      5.982      6.603
REMARK  4 active torsions:
REMARK  status: ('A' for Active; 'I' for Inactive)
REMARK    1  A    between atoms: N_3  and  C_4 
REMARK    2  A    between atoms: C_4  and  C_5 
REMARK    3  A    between atoms: C_5  and  C_6 
REMARK    4  A    between atoms: C_9  and  N_10 
ROOT
HETATM    1  C   UNL     2     -43.856 -53.366  13.199  1.00  0.00     0.019 A 
HETATM    2  C   UNL     2     -44.576 -53.537  14.379  1.00  0.00     0.078 A 
HETATM    3  S   UNL     2     -46.164 -53.048  14.104  1.00  0.00    -0.064 SA
HETATM    4  C   UNL     2     -45.857 -52.644  12.502  1.00  0.00     0.142 A 
HETATM    5  N   UNL     2     -44.573 -52.870  12.154  1.00  0.00    -0.340 N 
ATOM      6  HN  UNL     2     -44.189 -52.691  11.226  1.00  0.00     0.167 HD
ENDROOT
BRANCH   1   7
HETATM    7  C   UNL     2     -42.399 -53.707  13.067  1.00  0.00     0.087 C 
BRANCH   7   8
HETATM    8  C   UNL     2     -41.580 -52.511  12.570  1.00  0.00     0.272 C 
BRANCH   8   9
HETATM    9  N   UNL     2     -41.222 -52.670  11.164  1.00  0.00     0.078 N 
HETATM   10  H   UNL     2     -41.469 -51.790  10.656  1.00  0.00     0.312 HD
HETATM   11  H   UNL     2     -41.791 -53.445  10.753  1.00  0.00     0.312 HD
ENDBRANCH   8   9
ENDBRANCH   7   8
ENDBRANCH   1   7
BRANCH   4  12
HETATM   12  N   UNL     2     -46.820 -52.130  11.608  1.00  0.00    -0.380 N 
HETATM   13  H   UNL     2     -46.720 -52.278  10.594  1.00  0.00     0.158 HD
HETATM   14  H   UNL     2     -47.630 -51.603  11.965  1.00  0.00     0.158 HD
ENDBRANCH   4  12
TORSDOF 4
ENDMDL
MODEL 6
REMARK VINA RESULT:      -3.8      1.784      2.418
REMARK  4 active torsions:
REMARK  status: ('A' for Active; 'I' for Inactive)
REMARK    1  A    between atoms: N_3  and  C_4 
REMARK    2  A    between atoms: C_4  and  C_5 
REMARK    3  A    between atoms: C_5  and  C_6 
REMARK    4  A    between atoms: C_9  and  N_10 
ROOT
HETATM    1  C   UNL     2     -41.462 -49.089  11.178  1.00  0.00     0.019 A 
HETATM    2  C   UNL     2     -42.372 -48.568  12.096  1.00  0.00     0.078 A 
HETATM    3  S   UNL     2     -43.308 -47.408  11.311  1.00  0.00    -0.064 SA
HETATM    4  C   UNL     2     -42.512 -47.627   9.847  1.00  0.00     0.142 A 
HETATM    5  N   UNL     2     -41.544 -48.563   9.925  1.00  0.00    -0.340 N 
ATOM      6  HN  UNL     2     -40.950 -48.842   9.144  1.00  0.00     0.167 HD
ENDROOT
BRANCH   1   7
HETATM    7  C   UNL     2     -40.465 -50.158  11.523  1.00  0.00     0.087 C 
BRANCH   7   8
HETATM    8  C   UNL     2     -41.143 -51.391  12.130  1.00  0.00     0.272 C 
BRANCH   8   9
HETATM    9  N   UNL     2     -41.198 -52.486  11.167  1.00  0.00     0.078 N 
HETATM   10  H   UNL     2     -41.315 -53.384  11.690  1.00  0.00     0.312 HD
HETATM   11  H   UNL     2     -40.288 -52.533  10.653  1.00  0.00     0.312 HD
ENDBRANCH   8   9
ENDBRANCH   7   8
ENDBRANCH   1   7
BRANCH   4  12
HETATM   12  N   UNL     2     -42.810 -46.921   8.661  1.00  0.00    -0.380 N 
HETATM   13  H   UNL     2     -42.679 -45.902   8.617  1.00  0.00     0.158 HD
HETATM   14  H   UNL     2     -43.160 -47.424   7.834  1.00  0.00     0.158 HD
ENDBRANCH   4  12
TORSDOF 4
ENDMDL
MODEL 7
REMARK VINA RESULT:      -3.7      2.429      3.495
REMARK  4 active torsions:
REMARK  status: ('A' for Active; 'I' for Inactive)
REMARK    1  A    between atoms: N_3  and  C_4 
REMARK    2  A    between atoms: C_4  and  C_5 
REMARK    3  A    between atoms: C_5  and  C_6 
REMARK    4  A    between atoms: C_9  and  N_10 
ROOT
HETATM    1  C   UNL     2     -40.130 -49.625  11.751  1.00  0.00     0.019 A 
HETATM    2  C   UNL     2     -40.874 -49.110  12.811  1.00  0.00     0.078 A 
HETATM    3  S   UNL     2     -42.176 -48.251  12.175  1.00  0.00    -0.064 SA
HETATM    4  C   UNL     2     -41.730 -48.575  10.588  1.00  0.00     0.142 A 
HETATM    5  N   UNL     2     -40.612 -49.326  10.513  1.00  0.00    -0.340 N 
ATOM      6  HN  UNL     2     -40.181 -49.631   9.639  1.00  0.00     0.167 HD
ENDROOT
BRANCH   1   7
HETATM    7  C   UNL     2     -38.894 -50.456  11.939  1.00  0.00     0.087 C 
BRANCH   7   8
HETATM    8  C   UNL     2     -37.633 -49.705  11.497  1.00  0.00     0.272 C 
BRANCH   8   9
HETATM    9  N   UNL     2     -37.189 -50.158  10.182  1.00  0.00     0.078 N 
HETATM   10  H   UNL     2     -36.144 -50.188  10.177  1.00  0.00     0.312 HD
HETATM   11  H   UNL     2     -37.491 -49.462   9.462  1.00  0.00     0.312 HD
ENDBRANCH   8   9
ENDBRANCH   7   8
ENDBRANCH   1   7
BRANCH   4  12
HETATM   12  N   UNL     2     -42.435 -48.124   9.451  1.00  0.00    -0.380 N 
HETATM   13  H   UNL     2     -42.986 -48.785   8.886  1.00  0.00     0.158 HD
HETATM   14  H   UNL     2     -42.403 -47.131   9.182  1.00  0.00     0.158 HD
ENDBRANCH   4  12
TORSDOF 4
ENDMDL
MODEL 8
REMARK VINA RESULT:      -3.6      4.861      5.505
REMARK  4 active torsions:
REMARK  status: ('A' for Active; 'I' for Inactive)
REMARK    1  A    between atoms: N_3  and  C_4 
REMARK    2  A    between atoms: C_4  and  C_5 
REMARK    3  A    between atoms: C_5  and  C_6 
REMARK    4  A    between atoms: C_9  and  N_10 
ROOT
HETATM    1  C   UNL     2     -40.415 -50.963  12.074  1.00  0.00     0.019 A 
HETATM    2  C   UNL     2     -39.914 -51.783  13.083  1.00  0.00     0.078 A 
HETATM    3  S   UNL     2     -41.057 -52.977  13.410  1.00  0.00    -0.064 SA
HETATM    4  C   UNL     2     -42.128 -52.393  12.254  1.00  0.00     0.142 A 
HETATM    5  N   UNL     2     -41.649 -51.308  11.613  1.00  0.00    -0.340 N 
ATOM      6  HN  UNL     2     -42.148 -50.808  10.876  1.00  0.00     0.167 HD
ENDROOT
BRANCH   1   7
HETATM    7  C   UNL     2     -39.661 -49.790  11.517  1.00  0.00     0.087 C 
BRANCH   7   8
HETATM    8  C   UNL     2     -38.150 -49.938  11.721  1.00  0.00     0.272 C 
BRANCH   8   9
HETATM    9  N   UNL     2     -37.454 -50.018  10.440  1.00  0.00     0.078 N 
HETATM   10  H   UNL     2     -37.574 -50.983  10.056  1.00  0.00     0.312 HD
HETATM   11  H   UNL     2     -36.431 -49.863  10.598  1.00  0.00     0.312 HD
ENDBRANCH   8   9
ENDBRANCH   7   8
ENDBRANCH   1   7
BRANCH   4  12
HETATM   12  N   UNL     2     -43.389 -52.963  11.972  1.00  0.00    -0.380 N 
HETATM   13  H   UNL     2     -43.455 -53.830  11.422  1.00  0.00     0.158 HD
HETATM   14  H   UNL     2     -44.249 -52.515  12.318  1.00  0.00     0.158 HD
ENDBRANCH   4  12
TORSDOF 4
ENDMDL
MODEL 9
REMARK VINA RESULT:      -3.6      2.621      4.189
REMARK  4 active torsions:
REMARK  status: ('A' for Active; 'I' for Inactive)
REMARK    1  A    between atoms: N_3  and  C_4 
REMARK    2  A    between atoms: C_4  and  C_5 
REMARK    3  A    between atoms: C_5  and  C_6 
REMARK    4  A    between atoms: C_9  and  N_10 
ROOT
HETATM    1  C   UNL     2     -42.849 -46.870  10.748  1.00  0.00     0.019 A 
HETATM    2  C   UNL     2     -42.623 -46.582  12.092  1.00  0.00     0.078 A 
HETATM    3  S   UNL     2     -41.090 -45.899  12.235  1.00  0.00    -0.064 SA
HETATM    4  C   UNL     2     -40.792 -46.003  10.584  1.00  0.00     0.142 A 
HETATM    5  N   UNL     2     -41.827 -46.544   9.910  1.00  0.00    -0.340 N 
ATOM      6  HN  UNL     2     -41.842 -46.690   8.900  1.00  0.00     0.167 HD
ENDROOT
BRANCH   1   7
HETATM    7  C   UNL     2     -44.122 -47.485  10.241  1.00  0.00     0.087 C 
BRANCH   7   8
HETATM    8  C   UNL     2     -44.457 -47.007   8.824  1.00  0.00     0.272 C 
BRANCH   8   9
HETATM    9  N   UNL     2     -45.526 -46.013   8.845  1.00  0.00     0.078 N 
HETATM   10  H   UNL     2     -45.757 -45.751   7.860  1.00  0.00     0.312 HD
HETATM   11  H   UNL     2     -45.181 -45.153   9.331  1.00  0.00     0.312 HD
ENDBRANCH   8   9
ENDBRANCH   7   8
ENDBRANCH   1   7
BRANCH   4  12
HETATM   12  N   UNL     2     -39.601 -45.575   9.958  1.00  0.00    -0.380 N 
HETATM   13  H   UNL     2     -39.541 -44.635   9.544  1.00  0.00     0.158 HD
HETATM   14  H   UNL     2     -38.785 -46.201   9.914  1.00  0.00     0.158 HD
ENDBRANCH   4  12
TORSDOF 4
ENDMDL
