MODEL 1
REMARK VINA RESULT:      -6.6      0.000      0.000
REMARK  5 active torsions:
REMARK  status: ('A' for Active; 'I' for Inactive)
REMARK    1  A    between atoms: C_2  and  N_3 
REMARK    2  A    between atoms: C_5  and  N_6 
REMARK       I    between atoms: N_6  and  C_7 
REMARK       I    between atoms: C_7  and  N_9 
REMARK    3  A    between atoms: N_9  and  C_10 
REMARK    4  A    between atoms: C_10  and  C_11 
REMARK    5  A    between atoms: C_11  and  N_12 
ROOT
HETATM    1  N   UNL     1     -41.053 -51.155  11.278  1.00  0.00    -0.306 N 
HETATM    2  C   UNL     1     -41.702 -51.750  12.336  1.00  0.00     0.320 C 
HETATM    3  O   UNL     1     -42.043 -51.196  13.374  1.00  0.00    -0.247 OA
HETATM    4  N   UNL     1     -41.954 -53.087  12.150  1.00  0.00    -0.341 N 
HETATM    5  H   UNL     1     -40.873 -51.710  10.447  1.00  0.00     0.171 HD
HETATM    6  H   UNL     1     -41.774 -53.537  11.255  1.00  0.00     0.164 HD
ENDROOT
BRANCH   1   7
HETATM    7  C   UNL     1     -40.666 -49.821  11.262  1.00  0.00     0.070 A 
HETATM    8  C   UNL     1     -41.431 -48.745  10.893  1.00  0.00     0.141 A 
HETATM    9  N   UNL     1     -40.647 -47.640  11.018  1.00  0.00    -0.302 N 
HETATM   10  N   UNL     1     -39.405 -47.917  11.462  1.00  0.00    -0.308 N 
HETATM   11  C   UNL     1     -39.421 -49.249  11.609  1.00  0.00     0.138 A 
ATOM     12  HN  UNL     1     -38.639 -47.269  11.643  1.00  0.00     0.186 HD
BRANCH   9  13
HETATM   13  C   UNL     1     -41.042 -46.288  10.677  1.00  0.00     0.143 C 
HETATM   14  C   UNL     1     -39.856 -45.347  10.568  1.00  0.00     0.028 C 
ENDBRANCH   9  13
ENDBRANCH   1   7
BRANCH   4  15
HETATM   15  C   UNL     1     -42.713 -53.808  13.158  1.00  0.00     0.144 C 
BRANCH  15  16
HETATM   16  C   UNL     1     -44.152 -54.183  12.758  1.00  0.00     0.145 C 
BRANCH  16  17
HETATM   17  N   UNL     1     -45.154 -53.499  13.586  1.00  0.00    -0.351 N 
HETATM   18  C   UNL     1     -45.251 -53.846  15.004  1.00  0.00     0.126 C 
HETATM   19  C   UNL     1     -44.830 -52.701  15.911  1.00  0.00     0.020 C 
HETATM   20  C   UNL     1     -45.964 -51.720  16.207  1.00  0.00     0.002 C 
HETATM   21  C   UNL     1     -46.959 -51.483  15.072  1.00  0.00     0.009 C 
HETATM   22  C   UNL     1     -46.311 -51.321  13.713  1.00  0.00     0.103 C 
HETATM   23  C   UNL     1     -46.002 -52.601  12.963  1.00  0.00     0.219 C 
HETATM   24  O   UNL     1     -46.285 -52.693  11.764  1.00  0.00    -0.273 OA
ENDBRANCH  16  17
ENDBRANCH  15  16
ENDBRANCH   4  15
TORSDOF 5
ENDMDL
MODEL 2
REMARK VINA RESULT:      -6.5      2.425      4.031
REMARK  5 active torsions:
REMARK  status: ('A' for Active; 'I' for Inactive)
REMARK    1  A    between atoms: C_2  and  N_3 
REMARK    2  A    between atoms: C_5  and  N_6 
REMARK       I    between atoms: N_6  and  C_7 
REMARK       I    between atoms: C_7  and  N_9 
REMARK    3  A    between atoms: N_9  and  C_10 
REMARK    4  A    between atoms: C_10  and  C_11 
REMARK    5  A    between atoms: C_11  and  N_12 
ROOT
HETATM    1  N   UNL     1     -41.432 -48.814  10.198  1.00  0.00    -0.306 N 
HETATM    2  C   UNL     1     -41.320 -49.538  11.364  1.00  0.00     0.320 C 
HETATM    3  O   UNL     1     -41.940 -49.332  12.401  1.00  0.00    -0.247 OA
HETATM    4  N   UNL     1     -40.409 -50.563  11.293  1.00  0.00    -0.341 N 
HETATM    5  H   UNL     1     -40.903 -49.118   9.388  1.00  0.00     0.171 HD
HETATM    6  H   UNL     1     -39.965 -50.814  10.413  1.00  0.00     0.164 HD
ENDROOT
BRANCH   1   7
HETATM    7  C   UNL     1     -42.264 -47.711  10.052  1.00  0.00     0.070 A 
HETATM    8  C   UNL     1     -43.484 -47.676   9.427  1.00  0.00     0.141 A 
HETATM    9  N   UNL     1     -43.934 -46.395   9.509  1.00  0.00    -0.302 N 
HETATM   10  N   UNL     1     -43.088 -45.575  10.164  1.00  0.00    -0.308 N 
HETATM   11  C   UNL     1     -42.070 -46.383  10.493  1.00  0.00     0.138 A 
ATOM     12  HN  UNL     1     -43.197 -44.581  10.363  1.00  0.00     0.186 HD
BRANCH   9  13
HETATM   13  C   UNL     1     -45.165 -45.899   8.928  1.00  0.00     0.143 C 
HETATM   14  C   UNL     1     -46.302 -46.898   9.038  1.00  0.00     0.028 C 
ENDBRANCH   9  13
ENDBRANCH   1   7
BRANCH   4  15
HETATM   15  C   UNL     1     -40.265 -51.456  12.432  1.00  0.00     0.144 C 
BRANCH  15  16
HETATM   16  C   UNL     1     -40.837 -52.872  12.237  1.00  0.00     0.145 C 
BRANCH  16  17
HETATM   17  N   UNL     1     -41.968 -53.141  13.134  1.00  0.00    -0.351 N 
HETATM   18  C   UNL     1     -43.278 -52.583  12.802  1.00  0.00     0.126 C 
HETATM   19  C   UNL     1     -44.292 -53.656  12.443  1.00  0.00     0.020 C 
HETATM   20  C   UNL     1     -44.998 -54.250  13.662  1.00  0.00     0.002 C 
HETATM   21  C   UNL     1     -44.155 -54.374  14.930  1.00  0.00     0.009 C 
HETATM   22  C   UNL     1     -42.754 -54.894  14.687  1.00  0.00     0.103 C 
HETATM   23  C   UNL     1     -41.718 -53.862  14.289  1.00  0.00     0.219 C 
HETATM   24  O   UNL     1     -40.606 -53.869  14.827  1.00  0.00    -0.273 OA
ENDBRANCH  16  17
ENDBRANCH  15  16
ENDBRANCH   4  15
TORSDOF 5
ENDMDL
MODEL 3
REMARK VINA RESULT:      -6.4      3.004      5.123
REMARK  5 active torsions:
REMARK  status: ('A' for Active; 'I' for Inactive)
REMARK    1  A    between atoms: C_2  and  N_3 
REMARK    2  A    between atoms: C_5  and  N_6 
REMARK       I    between atoms: N_6  and  C_7 
REMARK       I    between atoms: C_7  and  N_9 
REMARK    3  A    between atoms: N_9  and  C_10 
REMARK    4  A    between atoms: C_10  and  C_11 
REMARK    5  A    between atoms: C_11  and  N_12 
ROOT
HETATM    1  N   UNL     1     -41.860 -48.235   9.797  1.00  0.00    -0.306 N 
HETATM    2  C   UNL     1     -41.342 -48.444  11.055  1.00  0.00     0.320 C 
HETATM    3  O   UNL     1     -41.762 -47.955  12.096  1.00  0.00    -0.247 OA
HETATM    4  N   UNL     1     -40.253 -49.280  11.073  1.00  0.00    -0.341 N 
HETATM    5  H   UNL     1     -41.456 -48.742   9.017  1.00  0.00     0.171 HD
HETATM    6  H   UNL     1     -39.956 -49.777  10.235  1.00  0.00     0.164 HD
ENDROOT
BRANCH   1   7
HETATM    7  C   UNL     1     -42.938 -47.398   9.536  1.00  0.00     0.070 A 
HETATM    8  C   UNL     1     -44.253 -47.764   9.408  1.00  0.00     0.141 A 
HETATM    9  N   UNL     1     -44.956 -46.630   9.143  1.00  0.00    -0.302 N 
HETATM   10  N   UNL     1     -44.185 -45.525   9.099  1.00  0.00    -0.308 N 
HETATM   11  C   UNL     1     -42.954 -45.999   9.339  1.00  0.00     0.138 A 
ATOM     12  HN  UNL     1     -44.470 -44.562   8.926  1.00  0.00     0.186 HD
BRANCH   9  13
HETATM   13  C   UNL     1     -46.379 -46.567   8.880  1.00  0.00     0.143 C 
HETATM   14  C   UNL     1     -47.055 -47.919   9.011  1.00  0.00     0.028 C 
ENDBRANCH   9  13
ENDBRANCH   1   7
BRANCH   4  15
HETATM   15  C   UNL     1     -39.669 -49.650  12.352  1.00  0.00     0.144 C 
BRANCH  15  16
HETATM   16  C   UNL     1     -39.291 -51.134  12.500  1.00  0.00     0.145 C 
BRANCH  16  17
HETATM   17  N   UNL     1     -40.354 -51.916  13.144  1.00  0.00    -0.351 N 
HETATM   18  C   UNL     1     -41.569 -51.228  13.580  1.00  0.00     0.126 C 
HETATM   19  C   UNL     1     -42.791 -51.648  12.781  1.00  0.00     0.020 C 
HETATM   20  C   UNL     1     -43.465 -52.907  13.326  1.00  0.00     0.002 C 
HETATM   21  C   UNL     1     -42.532 -53.959  13.926  1.00  0.00     0.009 C 
HETATM   22  C   UNL     1     -41.281 -54.206  13.111  1.00  0.00     0.103 C 
HETATM   23  C   UNL     1     -40.121 -53.263  13.364  1.00  0.00     0.219 C 
HETATM   24  O   UNL     1     -38.980 -53.716  13.499  1.00  0.00    -0.273 OA
ENDBRANCH  16  17
ENDBRANCH  15  16
ENDBRANCH   4  15
TORSDOF 5
ENDMDL
MODEL 4
REMARK VINA RESULT:      -6.4      1.244      1.690
REMARK  5 active torsions:
REMARK  status: ('A' for Active; 'I' for Inactive)
REMARK    1  A    between atoms: C_2  and  N_3 
REMARK    2  A    between atoms: C_5  and  N_6 
REMARK       I    between atoms: N_6  and  C_7 
REMARK       I    between atoms: C_7  and  N_9 
REMARK    3  A    between atoms: N_9  and  C_10 
REMARK    4  A    between atoms: C_10  and  C_11 
REMARK    5  A    between atoms: C_11  and  N_12 
ROOT
HETATM    1  N   UNL     1     -40.981 -50.538  11.041  1.00  0.00    -0.306 N 
HETATM    2  C   UNL     1     -41.452 -51.301  12.086  1.00  0.00     0.320 C 
HETATM    3  O   UNL     1     -41.649 -50.909  13.230  1.00  0.00    -0.247 OA
HETATM    4  N   UNL     1     -41.695 -52.610  11.751  1.00  0.00    -0.341 N 
HETATM    5  H   UNL     1     -40.912 -50.966  10.123  1.00  0.00     0.171 HD
HETATM    6  H   UNL     1     -41.638 -52.926  10.785  1.00  0.00     0.164 HD
ENDROOT
BRANCH   1   7
HETATM    7  C   UNL     1     -40.635 -49.198  11.158  1.00  0.00     0.070 A 
HETATM    8  C   UNL     1     -41.306 -48.124  10.634  1.00  0.00     0.141 A 
HETATM    9  N   UNL     1     -40.606 -47.011  10.983  1.00  0.00    -0.302 N 
HETATM   10  N   UNL     1     -39.511 -47.281  11.721  1.00  0.00    -0.308 N 
HETATM   11  C   UNL     1     -39.532 -48.617  11.825  1.00  0.00     0.138 A 
ATOM     12  HN  UNL     1     -38.832 -46.627  12.108  1.00  0.00     0.186 HD
BRANCH   9  13
HETATM   13  C   UNL     1     -40.934 -45.656  10.589  1.00  0.00     0.143 C 
HETATM   14  C   UNL     1     -39.703 -44.841  10.236  1.00  0.00     0.028 C 
ENDBRANCH   9  13
ENDBRANCH   1   7
BRANCH   4  15
HETATM   15  C   UNL     1     -42.278 -53.495  12.746  1.00  0.00     0.144 C 
BRANCH  15  16
HETATM   16  C   UNL     1     -43.790 -53.746  12.600  1.00  0.00     0.145 C 
BRANCH  16  17
HETATM   17  N   UNL     1     -44.546 -53.261  13.762  1.00  0.00    -0.351 N 
HETATM   18  C   UNL     1     -44.739 -51.820  13.926  1.00  0.00     0.126 C 
HETATM   19  C   UNL     1     -46.192 -51.407  13.765  1.00  0.00     0.020 C 
HETATM   20  C   UNL     1     -47.000 -51.530  15.056  1.00  0.00     0.002 C 
HETATM   21  C   UNL     1     -46.623 -52.691  15.974  1.00  0.00     0.009 C 
HETATM   22  C   UNL     1     -46.380 -53.995  15.246  1.00  0.00     0.103 C 
HETATM   23  C   UNL     1     -44.987 -54.197  14.681  1.00  0.00     0.219 C 
HETATM   24  O   UNL     1     -44.410 -55.276  14.844  1.00  0.00    -0.273 OA
ENDBRANCH  16  17
ENDBRANCH  15  16
ENDBRANCH   4  15
TORSDOF 5
ENDMDL
MODEL 5
REMARK VINA RESULT:      -6.3      1.794      2.244
REMARK  5 active torsions:
REMARK  status: ('A' for Active; 'I' for Inactive)
REMARK    1  A    between atoms: C_2  and  N_3 
REMARK    2  A    between atoms: C_5  and  N_6 
REMARK       I    between atoms: N_6  and  C_7 
REMARK       I    between atoms: C_7  and  N_9 
REMARK    3  A    between atoms: N_9  and  C_10 
REMARK    4  A    between atoms: C_10  and  C_11 
REMARK    5  A    between atoms: C_11  and  N_12 
ROOT
HETATM    1  N   UNL     1     -41.478 -49.485  10.944  1.00  0.00    -0.306 N 
HETATM    2  C   UNL     1     -41.972 -50.073  12.086  1.00  0.00     0.320 C 
HETATM    3  O   UNL     1     -42.776 -49.572  12.864  1.00  0.00    -0.247 OA
HETATM    4  N   UNL     1     -41.474 -51.331  12.321  1.00  0.00    -0.341 N 
HETATM    5  H   UNL     1     -40.857 -50.026  10.351  1.00  0.00     0.171 HD
HETATM    6  H   UNL     1     -40.890 -51.803  11.634  1.00  0.00     0.164 HD
ENDROOT
BRANCH   1   7
HETATM    7  C   UNL     1     -41.815 -48.202  10.529  1.00  0.00     0.070 A 
HETATM    8  C   UNL     1     -42.951 -47.824   9.861  1.00  0.00     0.141 A 
HETATM    9  N   UNL     1     -42.855 -46.484   9.647  1.00  0.00    -0.302 N 
HETATM   10  N   UNL     1     -41.726 -45.944  10.145  1.00  0.00    -0.308 N 
HETATM   11  C   UNL     1     -41.093 -46.997  10.683  1.00  0.00     0.138 A 
ATOM     12  HN  UNL     1     -41.425 -44.970  10.121  1.00  0.00     0.186 HD
BRANCH   9  13
HETATM   13  C   UNL     1     -43.818 -45.680   8.922  1.00  0.00     0.143 C 
HETATM   14  C   UNL     1     -45.211 -46.282   8.942  1.00  0.00     0.028 C 
ENDBRANCH   9  13
ENDBRANCH   1   7
BRANCH   4  15
HETATM   15  C   UNL     1     -41.985 -52.092  13.449  1.00  0.00     0.144 C 
BRANCH  15  16
HETATM   16  C   UNL     1     -43.133 -53.065  13.122  1.00  0.00     0.145 C 
BRANCH  16  17
HETATM   17  N   UNL     1     -44.355 -52.754  13.876  1.00  0.00    -0.351 N 
HETATM   18  C   UNL     1     -44.292 -52.721  15.337  1.00  0.00     0.126 C 
HETATM   19  C   UNL     1     -44.502 -51.324  15.896  1.00  0.00     0.020 C 
HETATM   20  C   UNL     1     -45.977 -50.965  16.081  1.00  0.00     0.002 C 
HETATM   21  C   UNL     1     -46.941 -51.537  15.043  1.00  0.00     0.009 C 
HETATM   22  C   UNL     1     -46.435 -51.446  13.619  1.00  0.00     0.103 C 
HETATM   23  C   UNL     1     -45.525 -52.568  13.160  1.00  0.00     0.219 C 
HETATM   24  O   UNL     1     -45.707 -53.093  12.057  1.00  0.00    -0.273 OA
ENDBRANCH  16  17
ENDBRANCH  15  16
ENDBRANCH   4  15
TORSDOF 5
ENDMDL
MODEL 6
REMARK VINA RESULT:      -6.2      3.868      6.146
REMARK  5 active torsions:
REMARK  status: ('A' for Active; 'I' for Inactive)
REMARK    1  A    between atoms: C_2  and  N_3 
REMARK    2  A    between atoms: C_5  and  N_6 
REMARK       I    between atoms: N_6  and  C_7 
REMARK       I    between atoms: C_7  and  N_9 
REMARK    3  A    between atoms: N_9  and  C_10 
REMARK    4  A    between atoms: C_10  and  C_11 
REMARK    5  A    between atoms: C_11  and  N_12 
ROOT
HETATM    1  N   UNL     1     -41.889 -47.076   9.699  1.00  0.00    -0.306 N 
HETATM    2  C   UNL     1     -41.426 -47.523  10.916  1.00  0.00     0.320 C 
HETATM    3  O   UNL     1     -42.103 -47.704  11.921  1.00  0.00    -0.247 OA
HETATM    4  N   UNL     1     -40.074 -47.761  10.941  1.00  0.00    -0.341 N 
HETATM    5  H   UNL     1     -41.236 -47.019   8.925  1.00  0.00     0.171 HD
HETATM    6  H   UNL     1     -39.515 -47.717  10.091  1.00  0.00     0.164 HD
ENDROOT
BRANCH   1   7
HETATM    7  C   UNL     1     -43.214 -46.739   9.455  1.00  0.00     0.070 A 
HETATM    8  C   UNL     1     -44.301 -47.573   9.510  1.00  0.00     0.141 A 
HETATM    9  N   UNL     1     -45.390 -46.826   9.186  1.00  0.00    -0.302 N 
HETATM   10  N   UNL     1     -45.093 -45.536   8.930  1.00  0.00    -0.308 N 
HETATM   11  C   UNL     1     -43.764 -45.488   9.095  1.00  0.00     0.138 A 
ATOM     12  HN  UNL     1     -45.727 -44.780   8.674  1.00  0.00     0.186 HD
BRANCH   9  13
HETATM   13  C   UNL     1     -46.745 -47.325   9.068  1.00  0.00     0.143 C 
HETATM   14  C   UNL     1     -46.792 -48.781   8.641  1.00  0.00     0.028 C 
ENDBRANCH   9  13
ENDBRANCH   1   7
BRANCH   4  15
HETATM   15  C   UNL     1     -39.478 -48.320  12.143  1.00  0.00     0.144 C 
BRANCH  15  16
HETATM   16  C   UNL     1     -38.845 -49.713  11.979  1.00  0.00     0.145 C 
BRANCH  16  17
HETATM   17  N   UNL     1     -39.539 -50.735  12.774  1.00  0.00    -0.351 N 
HETATM   18  C   UNL     1     -40.930 -51.052  12.454  1.00  0.00     0.126 C 
HETATM   19  C   UNL     1     -41.093 -52.458  11.903  1.00  0.00     0.020 C 
HETATM   20  C   UNL     1     -41.239 -53.519  12.994  1.00  0.00     0.002 C 
HETATM   21  C   UNL     1     -40.443 -53.275  14.276  1.00  0.00     0.009 C 
HETATM   22  C   UNL     1     -39.028 -52.795  14.037  1.00  0.00     0.103 C 
HETATM   23  C   UNL     1     -38.853 -51.303  13.834  1.00  0.00     0.219 C 
HETATM   24  O   UNL     1     -37.946 -50.706  14.422  1.00  0.00    -0.273 OA
ENDBRANCH  16  17
ENDBRANCH  15  16
ENDBRANCH   4  15
TORSDOF 5
ENDMDL
MODEL 7
REMARK VINA RESULT:      -6.1      1.785      2.426
REMARK  5 active torsions:
REMARK  status: ('A' for Active; 'I' for Inactive)
REMARK    1  A    between atoms: C_2  and  N_3 
REMARK    2  A    between atoms: C_5  and  N_6 
REMARK       I    between atoms: N_6  and  C_7 
REMARK       I    between atoms: C_7  and  N_9 
REMARK    3  A    between atoms: N_9  and  C_10 
REMARK    4  A    between atoms: C_10  and  C_11 
REMARK    5  A    between atoms: C_11  and  N_12 
ROOT
HETATM    1  N   UNL     1     -42.117 -49.320  10.997  1.00  0.00    -0.306 N 
HETATM    2  C   UNL     1     -41.959 -50.041  12.159  1.00  0.00     0.320 C 
HETATM    3  O   UNL     1     -41.833 -49.573  13.285  1.00  0.00    -0.247 OA
HETATM    4  N   UNL     1     -41.943 -51.401  11.969  1.00  0.00    -0.341 N 
HETATM    5  H   UNL     1     -42.267 -49.826  10.131  1.00  0.00     0.171 HD
HETATM    6  H   UNL     1     -42.152 -51.808  11.060  1.00  0.00     0.164 HD
ENDROOT
BRANCH   1   7
HETATM    7  C   UNL     1     -42.126 -47.932  10.946  1.00  0.00     0.070 A 
HETATM    8  C   UNL     1     -41.037 -47.102  10.879  1.00  0.00     0.141 A 
HETATM    9  N   UNL     1     -41.512 -45.827  10.862  1.00  0.00    -0.302 N 
HETATM   10  N   UNL     1     -42.857 -45.760  10.902  1.00  0.00    -0.308 N 
HETATM   11  C   UNL     1     -43.228 -47.047  10.954  1.00  0.00     0.138 A 
ATOM     12  HN  UNL     1     -43.449 -44.930  10.894  1.00  0.00     0.186 HD
BRANCH   9  13
HETATM   13  C   UNL     1     -40.697 -44.629  10.852  1.00  0.00     0.143 C 
HETATM   14  C   UNL     1     -39.453 -44.780   9.995  1.00  0.00     0.028 C 
ENDBRANCH   9  13
ENDBRANCH   1   7
BRANCH   4  15
HETATM   15  C   UNL     1     -41.871 -52.274  13.129  1.00  0.00     0.144 C 
BRANCH  15  16
HETATM   16  C   UNL     1     -42.885 -53.432  13.147  1.00  0.00     0.145 C 
BRANCH  16  17
HETATM   17  N   UNL     1     -44.028 -53.154  14.026  1.00  0.00    -0.351 N 
HETATM   18  C   UNL     1     -44.263 -51.779  14.464  1.00  0.00     0.126 C 
HETATM   19  C   UNL     1     -45.540 -51.195  13.884  1.00  0.00     0.020 C 
HETATM   20  C   UNL     1     -46.784 -51.530  14.706  1.00  0.00     0.002 C 
HETATM   21  C   UNL     1     -46.794 -52.905  15.375  1.00  0.00     0.009 C 
HETATM   22  C   UNL     1     -46.295 -54.023  14.486  1.00  0.00     0.103 C 
HETATM   23  C   UNL     1     -44.793 -54.228  14.448  1.00  0.00     0.219 C 
HETATM   24  O   UNL     1     -44.327 -55.369  14.536  1.00  0.00    -0.273 OA
ENDBRANCH  16  17
ENDBRANCH  15  16
ENDBRANCH   4  15
TORSDOF 5
ENDMDL
MODEL 8
REMARK VINA RESULT:      -6.1      2.129      2.542
REMARK  5 active torsions:
REMARK  status: ('A' for Active; 'I' for Inactive)
REMARK    1  A    between atoms: C_2  and  N_3 
REMARK    2  A    between atoms: C_5  and  N_6 
REMARK       I    between atoms: N_6  and  C_7 
REMARK       I    between atoms: C_7  and  N_9 
REMARK    3  A    between atoms: N_9  and  C_10 
REMARK    4  A    between atoms: C_10  and  C_11 
REMARK    5  A    between atoms: C_11  and  N_12 
ROOT
HETATM    1  N   UNL     1     -41.321 -51.576  13.837  1.00  0.00    -0.306 N 
HETATM    2  C   UNL     1     -41.694 -52.901  13.831  1.00  0.00     0.320 C 
HETATM    3  O   UNL     1     -41.336 -53.745  13.018  1.00  0.00    -0.247 OA
HETATM    4  N   UNL     1     -42.551 -53.239  14.849  1.00  0.00    -0.341 N 
HETATM    5  H   UNL     1     -41.642 -50.987  14.598  1.00  0.00     0.171 HD
HETATM    6  H   UNL     1     -42.774 -52.580  15.591  1.00  0.00     0.164 HD
ENDROOT
BRANCH   1   7
HETATM    7  C   UNL     1     -40.489 -51.004  12.882  1.00  0.00     0.070 A 
HETATM    8  C   UNL     1     -39.137 -50.801  12.981  1.00  0.00     0.141 A 
HETATM    9  N   UNL     1     -38.741 -50.204  11.825  1.00  0.00    -0.302 N 
HETATM   10  N   UNL     1     -39.751 -50.009  10.954  1.00  0.00    -0.308 N 
HETATM   11  C   UNL     1     -40.817 -50.498  11.604  1.00  0.00     0.138 A 
ATOM     12  HN  UNL     1     -39.714 -49.590  10.025  1.00  0.00     0.186 HD
BRANCH   9  13
HETATM   13  C   UNL     1     -37.394 -49.761  11.528  1.00  0.00     0.143 C 
HETATM   14  C   UNL     1     -36.909 -50.245  10.173  1.00  0.00     0.028 C 
ENDBRANCH   9  13
ENDBRANCH   1   7
BRANCH   4  15
HETATM   15  C   UNL     1     -42.948 -54.630  15.002  1.00  0.00     0.144 C 
BRANCH  15  16
HETATM   16  C   UNL     1     -44.267 -55.019  14.310  1.00  0.00     0.145 C 
BRANCH  16  17
HETATM   17  N   UNL     1     -45.287 -53.970  14.430  1.00  0.00    -0.351 N 
HETATM   18  C   UNL     1     -46.097 -53.909  15.646  1.00  0.00     0.126 C 
HETATM   19  C   UNL     1     -45.811 -52.666  16.472  1.00  0.00     0.020 C 
HETATM   20  C   UNL     1     -46.622 -51.449  16.028  1.00  0.00     0.002 C 
HETATM   21  C   UNL     1     -46.896 -51.337  14.529  1.00  0.00     0.009 C 
HETATM   22  C   UNL     1     -45.698 -51.658  13.661  1.00  0.00     0.103 C 
HETATM   23  C   UNL     1     -45.472 -53.125  13.349  1.00  0.00     0.219 C 
HETATM   24  O   UNL     1     -45.209 -53.473  12.194  1.00  0.00    -0.273 OA
ENDBRANCH  16  17
ENDBRANCH  15  16
ENDBRANCH   4  15
TORSDOF 5
ENDMDL
MODEL 9
REMARK VINA RESULT:      -6.0      2.141      7.680
REMARK  5 active torsions:
REMARK  status: ('A' for Active; 'I' for Inactive)
REMARK    1  A    between atoms: C_2  and  N_3 
REMARK    2  A    between atoms: C_5  and  N_6 
REMARK       I    between atoms: N_6  and  C_7 
REMARK       I    between atoms: C_7  and  N_9 
REMARK    3  A    between atoms: N_9  and  C_10 
REMARK    4  A    between atoms: C_10  and  C_11 
REMARK    5  A    between atoms: C_11  and  N_12 
ROOT
HETATM    1  N   UNL     1     -42.054 -52.441  11.726  1.00  0.00    -0.306 N 
HETATM    2  C   UNL     1     -41.626 -51.180  12.074  1.00  0.00     0.320 C 
HETATM    3  O   UNL     1     -41.781 -50.644  13.165  1.00  0.00    -0.247 OA
HETATM    4  N   UNL     1     -40.981 -50.515  11.061  1.00  0.00    -0.341 N 
HETATM    5  H   UNL     1     -41.816 -52.796  10.805  1.00  0.00     0.171 HD
HETATM    6  H   UNL     1     -40.751 -50.982  10.186  1.00  0.00     0.164 HD
ENDROOT
BRANCH   1   7
HETATM    7  C   UNL     1     -42.759 -53.280  12.580  1.00  0.00     0.070 A 
HETATM    8  C   UNL     1     -44.102 -53.552  12.545  1.00  0.00     0.141 A 
HETATM    9  N   UNL     1     -44.359 -54.408  13.570  1.00  0.00    -0.302 N 
HETATM   10  N   UNL     1     -43.261 -54.732  14.280  1.00  0.00    -0.308 N 
HETATM   11  C   UNL     1     -42.287 -54.041  13.673  1.00  0.00     0.138 A 
ATOM     12  HN  UNL     1     -43.189 -55.354  15.085  1.00  0.00     0.186 HD
BRANCH   9  13
HETATM   13  C   UNL     1     -45.668 -54.912  13.934  1.00  0.00     0.143 C 
HETATM   14  C   UNL     1     -46.479 -53.904  14.727  1.00  0.00     0.028 C 
ENDBRANCH   9  13
ENDBRANCH   1   7
BRANCH   4  15
HETATM   15  C   UNL     1     -40.404 -49.208  11.331  1.00  0.00     0.144 C 
BRANCH  15  16
HETATM   16  C   UNL     1     -41.262 -48.005  10.898  1.00  0.00     0.145 C 
BRANCH  16  17
HETATM   17  N   UNL     1     -40.894 -46.776  11.613  1.00  0.00    -0.351 N 
HETATM   18  C   UNL     1     -40.681 -46.838  13.058  1.00  0.00     0.126 C 
HETATM   19  C   UNL     1     -39.232 -46.591  13.443  1.00  0.00     0.020 C 
HETATM   20  C   UNL     1     -38.892 -45.108  13.588  1.00  0.00     0.002 C 
HETATM   21  C   UNL     1     -39.613 -44.159  12.631  1.00  0.00     0.009 C 
HETATM   22  C   UNL     1     -39.683 -44.662  11.206  1.00  0.00     0.103 C 
HETATM   23  C   UNL     1     -40.828 -45.601  10.884  1.00  0.00     0.219 C 
HETATM   24  O   UNL     1     -41.489 -45.433   9.854  1.00  0.00    -0.273 OA
ENDBRANCH  16  17
ENDBRANCH  15  16
ENDBRANCH   4  15
TORSDOF 5
ENDMDL
