MODEL 1
REMARK VINA RESULT:      -6.4      0.000      0.000
REMARK  4 active torsions:
REMARK  status: ('A' for Active; 'I' for Inactive)
REMARK    1  A    between atoms: C_2  and  C_4 
REMARK    2  A    between atoms: C_7  and  N_10 
REMARK       I    between atoms: N_10  and  C_11 
REMARK    3  A    between atoms: C_11  and  C_13 
REMARK    4  A    between atoms: C_13  and  C_14 
ROOT
HETATM    1  N   UNL     1     -42.097 -49.933  11.816  1.00  0.00    -0.356 N 
HETATM    2  C   UNL     1     -41.945 -48.563  11.725  1.00  0.00     0.223 C 
HETATM    3  O   UNL     1     -41.983 -47.810  12.697  1.00  0.00    -0.273 OA
HETATM    4  H   UNL     1     -41.827 -50.490  11.012  1.00  0.00     0.162 HD
ENDROOT
BRANCH   1   5
HETATM    5  C   UNL     1     -42.285 -50.598  13.101  1.00  0.00     0.084 C 
HETATM    6  C   UNL     1     -41.040 -51.411  13.496  1.00  0.00     0.025 C 
HETATM    7  C   UNL     1     -40.977 -52.796  12.848  1.00  0.00     0.007 C 
HETATM    8  C   UNL     1     -42.272 -53.611  13.040  1.00  0.00    -0.011 C 
HETATM    9  C   UNL     1     -43.410 -52.787  12.406  1.00  0.00     0.007 C 
HETATM   10  C   UNL     1     -43.577 -51.424  13.079  1.00  0.00     0.025 C 
BRANCH   8  11
HETATM   11  C   UNL     1     -42.561 -54.014  14.523  1.00  0.00    -0.019 C 
HETATM   12  C   UNL     1     -43.775 -54.952  14.641  1.00  0.00     0.010 C 
HETATM   13  C   UNL     1     -41.372 -54.702  15.207  1.00  0.00     0.010 C 
ENDBRANCH   8  11
ENDBRANCH   1   5
BRANCH   2  14
HETATM   14  C   UNL     1     -41.734 -48.048  10.317  1.00  0.00     0.161 C 
BRANCH  14  15
HETATM   15  C   UNL     1     -43.038 -47.860   9.630  1.00  0.00     0.036 A 
HETATM   16  C   UNL     1     -44.271 -47.475  10.206  1.00  0.00     0.053 A 
HETATM   17  C   UNL     1     -45.155 -47.414   9.155  1.00  0.00     0.024 A 
HETATM   18  C   UNL     1     -46.582 -47.034   9.088  1.00  0.00     0.070 C 
HETATM   19  N   UNL     1     -44.442 -47.793   8.051  1.00  0.00    -0.305 N 
HETATM   20  N   UNL     1     -43.149 -48.051   8.308  1.00  0.00    -0.304 N 
HETATM   21  H   UNL     1     -44.769 -47.884   7.095  1.00  0.00     0.186 HD
ATOM     22  HN  UNL     1     -42.421 -48.329   7.650  1.00  0.00     0.186 HD
ENDBRANCH  14  15
ENDBRANCH   2  14
TORSDOF 4
ENDMDL
MODEL 2
REMARK VINA RESULT:      -6.1      2.209      3.172
REMARK  4 active torsions:
REMARK  status: ('A' for Active; 'I' for Inactive)
REMARK    1  A    between atoms: C_2  and  C_4 
REMARK    2  A    between atoms: C_7  and  N_10 
REMARK       I    between atoms: N_10  and  C_11 
REMARK    3  A    between atoms: C_11  and  C_13 
REMARK    4  A    between atoms: C_13  and  C_14 
ROOT
HETATM    1  N   UNL     1     -43.909 -49.707  12.270  1.00  0.00    -0.356 N 
HETATM    2  C   UNL     1     -43.125 -48.570  12.248  1.00  0.00     0.223 C 
HETATM    3  O   UNL     1     -42.434 -48.204  13.199  1.00  0.00    -0.273 OA
HETATM    4  H   UNL     1     -44.258 -50.053  11.382  1.00  0.00     0.162 HD
ENDROOT
BRANCH   1   5
HETATM    5  C   UNL     1     -43.949 -50.587  13.433  1.00  0.00     0.084 C 
HETATM    6  C   UNL     1     -42.910 -51.716  13.314  1.00  0.00     0.025 C 
HETATM    7  C   UNL     1     -43.381 -52.901  12.467  1.00  0.00     0.007 C 
HETATM    8  C   UNL     1     -44.759 -53.440  12.900  1.00  0.00    -0.011 C 
HETATM    9  C   UNL     1     -45.754 -52.270  12.763  1.00  0.00     0.007 C 
HETATM   10  C   UNL     1     -45.380 -51.090  13.660  1.00  0.00     0.025 C 
BRANCH   8  11
HETATM   11  C   UNL     1     -44.775 -54.094  14.320  1.00  0.00    -0.019 C 
HETATM   12  C   UNL     1     -46.115 -54.788  14.622  1.00  0.00     0.010 C 
HETATM   13  C   UNL     1     -43.658 -55.126  14.524  1.00  0.00     0.010 C 
ENDBRANCH   8  11
ENDBRANCH   1   5
BRANCH   2  14
HETATM   14  C   UNL     1     -43.186 -47.791  10.952  1.00  0.00     0.161 C 
BRANCH  14  15
HETATM   15  C   UNL     1     -41.970 -46.953  10.790  1.00  0.00     0.036 A 
HETATM   16  C   UNL     1     -41.874 -45.544  10.862  1.00  0.00     0.053 A 
HETATM   17  C   UNL     1     -40.541 -45.264  10.677  1.00  0.00     0.024 A 
HETATM   18  C   UNL     1     -39.791 -43.991  10.682  1.00  0.00     0.070 C 
HETATM   19  N   UNL     1     -39.936 -46.473  10.470  1.00  0.00    -0.305 N 
HETATM   20  N   UNL     1     -40.778 -47.518  10.552  1.00  0.00    -0.304 N 
HETATM   21  H   UNL     1     -38.956 -46.659  10.282  1.00  0.00     0.186 HD
ATOM     22  HN  UNL     1     -40.560 -48.509  10.456  1.00  0.00     0.186 HD
ENDBRANCH  14  15
ENDBRANCH   2  14
TORSDOF 4
ENDMDL
MODEL 3
REMARK VINA RESULT:      -6.0      4.073      5.902
REMARK  4 active torsions:
REMARK  status: ('A' for Active; 'I' for Inactive)
REMARK    1  A    between atoms: C_2  and  C_4 
REMARK    2  A    between atoms: C_7  and  N_10 
REMARK       I    between atoms: N_10  and  C_11 
REMARK    3  A    between atoms: C_11  and  C_13 
REMARK    4  A    between atoms: C_13  and  C_14 
ROOT
HETATM    1  N   UNL     1     -43.109 -53.564  14.174  1.00  0.00    -0.356 N 
HETATM    2  C   UNL     1     -41.868 -54.171  14.216  1.00  0.00     0.223 C 
HETATM    3  O   UNL     1     -41.364 -54.611  15.249  1.00  0.00    -0.273 OA
HETATM    4  H   UNL     1     -43.540 -53.442  13.263  1.00  0.00     0.162 HD
ENDROOT
BRANCH   1   5
HETATM    5  C   UNL     1     -43.935 -53.427  15.368  1.00  0.00     0.084 C 
HETATM    6  C   UNL     1     -45.431 -53.531  15.027  1.00  0.00     0.025 C 
HETATM    7  C   UNL     1     -46.041 -52.222  14.519  1.00  0.00     0.007 C 
HETATM    8  C   UNL     1     -45.752 -51.024  15.445  1.00  0.00    -0.011 C 
HETATM    9  C   UNL     1     -44.218 -50.890  15.529  1.00  0.00     0.007 C 
HETATM   10  C   UNL     1     -43.563 -52.140  16.117  1.00  0.00     0.025 C 
BRANCH   8  11
HETATM   11  C   UNL     1     -46.435 -51.119  16.849  1.00  0.00    -0.019 C 
HETATM   12  C   UNL     1     -46.096 -49.911  17.740  1.00  0.00     0.010 C 
HETATM   13  C   UNL     1     -47.963 -51.228  16.773  1.00  0.00     0.010 C 
ENDBRANCH   8  11
ENDBRANCH   1   5
BRANCH   2  14
HETATM   14  C   UNL     1     -41.163 -54.251  12.879  1.00  0.00     0.161 C 
BRANCH  14  15
HETATM   15  C   UNL     1     -40.856 -52.889  12.371  1.00  0.00     0.036 A 
HETATM   16  C   UNL     1     -40.130 -51.866  13.024  1.00  0.00     0.053 A 
HETATM   17  C   UNL     1     -40.099 -50.821  12.130  1.00  0.00     0.024 A 
HETATM   18  C   UNL     1     -39.464 -49.488  12.195  1.00  0.00     0.070 C 
HETATM   19  N   UNL     1     -40.816 -51.243  11.045  1.00  0.00    -0.305 N 
HETATM   20  N   UNL     1     -41.272 -52.502  11.157  1.00  0.00    -0.304 N 
HETATM   21  H   UNL     1     -41.023 -50.731  10.194  1.00  0.00     0.186 HD
ATOM     22  HN  UNL     1     -41.809 -53.038  10.476  1.00  0.00     0.186 HD
ENDBRANCH  14  15
ENDBRANCH   2  14
TORSDOF 4
ENDMDL
MODEL 4
REMARK VINA RESULT:      -5.9      2.305      3.076
REMARK  4 active torsions:
REMARK  status: ('A' for Active; 'I' for Inactive)
REMARK    1  A    between atoms: C_2  and  C_4 
REMARK    2  A    between atoms: C_7  and  N_10 
REMARK       I    between atoms: N_10  and  C_11 
REMARK    3  A    between atoms: C_11  and  C_13 
REMARK    4  A    between atoms: C_13  and  C_14 
ROOT
HETATM    1  N   UNL     1     -42.279 -50.947  12.200  1.00  0.00    -0.356 N 
HETATM    2  C   UNL     1     -41.069 -50.282  12.233  1.00  0.00     0.223 C 
HETATM    3  O   UNL     1     -40.402 -50.137  13.257  1.00  0.00    -0.273 OA
HETATM    4  H   UNL     1     -42.642 -51.216  11.291  1.00  0.00     0.162 HD
ENDROOT
BRANCH   1   5
HETATM    5  C   UNL     1     -42.847 -51.562  13.395  1.00  0.00     0.084 C 
HETATM    6  C   UNL     1     -43.099 -53.064  13.183  1.00  0.00     0.025 C 
HETATM    7  C   UNL     1     -44.414 -53.374  12.463  1.00  0.00     0.007 C 
HETATM    8  C   UNL     1     -45.631 -52.679  13.106  1.00  0.00    -0.011 C 
HETATM    9  C   UNL     1     -45.351 -51.164  13.057  1.00  0.00     0.007 C 
HETATM   10  C   UNL     1     -44.093 -50.786  13.841  1.00  0.00     0.025 C 
BRANCH   8  11
HETATM   11  C   UNL     1     -45.976 -53.192  14.542  1.00  0.00    -0.019 C 
HETATM   12  C   UNL     1     -47.110 -52.377  15.190  1.00  0.00     0.010 C 
HETATM   13  C   UNL     1     -46.387 -54.670  14.576  1.00  0.00     0.010 C 
ENDBRANCH   8  11
ENDBRANCH   1   5
BRANCH   2  14
HETATM   14  C   UNL     1     -40.619 -49.730  10.896  1.00  0.00     0.161 C 
BRANCH  14  15
HETATM   15  C   UNL     1     -41.277 -48.426  10.624  1.00  0.00     0.036 A 
HETATM   16  C   UNL     1     -41.276 -47.270  11.439  1.00  0.00     0.053 A 
HETATM   17  C   UNL     1     -41.993 -46.333  10.734  1.00  0.00     0.024 A 
HETATM   18  C   UNL     1     -42.316 -44.919  11.021  1.00  0.00     0.070 C 
HETATM   19  N   UNL     1     -42.407 -46.965   9.595  1.00  0.00    -0.305 N 
HETATM   20  N   UNL     1     -41.970 -48.232   9.494  1.00  0.00    -0.304 N 
HETATM   21  H   UNL     1     -42.975 -46.592   8.842  1.00  0.00     0.186 HD
ATOM     22  HN  UNL     1     -42.130 -48.893   8.733  1.00  0.00     0.186 HD
ENDBRANCH  14  15
ENDBRANCH   2  14
TORSDOF 4
ENDMDL
MODEL 5
REMARK VINA RESULT:      -5.7      3.549      6.944
REMARK  4 active torsions:
REMARK  status: ('A' for Active; 'I' for Inactive)
REMARK    1  A    between atoms: C_2  and  C_4 
REMARK    2  A    between atoms: C_7  and  N_10 
REMARK       I    between atoms: N_10  and  C_11 
REMARK    3  A    between atoms: C_11  and  C_13 
REMARK    4  A    between atoms: C_13  and  C_14 
ROOT
HETATM    1  N   UNL     1     -39.242 -49.796  13.411  1.00  0.00    -0.356 N 
HETATM    2  C   UNL     1     -38.811 -51.043  13.000  1.00  0.00     0.223 C 
HETATM    3  O   UNL     1     -37.927 -51.213  12.161  1.00  0.00    -0.273 OA
HETATM    4  H   UNL     1     -39.799 -49.748  14.257  1.00  0.00     0.162 HD
ENDROOT
BRANCH   1   5
HETATM    5  C   UNL     1     -38.646 -48.571  12.890  1.00  0.00     0.084 C 
HETATM    6  C   UNL     1     -38.553 -47.489  13.979  1.00  0.00     0.025 C 
HETATM    7  C   UNL     1     -39.853 -46.706  14.184  1.00  0.00     0.007 C 
HETATM    8  C   UNL     1     -40.430 -46.142  12.870  1.00  0.00    -0.011 C 
HETATM    9  C   UNL     1     -40.684 -47.350  11.945  1.00  0.00     0.007 C 
HETATM   10  C   UNL     1     -39.399 -48.116  11.633  1.00  0.00     0.025 C 
BRANCH   8  11
HETATM   11  C   UNL     1     -39.546 -45.038  12.204  1.00  0.00    -0.019 C 
HETATM   12  C   UNL     1     -40.152 -44.531  10.882  1.00  0.00     0.010 C 
HETATM   13  C   UNL     1     -39.316 -43.819  13.108  1.00  0.00     0.010 C 
ENDBRANCH   8  11
ENDBRANCH   1   5
BRANCH   2  14
HETATM   14  C   UNL     1     -39.522 -52.203  13.665  1.00  0.00     0.161 C 
BRANCH  14  15
HETATM   15  C   UNL     1     -40.813 -52.480  12.984  1.00  0.00     0.036 A 
HETATM   16  C   UNL     1     -42.017 -52.941  13.567  1.00  0.00     0.053 A 
HETATM   17  C   UNL     1     -42.916 -53.007  12.530  1.00  0.00     0.024 A 
HETATM   18  C   UNL     1     -44.347 -53.373  12.488  1.00  0.00     0.070 C 
HETATM   19  N   UNL     1     -42.220 -52.636  11.413  1.00  0.00    -0.305 N 
HETATM   20  N   UNL     1     -40.945 -52.292  11.664  1.00  0.00    -0.304 N 
HETATM   21  H   UNL     1     -42.552 -52.582  10.456  1.00  0.00     0.186 HD
ATOM     22  HN  UNL     1     -40.241 -51.965  11.003  1.00  0.00     0.186 HD
ENDBRANCH  14  15
ENDBRANCH   2  14
TORSDOF 4
ENDMDL
MODEL 6
REMARK VINA RESULT:      -5.6      3.938      6.095
REMARK  4 active torsions:
REMARK  status: ('A' for Active; 'I' for Inactive)
REMARK    1  A    between atoms: C_2  and  C_4 
REMARK    2  A    between atoms: C_7  and  N_10 
REMARK       I    between atoms: N_10  and  C_11 
REMARK    3  A    between atoms: C_11  and  C_13 
REMARK    4  A    between atoms: C_13  and  C_14 
ROOT
HETATM    1  N   UNL     1     -43.399 -52.159  12.707  1.00  0.00    -0.356 N 
HETATM    2  C   UNL     1     -44.393 -53.105  12.542  1.00  0.00     0.223 C 
HETATM    3  O   UNL     1     -44.168 -54.305  12.390  1.00  0.00    -0.273 OA
HETATM    4  H   UNL     1     -43.675 -51.245  13.052  1.00  0.00     0.162 HD
ENDROOT
BRANCH   1   5
HETATM    5  C   UNL     1     -41.989 -52.529  12.745  1.00  0.00     0.084 C 
HETATM    6  C   UNL     1     -41.364 -52.211  14.113  1.00  0.00     0.025 C 
HETATM    7  C   UNL     1     -40.930 -50.750  14.269  1.00  0.00     0.007 C 
HETATM    8  C   UNL     1     -40.040 -50.260  13.110  1.00  0.00    -0.011 C 
HETATM    9  C   UNL     1     -40.864 -50.427  11.818  1.00  0.00     0.007 C 
HETATM   10  C   UNL     1     -41.248 -51.885  11.566  1.00  0.00     0.025 C 
BRANCH   8  11
HETATM   11  C   UNL     1     -38.641 -50.956  13.038  1.00  0.00    -0.019 C 
HETATM   12  C   UNL     1     -37.783 -50.410  11.883  1.00  0.00     0.010 C 
HETATM   13  C   UNL     1     -37.827 -50.816  14.331  1.00  0.00     0.010 C 
ENDBRANCH   8  11
ENDBRANCH   1   5
BRANCH   2  14
HETATM   14  C   UNL     1     -45.800 -52.545  12.555  1.00  0.00     0.161 C 
BRANCH  14  15
HETATM   15  C   UNL     1     -46.306 -52.444  13.949  1.00  0.00     0.036 A 
HETATM   16  C   UNL     1     -46.920 -51.330  14.567  1.00  0.00     0.053 A 
HETATM   17  C   UNL     1     -47.231 -51.751  15.838  1.00  0.00     0.024 A 
HETATM   18  C   UNL     1     -47.917 -51.075  16.959  1.00  0.00     0.070 C 
HETATM   19  N   UNL     1     -46.766 -53.034  15.926  1.00  0.00    -0.305 N 
HETATM   20  N   UNL     1     -46.217 -53.486  14.786  1.00  0.00    -0.304 N 
HETATM   21  H   UNL     1     -46.802 -53.660  16.724  1.00  0.00     0.186 HD
ATOM     22  HN  UNL     1     -45.823 -54.409  14.602  1.00  0.00     0.186 HD
ENDBRANCH  14  15
ENDBRANCH   2  14
TORSDOF 4
ENDMDL
MODEL 7
REMARK VINA RESULT:      -5.5      4.408      8.038
REMARK  4 active torsions:
REMARK  status: ('A' for Active; 'I' for Inactive)
REMARK    1  A    between atoms: C_2  and  C_4 
REMARK    2  A    between atoms: C_7  and  N_10 
REMARK       I    between atoms: N_10  and  C_11 
REMARK    3  A    between atoms: C_11  and  C_13 
REMARK    4  A    between atoms: C_13  and  C_14 
ROOT
HETATM    1  N   UNL     1     -41.301 -53.596  13.682  1.00  0.00    -0.356 N 
HETATM    2  C   UNL     1     -39.981 -53.445  14.061  1.00  0.00     0.223 C 
HETATM    3  O   UNL     1     -39.490 -52.366  14.392  1.00  0.00    -0.273 OA
HETATM    4  H   UNL     1     -41.675 -54.539  13.649  1.00  0.00     0.162 HD
ENDROOT
BRANCH   1   5
HETATM    5  C   UNL     1     -42.230 -52.471  13.678  1.00  0.00     0.084 C 
HETATM    6  C   UNL     1     -43.090 -52.453  14.953  1.00  0.00     0.025 C 
HETATM    7  C   UNL     1     -44.303 -53.386  14.892  1.00  0.00     0.007 C 
HETATM    8  C   UNL     1     -45.159 -53.179  13.626  1.00  0.00    -0.011 C 
HETATM    9  C   UNL     1     -44.234 -53.442  12.421  1.00  0.00     0.007 C 
HETATM   10  C   UNL     1     -43.051 -52.474  12.382  1.00  0.00     0.025 C 
BRANCH   8  11
HETATM   11  C   UNL     1     -45.875 -51.792  13.557  1.00  0.00    -0.019 C 
HETATM   12  C   UNL     1     -46.754 -51.657  12.300  1.00  0.00     0.010 C 
HETATM   13  C   UNL     1     -46.761 -51.505  14.777  1.00  0.00     0.010 C 
ENDBRANCH   8  11
ENDBRANCH   1   5
BRANCH   2  14
HETATM   14  C   UNL     1     -39.170 -54.723  14.030  1.00  0.00     0.161 C 
BRANCH  14  15
HETATM   15  C   UNL     1     -39.053 -55.297  15.396  1.00  0.00     0.036 A 
HETATM   16  C   UNL     1     -40.092 -55.530  16.327  1.00  0.00     0.053 A 
HETATM   17  C   UNL     1     -39.476 -56.097  17.418  1.00  0.00     0.024 A 
HETATM   18  C   UNL     1     -40.011 -56.605  18.698  1.00  0.00     0.070 C 
HETATM   19  N   UNL     1     -38.144 -56.135  17.110  1.00  0.00    -0.305 N 
HETATM   20  N   UNL     1     -37.862 -55.672  15.880  1.00  0.00    -0.304 N 
HETATM   21  H   UNL     1     -37.378 -56.473  17.684  1.00  0.00     0.186 HD
ATOM     22  HN  UNL     1     -36.952 -55.619  15.423  1.00  0.00     0.186 HD
ENDBRANCH  14  15
ENDBRANCH   2  14
TORSDOF 4
ENDMDL
MODEL 8
REMARK VINA RESULT:      -5.4      4.058      6.124
REMARK  4 active torsions:
REMARK  status: ('A' for Active; 'I' for Inactive)
REMARK    1  A    between atoms: C_2  and  C_4 
REMARK    2  A    between atoms: C_7  and  N_10 
REMARK       I    between atoms: N_10  and  C_11 
REMARK    3  A    between atoms: C_11  and  C_13 
REMARK    4  A    between atoms: C_13  and  C_14 
ROOT
HETATM    1  N   UNL     1     -40.457 -52.139  13.940  1.00  0.00    -0.356 N 
HETATM    2  C   UNL     1     -40.968 -53.045  13.031  1.00  0.00     0.223 C 
HETATM    3  O   UNL     1     -40.560 -53.149  11.875  1.00  0.00    -0.273 OA
HETATM    4  H   UNL     1     -40.688 -52.276  14.919  1.00  0.00     0.162 HD
ENDROOT
BRANCH   1   5
HETATM    5  C   UNL     1     -39.357 -51.246  13.595  1.00  0.00     0.084 C 
HETATM    6  C   UNL     1     -38.321 -51.172  14.730  1.00  0.00     0.025 C 
HETATM    7  C   UNL     1     -38.696 -50.192  15.844  1.00  0.00     0.007 C 
HETATM    8  C   UNL     1     -39.061 -48.790  15.316  1.00  0.00    -0.011 C 
HETATM    9  C   UNL     1     -40.255 -48.976  14.358  1.00  0.00     0.007 C 
HETATM   10  C   UNL     1     -39.905 -49.877  13.173  1.00  0.00     0.025 C 
BRANCH   8  11
HETATM   11  C   UNL     1     -37.867 -48.020  14.663  1.00  0.00    -0.019 C 
HETATM   12  C   UNL     1     -38.259 -46.591  14.246  1.00  0.00     0.010 C 
HETATM   13  C   UNL     1     -36.639 -47.919  15.577  1.00  0.00     0.010 C 
ENDBRANCH   8  11
ENDBRANCH   1   5
BRANCH   2  14
HETATM   14  C   UNL     1     -42.089 -53.909  13.570  1.00  0.00     0.161 C 
BRANCH  14  15
HETATM   15  C   UNL     1     -43.408 -53.288  13.283  1.00  0.00     0.036 A 
HETATM   16  C   UNL     1     -44.329 -52.747  14.211  1.00  0.00     0.053 A 
HETATM   17  C   UNL     1     -45.370 -52.272  13.448  1.00  0.00     0.024 A 
HETATM   18  C   UNL     1     -46.614 -51.563  13.812  1.00  0.00     0.070 C 
HETATM   19  N   UNL     1     -45.050 -52.580  12.155  1.00  0.00    -0.305 N 
HETATM   20  N   UNL     1     -43.855 -53.181  12.024  1.00  0.00    -0.304 N 
HETATM   21  H   UNL     1     -45.591 -52.399  11.316  1.00  0.00     0.186 HD
ATOM     22  HN  UNL     1     -43.395 -53.484  11.166  1.00  0.00     0.186 HD
ENDBRANCH  14  15
ENDBRANCH   2  14
TORSDOF 4
ENDMDL
MODEL 9
REMARK VINA RESULT:      -5.3      2.491      6.923
REMARK  4 active torsions:
REMARK  status: ('A' for Active; 'I' for Inactive)
REMARK    1  A    between atoms: C_2  and  C_4 
REMARK    2  A    between atoms: C_7  and  N_10 
REMARK       I    between atoms: N_10  and  C_11 
REMARK    3  A    between atoms: C_11  and  C_13 
REMARK    4  A    between atoms: C_13  and  C_14 
ROOT
HETATM    1  N   UNL     1     -43.170 -49.923  12.419  1.00  0.00    -0.356 N 
HETATM    2  C   UNL     1     -43.749 -50.693  13.410  1.00  0.00     0.223 C 
HETATM    3  O   UNL     1     -44.111 -50.241  14.495  1.00  0.00    -0.273 OA
HETATM    4  H   UNL     1     -43.116 -50.322  11.487  1.00  0.00     0.162 HD
ENDROOT
BRANCH   1   5
HETATM    5  C   UNL     1     -42.974 -48.487  12.583  1.00  0.00     0.084 C 
HETATM    6  C   UNL     1     -42.981 -47.765  11.225  1.00  0.00     0.025 C 
HETATM    7  C   UNL     1     -41.636 -47.811  10.494  1.00  0.00     0.007 C 
HETATM    8  C   UNL     1     -40.457 -47.354  11.375  1.00  0.00    -0.011 C 
HETATM    9  C   UNL     1     -40.424 -48.298  12.594  1.00  0.00     0.007 C 
HETATM   10  C   UNL     1     -41.712 -48.222  13.414  1.00  0.00     0.025 C 
BRANCH   8  11
HETATM   11  C   UNL     1     -40.501 -45.843  11.773  1.00  0.00    -0.019 C 
HETATM   12  C   UNL     1     -39.444 -45.493  12.836  1.00  0.00     0.010 C 
HETATM   13  C   UNL     1     -40.296 -44.897  10.582  1.00  0.00     0.010 C 
ENDBRANCH   8  11
ENDBRANCH   1   5
BRANCH   2  14
HETATM   14  C   UNL     1     -43.899 -52.158  13.058  1.00  0.00     0.161 C 
BRANCH  14  15
HETATM   15  C   UNL     1     -42.567 -52.807  12.953  1.00  0.00     0.036 A 
HETATM   16  C   UNL     1     -41.757 -53.293  14.006  1.00  0.00     0.053 A 
HETATM   17  C   UNL     1     -40.648 -53.825  13.391  1.00  0.00     0.024 A 
HETATM   18  C   UNL     1     -39.460 -54.518  13.929  1.00  0.00     0.070 C 
HETATM   19  N   UNL     1     -40.826 -53.601  12.053  1.00  0.00    -0.305 N 
HETATM   20  N   UNL     1     -41.992 -53.001  11.758  1.00  0.00    -0.304 N 
HETATM   21  H   UNL     1     -40.203 -53.841  11.290  1.00  0.00     0.186 HD
ATOM     22  HN  UNL     1     -42.355 -52.752  10.839  1.00  0.00     0.186 HD
ENDBRANCH  14  15
ENDBRANCH   2  14
TORSDOF 4
ENDMDL
