MODEL 1
REMARK VINA RESULT:      -5.8      0.000      0.000
REMARK  5 active torsions:
REMARK  status: ('A' for Active; 'I' for Inactive)
REMARK    1  A    between atoms: C_5  and  C_6 
REMARK    2  A    between atoms: C_6  and  C_7 
REMARK       I    between atoms: C_7  and  N_9 
REMARK    3  A    between atoms: N_9  and  C_10 
REMARK    4  A    between atoms: C_10  and  C_11 
REMARK    5  A    between atoms: N_14  and  C_15 
ROOT
HETATM    1  C   UNL     1     -41.949 -45.250  11.646  1.00  0.00     0.395 C 
HETATM    2  C   UNL     1     -42.626 -44.171  10.894  1.00  0.00     0.089 C 
HETATM    3  N   UNL     1     -43.185 -43.321  10.333  1.00  0.00    -0.195 NA
ENDROOT
BRANCH   1   4
HETATM    4  N   UNL     1     -41.806 -46.513  10.894  1.00  0.00     0.101 N 
HETATM    5  C   UNL     1     -42.892 -47.474  11.146  1.00  0.00     0.274 C 
HETATM    6  C   UNL     1     -42.833 -48.117  12.537  1.00  0.00     0.036 C 
HETATM    7  C   UNL     1     -41.474 -48.789  12.803  1.00  0.00     0.007 C 
HETATM    8  C   UNL     1     -40.347 -47.786  12.502  1.00  0.00     0.036 C 
HETATM    9  C   UNL     1     -40.494 -47.138  11.120  1.00  0.00     0.274 C 
BRANCH   7  10
HETATM   10  C   UNL     1     -41.366 -50.099  12.000  1.00  0.00     0.127 C 
BRANCH  10  11
HETATM   11  N   UNL     1     -42.537 -50.942  12.125  1.00  0.00    -0.360 N 
HETATM   12  C   UNL     1     -42.420 -52.298  12.366  1.00  0.00     0.221 C 
HETATM   13  O   UNL     1     -41.345 -52.865  12.539  1.00  0.00    -0.273 OA
HETATM   14  H   UNL     1     -43.437 -50.566  11.862  1.00  0.00     0.162 HD
BRANCH  12  15
HETATM   15  C   UNL     1     -43.732 -53.055  12.389  1.00  0.00     0.142 C 
BRANCH  15  16
HETATM   16  C   UNL     1     -44.709 -52.568  13.423  1.00  0.00    -0.034 A 
HETATM   17  C   UNL     1     -45.854 -51.871  13.028  1.00  0.00     0.011 A 
HETATM   18  C   UNL     1     -46.772 -51.441  13.983  1.00  0.00     0.025 A 
HETATM   19  C   UNL     1     -46.518 -51.706  15.323  1.00  0.00     0.005 A 
HETATM   20  C   UNL     1     -47.524 -51.360  16.379  1.00  0.00     0.068 C 
HETATM   21  N   UNL     1     -45.394 -52.335  15.736  1.00  0.00    -0.369 N 
HETATM   22  C   UNL     1     -44.512 -52.731  14.790  1.00  0.00     0.095 A 
ATOM     23  HN  UNL     1     -45.218 -52.504  16.726  1.00  0.00     0.165 HD
ENDBRANCH  15  16
ENDBRANCH  12  15
ENDBRANCH  10  11
ENDBRANCH   7  10
ENDBRANCH   1   4
TORSDOF 5
ENDMDL
MODEL 2
REMARK VINA RESULT:      -5.8      2.962      6.663
REMARK  5 active torsions:
REMARK  status: ('A' for Active; 'I' for Inactive)
REMARK    1  A    between atoms: C_5  and  C_6 
REMARK    2  A    between atoms: C_6  and  C_7 
REMARK       I    between atoms: C_7  and  N_9 
REMARK    3  A    between atoms: N_9  and  C_10 
REMARK    4  A    between atoms: C_10  and  C_11 
REMARK    5  A    between atoms: N_14  and  C_15 
ROOT
HETATM    1  C   UNL     1     -42.487 -53.615  13.427  1.00  0.00     0.395 C 
HETATM    2  C   UNL     1     -43.855 -53.857  12.921  1.00  0.00     0.089 C 
HETATM    3  N   UNL     1     -44.915 -54.060  12.491  1.00  0.00    -0.195 NA
ENDROOT
BRANCH   1   4
HETATM    4  N   UNL     1     -42.238 -52.226  13.859  1.00  0.00     0.101 N 
HETATM    5  C   UNL     1     -42.304 -51.246  12.763  1.00  0.00     0.274 C 
HETATM    6  C   UNL     1     -41.113 -51.322  11.799  1.00  0.00     0.036 C 
HETATM    7  C   UNL     1     -39.769 -51.185  12.535  1.00  0.00     0.007 C 
HETATM    8  C   UNL     1     -39.727 -52.188  13.701  1.00  0.00     0.036 C 
HETATM    9  C   UNL     1     -40.970 -52.100  14.594  1.00  0.00     0.274 C 
BRANCH   7  10
HETATM   10  C   UNL     1     -39.550 -49.724  12.970  1.00  0.00     0.127 C 
BRANCH  10  11
HETATM   11  N   UNL     1     -39.880 -48.765  11.934  1.00  0.00    -0.360 N 
HETATM   12  C   UNL     1     -40.533 -47.585  12.234  1.00  0.00     0.221 C 
HETATM   13  O   UNL     1     -40.829 -47.245  13.376  1.00  0.00    -0.273 OA
HETATM   14  H   UNL     1     -39.784 -49.043  10.968  1.00  0.00     0.162 HD
BRANCH  12  15
HETATM   15  C   UNL     1     -40.878 -46.727  11.033  1.00  0.00     0.142 C 
BRANCH  15  16
HETATM   16  C   UNL     1     -42.271 -46.932  10.506  1.00  0.00    -0.034 A 
HETATM   17  C   UNL     1     -42.769 -46.095   9.505  1.00  0.00     0.011 A 
HETATM   18  C   UNL     1     -44.050 -46.300   8.998  1.00  0.00     0.025 A 
HETATM   19  C   UNL     1     -44.817 -47.336   9.516  1.00  0.00     0.005 A 
HETATM   20  C   UNL     1     -46.158 -47.665   8.933  1.00  0.00     0.068 C 
HETATM   21  N   UNL     1     -44.378 -48.130  10.519  1.00  0.00    -0.369 N 
HETATM   22  C   UNL     1     -43.135 -47.902  11.003  1.00  0.00     0.095 A 
ATOM     23  HN  UNL     1     -44.963 -48.874  10.898  1.00  0.00     0.165 HD
ENDBRANCH  15  16
ENDBRANCH  12  15
ENDBRANCH  10  11
ENDBRANCH   7  10
ENDBRANCH   1   4
TORSDOF 5
ENDMDL
MODEL 3
REMARK VINA RESULT:      -5.7      2.337      3.015
REMARK  5 active torsions:
REMARK  status: ('A' for Active; 'I' for Inactive)
REMARK    1  A    between atoms: C_5  and  C_6 
REMARK    2  A    between atoms: C_6  and  C_7 
REMARK       I    between atoms: C_7  and  N_9 
REMARK    3  A    between atoms: N_9  and  C_10 
REMARK    4  A    between atoms: C_10  and  C_11 
REMARK    5  A    between atoms: N_14  and  C_15 
ROOT
HETATM    1  C   UNL     1     -42.572 -45.855  13.037  1.00  0.00     0.395 C 
HETATM    2  C   UNL     1     -43.354 -45.555  14.256  1.00  0.00     0.089 C 
HETATM    3  N   UNL     1     -43.961 -45.281  15.208  1.00  0.00    -0.195 NA
ENDROOT
BRANCH   1   4
HETATM    4  N   UNL     1     -41.464 -46.808  13.249  1.00  0.00     0.101 N 
HETATM    5  C   UNL     1     -40.488 -46.831  12.148  1.00  0.00     0.274 C 
HETATM    6  C   UNL     1     -41.018 -47.493  10.870  1.00  0.00     0.036 C 
HETATM    7  C   UNL     1     -41.535 -48.919  11.133  1.00  0.00     0.007 C 
HETATM    8  C   UNL     1     -42.526 -48.887  12.309  1.00  0.00     0.036 C 
HETATM    9  C   UNL     1     -41.957 -48.164  13.536  1.00  0.00     0.274 C 
BRANCH   7  10
HETATM   10  C   UNL     1     -40.350 -49.879  11.350  1.00  0.00     0.127 C 
BRANCH  10  11
HETATM   11  N   UNL     1     -40.749 -51.269  11.429  1.00  0.00    -0.360 N 
HETATM   12  C   UNL     1     -40.683 -51.965  12.621  1.00  0.00     0.221 C 
HETATM   13  O   UNL     1     -40.340 -51.458  13.684  1.00  0.00    -0.273 OA
HETATM   14  H   UNL     1     -40.912 -51.777  10.571  1.00  0.00     0.162 HD
BRANCH  12  15
HETATM   15  C   UNL     1     -41.059 -53.430  12.523  1.00  0.00     0.142 C 
BRANCH  15  16
HETATM   16  C   UNL     1     -42.418 -53.759  13.075  1.00  0.00    -0.034 A 
HETATM   17  C   UNL     1     -42.533 -54.546  14.223  1.00  0.00     0.011 A 
HETATM   18  C   UNL     1     -43.792 -54.830  14.750  1.00  0.00     0.025 A 
HETATM   19  C   UNL     1     -44.915 -54.331  14.105  1.00  0.00     0.005 A 
HETATM   20  C   UNL     1     -46.283 -54.517  14.689  1.00  0.00     0.068 C 
HETATM   21  N   UNL     1     -44.834 -53.608  12.965  1.00  0.00    -0.369 N 
HETATM   22  C   UNL     1     -43.602 -53.356  12.467  1.00  0.00     0.095 A 
ATOM     23  HN  UNL     1     -45.673 -53.265  12.497  1.00  0.00     0.165 HD
ENDBRANCH  15  16
ENDBRANCH  12  15
ENDBRANCH  10  11
ENDBRANCH   7  10
ENDBRANCH   1   4
TORSDOF 5
ENDMDL
MODEL 4
REMARK VINA RESULT:      -5.6      3.167      7.552
REMARK  5 active torsions:
REMARK  status: ('A' for Active; 'I' for Inactive)
REMARK    1  A    between atoms: C_5  and  C_6 
REMARK    2  A    between atoms: C_6  and  C_7 
REMARK       I    between atoms: C_7  and  N_9 
REMARK    3  A    between atoms: N_9  and  C_10 
REMARK    4  A    between atoms: C_10  and  C_11 
REMARK    5  A    between atoms: N_14  and  C_15 
ROOT
HETATM    1  C   UNL     1     -43.451 -54.808  14.800  1.00  0.00     0.395 C 
HETATM    2  C   UNL     1     -44.435 -54.586  13.718  1.00  0.00     0.089 C 
HETATM    3  N   UNL     1     -45.190 -54.439  12.848  1.00  0.00    -0.195 NA
ENDROOT
BRANCH   1   4
HETATM    4  N   UNL     1     -42.688 -53.602  15.181  1.00  0.00     0.101 N 
HETATM    5  C   UNL     1     -42.072 -52.909  14.039  1.00  0.00     0.274 C 
HETATM    6  C   UNL     1     -40.878 -53.660  13.436  1.00  0.00     0.036 C 
HETATM    7  C   UNL     1     -39.804 -53.976  14.492  1.00  0.00     0.007 C 
HETATM    8  C   UNL     1     -40.467 -54.667  15.695  1.00  0.00     0.036 C 
HETATM    9  C   UNL     1     -41.685 -53.895  16.216  1.00  0.00     0.274 C 
BRANCH   7  10
HETATM   10  C   UNL     1     -39.035 -52.693  14.862  1.00  0.00     0.127 C 
BRANCH  10  11
HETATM   11  N   UNL     1     -38.656 -51.902  13.709  1.00  0.00    -0.360 N 
HETATM   12  C   UNL     1     -38.142 -50.628  13.854  1.00  0.00     0.221 C 
HETATM   13  O   UNL     1     -37.924 -50.104  14.943  1.00  0.00    -0.273 OA
HETATM   14  H   UNL     1     -38.932 -52.219  12.791  1.00  0.00     0.162 HD
BRANCH  12  15
HETATM   15  C   UNL     1     -37.870 -49.900  12.553  1.00  0.00     0.142 C 
BRANCH  15  16
HETATM   16  C   UNL     1     -39.087 -49.274  11.929  1.00  0.00    -0.034 A 
HETATM   17  C   UNL     1     -39.385 -47.931  12.174  1.00  0.00     0.011 A 
HETATM   18  C   UNL     1     -40.499 -47.345  11.576  1.00  0.00     0.025 A 
HETATM   19  C   UNL     1     -41.303 -48.121  10.752  1.00  0.00     0.005 A 
HETATM   20  C   UNL     1     -42.449 -47.513  10.002  1.00  0.00     0.068 C 
HETATM   21  N   UNL     1     -41.065 -49.435  10.538  1.00  0.00    -0.369 N 
HETATM   22  C   UNL     1     -39.985 -49.984  11.140  1.00  0.00     0.095 A 
ATOM     23  HN  UNL     1     -41.679 -49.992   9.944  1.00  0.00     0.165 HD
ENDBRANCH  15  16
ENDBRANCH  12  15
ENDBRANCH  10  11
ENDBRANCH   7  10
ENDBRANCH   1   4
TORSDOF 5
ENDMDL
MODEL 5
REMARK VINA RESULT:      -5.5      3.287      4.662
REMARK  5 active torsions:
REMARK  status: ('A' for Active; 'I' for Inactive)
REMARK    1  A    between atoms: C_5  and  C_6 
REMARK    2  A    between atoms: C_6  and  C_7 
REMARK       I    between atoms: C_7  and  N_9 
REMARK    3  A    between atoms: N_9  and  C_10 
REMARK    4  A    between atoms: C_10  and  C_11 
REMARK    5  A    between atoms: N_14  and  C_15 
ROOT
HETATM    1  C   UNL     1     -37.761 -50.067  15.873  1.00  0.00     0.395 C 
HETATM    2  C   UNL     1     -36.319 -49.791  16.058  1.00  0.00     0.089 C 
HETATM    3  N   UNL     1     -35.195 -49.537  16.197  1.00  0.00    -0.195 NA
ENDROOT
BRANCH   1   4
HETATM    4  N   UNL     1     -38.058 -51.046  14.809  1.00  0.00     0.101 N 
HETATM    5  C   UNL     1     -37.947 -50.493  13.450  1.00  0.00     0.274 C 
HETATM    6  C   UNL     1     -39.079 -49.524  13.087  1.00  0.00     0.036 C 
HETATM    7  C   UNL     1     -40.466 -50.165  13.273  1.00  0.00     0.007 C 
HETATM    8  C   UNL     1     -40.557 -50.772  14.684  1.00  0.00     0.036 C 
HETATM    9  C   UNL     1     -39.368 -51.686  15.006  1.00  0.00     0.274 C 
BRANCH   7  10
HETATM   10  C   UNL     1     -40.735 -51.180  12.146  1.00  0.00     0.127 C 
BRANCH  10  11
HETATM   11  N   UNL     1     -42.113 -51.624  12.095  1.00  0.00    -0.360 N 
HETATM   12  C   UNL     1     -42.471 -52.894  12.503  1.00  0.00     0.221 C 
HETATM   13  O   UNL     1     -41.678 -53.703  12.976  1.00  0.00    -0.273 OA
HETATM   14  H   UNL     1     -42.786 -51.059  11.596  1.00  0.00     0.162 HD
BRANCH  12  15
HETATM   15  C   UNL     1     -43.936 -53.234  12.313  1.00  0.00     0.142 C 
BRANCH  15  16
HETATM   16  C   UNL     1     -44.842 -52.688  13.381  1.00  0.00    -0.034 A 
HETATM   17  C   UNL     1     -45.920 -51.871  13.032  1.00  0.00     0.011 A 
HETATM   18  C   UNL     1     -46.774 -51.385  14.020  1.00  0.00     0.025 A 
HETATM   19  C   UNL     1     -46.522 -51.716  15.345  1.00  0.00     0.005 A 
HETATM   20  C   UNL     1     -47.470 -51.308  16.433  1.00  0.00     0.068 C 
HETATM   21  N   UNL     1     -45.457 -52.463  15.715  1.00  0.00    -0.369 N 
HETATM   22  C   UNL     1     -44.636 -52.912  14.738  1.00  0.00     0.095 A 
ATOM     23  HN  UNL     1     -45.280 -52.680  16.695  1.00  0.00     0.165 HD
ENDBRANCH  15  16
ENDBRANCH  12  15
ENDBRANCH  10  11
ENDBRANCH   7  10
ENDBRANCH   1   4
TORSDOF 5
ENDMDL
MODEL 6
REMARK VINA RESULT:      -5.5      2.317      3.136
REMARK  5 active torsions:
REMARK  status: ('A' for Active; 'I' for Inactive)
REMARK    1  A    between atoms: C_5  and  C_6 
REMARK    2  A    between atoms: C_6  and  C_7 
REMARK       I    between atoms: C_7  and  N_9 
REMARK    3  A    between atoms: N_9  and  C_10 
REMARK    4  A    between atoms: C_10  and  C_11 
REMARK    5  A    between atoms: N_14  and  C_15 
ROOT
HETATM    1  C   UNL     1     -39.718 -47.692  11.842  1.00  0.00     0.395 C 
HETATM    2  C   UNL     1     -40.785 -47.083  11.019  1.00  0.00     0.089 C 
HETATM    3  N   UNL     1     -41.641 -46.593  10.406  1.00  0.00    -0.195 NA
ENDROOT
BRANCH   1   4
HETATM    4  N   UNL     1     -39.525 -49.138  11.611  1.00  0.00     0.101 N 
HETATM    5  C   UNL     1     -40.493 -49.983  12.329  1.00  0.00     0.274 C 
HETATM    6  C   UNL     1     -40.255 -50.038  13.843  1.00  0.00     0.036 C 
HETATM    7  C   UNL     1     -38.823 -50.484  14.185  1.00  0.00     0.007 C 
HETATM    8  C   UNL     1     -37.823 -49.618  13.401  1.00  0.00     0.036 C 
HETATM    9  C   UNL     1     -38.147 -49.560  11.903  1.00  0.00     0.274 C 
BRANCH   7  10
HETATM   10  C   UNL     1     -38.665 -51.995  13.928  1.00  0.00     0.127 C 
BRANCH  10  11
HETATM   11  N   UNL     1     -39.809 -52.770  14.364  1.00  0.00    -0.360 N 
HETATM   12  C   UNL     1     -40.580 -53.477  13.461  1.00  0.00     0.221 C 
HETATM   13  O   UNL     1     -40.330 -53.541  12.261  1.00  0.00    -0.273 OA
HETATM   14  H   UNL     1     -40.143 -52.652  15.310  1.00  0.00     0.162 HD
BRANCH  12  15
HETATM   15  C   UNL     1     -41.786 -54.171  14.061  1.00  0.00     0.142 C 
BRANCH  15  16
HETATM   16  C   UNL     1     -43.097 -53.493  13.772  1.00  0.00    -0.034 A 
HETATM   17  C   UNL     1     -43.466 -52.352  14.488  1.00  0.00     0.011 A 
HETATM   18  C   UNL     1     -44.669 -51.709  14.203  1.00  0.00     0.025 A 
HETATM   19  C   UNL     1     -45.489 -52.233  13.212  1.00  0.00     0.005 A 
HETATM   20  C   UNL     1     -46.740 -51.521  12.794  1.00  0.00     0.068 C 
HETATM   21  N   UNL     1     -45.179 -53.364  12.538  1.00  0.00    -0.369 N 
HETATM   22  C   UNL     1     -44.011 -53.976  12.842  1.00  0.00     0.095 A 
ATOM     23  HN  UNL     1     -45.803 -53.742  11.826  1.00  0.00     0.165 HD
ENDBRANCH  15  16
ENDBRANCH  12  15
ENDBRANCH  10  11
ENDBRANCH   7  10
ENDBRANCH   1   4
TORSDOF 5
ENDMDL
MODEL 7
REMARK VINA RESULT:      -5.5      2.180      6.871
REMARK  5 active torsions:
REMARK  status: ('A' for Active; 'I' for Inactive)
REMARK    1  A    between atoms: C_5  and  C_6 
REMARK    2  A    between atoms: C_6  and  C_7 
REMARK       I    between atoms: C_7  and  N_9 
REMARK    3  A    between atoms: N_9  and  C_10 
REMARK    4  A    between atoms: C_10  and  C_11 
REMARK    5  A    between atoms: N_14  and  C_15 
ROOT
HETATM    1  C   UNL     1     -46.791 -52.292  15.001  1.00  0.00     0.395 C 
HETATM    2  C   UNL     1     -47.578 -51.800  16.153  1.00  0.00     0.089 C 
HETATM    3  N   UNL     1     -48.203 -51.382  17.037  1.00  0.00    -0.195 NA
ENDROOT
BRANCH   1   4
HETATM    4  N   UNL     1     -45.400 -52.659  15.331  1.00  0.00     0.101 N 
HETATM    5  C   UNL     1     -44.393 -51.875  14.598  1.00  0.00     0.274 C 
HETATM    6  C   UNL     1     -44.297 -52.236  13.111  1.00  0.00     0.036 C 
HETATM    7  C   UNL     1     -44.038 -53.738  12.898  1.00  0.00     0.007 C 
HETATM    8  C   UNL     1     -45.074 -54.546  13.698  1.00  0.00     0.036 C 
HETATM    9  C   UNL     1     -45.161 -54.101  15.163  1.00  0.00     0.274 C 
BRANCH   7  10
HETATM   10  C   UNL     1     -42.579 -54.078  13.256  1.00  0.00     0.127 C 
BRANCH  10  11
HETATM   11  N   UNL     1     -41.643 -53.036  12.886  1.00  0.00    -0.360 N 
HETATM   12  C   UNL     1     -40.784 -52.483  13.816  1.00  0.00     0.221 C 
HETATM   13  O   UNL     1     -40.715 -52.859  14.983  1.00  0.00    -0.273 OA
HETATM   14  H   UNL     1     -41.741 -52.594  11.983  1.00  0.00     0.162 HD
BRANCH  12  15
HETATM   15  C   UNL     1     -39.924 -51.350  13.293  1.00  0.00     0.142 C 
BRANCH  15  16
HETATM   16  C   UNL     1     -40.672 -50.334  12.475  1.00  0.00    -0.034 A 
HETATM   17  C   UNL     1     -41.751 -49.645  13.034  1.00  0.00     0.011 A 
HETATM   18  C   UNL     1     -42.428 -48.685  12.284  1.00  0.00     0.025 A 
HETATM   19  C   UNL     1     -42.018 -48.442  10.980  1.00  0.00     0.005 A 
HETATM   20  C   UNL     1     -42.643 -47.348  10.169  1.00  0.00     0.068 C 
HETATM   21  N   UNL     1     -41.008 -49.130  10.399  1.00  0.00    -0.369 N 
HETATM   22  C   UNL     1     -40.375 -50.065  11.143  1.00  0.00     0.095 A 
ATOM     23  HN  UNL     1     -40.734 -48.949   9.433  1.00  0.00     0.165 HD
ENDBRANCH  15  16
ENDBRANCH  12  15
ENDBRANCH  10  11
ENDBRANCH   7  10
ENDBRANCH   1   4
TORSDOF 5
ENDMDL
MODEL 8
REMARK VINA RESULT:      -5.4      4.159      6.762
REMARK  5 active torsions:
REMARK  status: ('A' for Active; 'I' for Inactive)
REMARK    1  A    between atoms: C_5  and  C_6 
REMARK    2  A    between atoms: C_6  and  C_7 
REMARK       I    between atoms: C_7  and  N_9 
REMARK    3  A    between atoms: N_9  and  C_10 
REMARK    4  A    between atoms: C_10  and  C_11 
REMARK    5  A    between atoms: N_14  and  C_15 
ROOT
HETATM    1  C   UNL     1     -45.692 -49.656  18.102  1.00  0.00     0.395 C 
HETATM    2  C   UNL     1     -44.378 -48.985  17.998  1.00  0.00     0.089 C 
HETATM    3  N   UNL     1     -43.362 -48.432  17.892  1.00  0.00    -0.195 NA
ENDROOT
BRANCH   1   4
HETATM    4  N   UNL     1     -45.664 -51.095  17.772  1.00  0.00     0.101 N 
HETATM    5  C   UNL     1     -44.941 -51.400  16.527  1.00  0.00     0.274 C 
HETATM    6  C   UNL     1     -45.690 -50.968  15.260  1.00  0.00     0.036 C 
HETATM    7  C   UNL     1     -47.107 -51.566  15.197  1.00  0.00     0.007 C 
HETATM    8  C   UNL     1     -47.838 -51.272  16.518  1.00  0.00     0.036 C 
HETATM    9  C   UNL     1     -47.015 -51.676  17.746  1.00  0.00     0.274 C 
BRANCH   7  10
HETATM   10  C   UNL     1     -47.032 -53.066  14.853  1.00  0.00     0.127 C 
BRANCH  10  11
HETATM   11  N   UNL     1     -46.098 -53.360  13.785  1.00  0.00    -0.360 N 
HETATM   12  C   UNL     1     -45.077 -54.274  13.960  1.00  0.00     0.221 C 
HETATM   13  O   UNL     1     -44.918 -54.925  14.988  1.00  0.00    -0.273 OA
HETATM   14  H   UNL     1     -46.093 -52.766  12.968  1.00  0.00     0.162 HD
BRANCH  12  15
HETATM   15  C   UNL     1     -44.138 -54.411  12.778  1.00  0.00     0.142 C 
BRANCH  15  16
HETATM   16  C   UNL     1     -42.866 -53.619  12.903  1.00  0.00    -0.034 A 
HETATM   17  C   UNL     1     -41.733 -54.202  13.474  1.00  0.00     0.011 A 
HETATM   18  C   UNL     1     -40.547 -53.476  13.568  1.00  0.00     0.025 A 
HETATM   19  C   UNL     1     -40.523 -52.170  13.097  1.00  0.00     0.005 A 
HETATM   20  C   UNL     1     -39.248 -51.384  13.077  1.00  0.00     0.068 C 
HETATM   21  N   UNL     1     -41.619 -51.565  12.585  1.00  0.00    -0.369 N 
HETATM   22  C   UNL     1     -42.761 -52.286  12.517  1.00  0.00     0.095 A 
ATOM     23  HN  UNL     1     -41.586 -50.598  12.262  1.00  0.00     0.165 HD
ENDBRANCH  15  16
ENDBRANCH  12  15
ENDBRANCH  10  11
ENDBRANCH   7  10
ENDBRANCH   1   4
TORSDOF 5
ENDMDL
MODEL 9
REMARK VINA RESULT:      -5.3      3.566      7.247
REMARK  5 active torsions:
REMARK  status: ('A' for Active; 'I' for Inactive)
REMARK    1  A    between atoms: C_5  and  C_6 
REMARK    2  A    between atoms: C_6  and  C_7 
REMARK       I    between atoms: C_7  and  N_9 
REMARK    3  A    between atoms: N_9  and  C_10 
REMARK    4  A    between atoms: C_10  and  C_11 
REMARK    5  A    between atoms: N_14  and  C_15 
ROOT
HETATM    1  C   UNL     1     -46.503 -49.608  18.105  1.00  0.00     0.395 C 
HETATM    2  C   UNL     1     -47.609 -49.332  19.047  1.00  0.00     0.089 C 
HETATM    3  N   UNL     1     -48.453 -49.093  19.808  1.00  0.00    -0.195 NA
ENDROOT
BRANCH   1   4
HETATM    4  N   UNL     1     -46.236 -51.045  17.889  1.00  0.00     0.101 N 
HETATM    5  C   UNL     1     -44.888 -51.322  17.368  1.00  0.00     0.274 C 
HETATM    6  C   UNL     1     -44.699 -50.911  15.903  1.00  0.00     0.036 C 
HETATM    7  C   UNL     1     -45.752 -51.555  14.984  1.00  0.00     0.007 C 
HETATM    8  C   UNL     1     -47.154 -51.289  15.559  1.00  0.00     0.036 C 
HETATM    9  C   UNL     1     -47.262 -51.670  17.041  1.00  0.00     0.274 C 
BRANCH   7  10
HETATM   10  C   UNL     1     -45.438 -53.050  14.788  1.00  0.00     0.127 C 
BRANCH  10  11
HETATM   11  N   UNL     1     -44.033 -53.312  14.552  1.00  0.00    -0.360 N 
HETATM   12  C   UNL     1     -43.602 -53.897  13.377  1.00  0.00     0.221 C 
HETATM   13  O   UNL     1     -44.352 -54.184  12.448  1.00  0.00    -0.273 OA
HETATM   14  H   UNL     1     -43.386 -53.223  15.323  1.00  0.00     0.162 HD
BRANCH  12  15
HETATM   15  C   UNL     1     -42.114 -54.178  13.315  1.00  0.00     0.142 C 
BRANCH  15  16
HETATM   16  C   UNL     1     -41.276 -52.992  12.925  1.00  0.00    -0.034 A 
HETATM   17  C   UNL     1     -40.233 -52.572  13.753  1.00  0.00     0.011 A 
HETATM   18  C   UNL     1     -39.441 -51.488  13.380  1.00  0.00     0.025 A 
HETATM   19  C   UNL     1     -39.719 -50.836  12.186  1.00  0.00     0.005 A 
HETATM   20  C   UNL     1     -38.832 -49.735  11.687  1.00  0.00     0.068 C 
HETATM   21  N   UNL     1     -40.753 -51.191  11.390  1.00  0.00    -0.369 N 
HETATM   22  C   UNL     1     -41.515 -52.238  11.781  1.00  0.00     0.095 A 
ATOM     23  HN  UNL     1     -40.951 -50.687  10.526  1.00  0.00     0.165 HD
ENDBRANCH  15  16
ENDBRANCH  12  15
ENDBRANCH  10  11
ENDBRANCH   7  10
ENDBRANCH   1   4
TORSDOF 5
ENDMDL
