MODEL 1
REMARK VINA RESULT:      -6.1      0.000      0.000
REMARK  4 active torsions:
REMARK  status: ('A' for Active; 'I' for Inactive)
REMARK    1  A    between atoms: O_1  and  C_2 
REMARK    2  A    between atoms: C_2  and  C_3 
REMARK    3  A    between atoms: C_3  and  N_9 
REMARK       I    between atoms: N_9  and  C_10 
REMARK       I    between atoms: C_10  and  N_12 
REMARK    4  A    between atoms: N_12  and  C_13 
ROOT
HETATM    1  N   UNL     1     -40.506 -49.400  10.702  1.00  0.00    -0.331 N 
HETATM    2  C   UNL     1     -41.687 -48.701  10.763  1.00  0.00     0.322 C 
HETATM    3  O   UNL     1     -42.347 -48.592  11.786  1.00  0.00    -0.247 OA
HETATM    4  N   UNL     1     -41.990 -48.112   9.557  1.00  0.00    -0.295 N 
HETATM    5  H   UNL     1     -40.290 -49.807   9.803  1.00  0.00     0.165 HD
HETATM    6  H   UNL     1     -41.207 -47.665   9.104  1.00  0.00     0.172 HD
ENDROOT
BRANCH   1   7
HETATM    7  C   UNL     1     -39.820 -49.944  11.902  1.00  0.00     0.059 C 
HETATM    8  C   UNL     1     -38.358 -50.330  11.583  1.00  0.00     0.059 C 
HETATM    9  C   UNL     1     -37.558 -50.628  12.845  1.00  0.00     0.170 C 
HETATM   10  O   UNL     1     -37.606 -49.528  13.749  1.00  0.00    -0.391 OA
HETATM   11  C   UNL     1     -38.932 -49.216  14.171  1.00  0.00     0.170 C 
HETATM   12  C   UNL     1     -39.798 -48.834  12.978  1.00  0.00     0.059 C 
BRANCH   7  13
HETATM   13  C   UNL     1     -40.603 -51.192  12.417  1.00  0.00     0.195 C 
BRANCH  13  14
HETATM   14  O   UNL     1     -40.334 -52.340  11.609  1.00  0.00    -0.398 OA
HETATM   15  H   UNL     1     -39.377 -52.336  11.435  1.00  0.00     0.209 HD
ENDBRANCH  13  14
ENDBRANCH   7  13
ENDBRANCH   1   7
BRANCH   4  16
HETATM   16  C   UNL     1     -43.186 -47.403   9.386  1.00  0.00     0.108 A 
HETATM   17  C   UNL     1     -43.178 -46.033   9.152  1.00  0.00     0.049 A 
HETATM   18  C   UNL     1     -44.385 -45.381   8.932  1.00  0.00     0.005 A 
HETATM   19  C   UNL     1     -45.559 -46.121   8.939  1.00  0.00     0.017 A 
HETATM   20  C   UNL     1     -45.475 -47.478   9.209  1.00  0.00     0.089 A 
HETATM   21  N   UNL     1     -44.318 -48.130   9.469  1.00  0.00    -0.352 N 
ATOM     22  HN  UNL     1     -44.304 -49.120   9.714  1.00  0.00     0.166 HD
ENDBRANCH   4  16
TORSDOF 4
ENDMDL
MODEL 2
REMARK VINA RESULT:      -5.9      4.052      6.459
REMARK  4 active torsions:
REMARK  status: ('A' for Active; 'I' for Inactive)
REMARK    1  A    between atoms: O_1  and  C_2 
REMARK    2  A    between atoms: C_2  and  C_3 
REMARK    3  A    between atoms: C_3  and  N_9 
REMARK       I    between atoms: N_9  and  C_10 
REMARK       I    between atoms: C_10  and  N_12 
REMARK    4  A    between atoms: N_12  and  C_13 
ROOT
HETATM    1  N   UNL     1     -44.005 -51.561  12.534  1.00  0.00    -0.331 N 
HETATM    2  C   UNL     1     -42.676 -51.351  12.814  1.00  0.00     0.322 C 
HETATM    3  O   UNL     1     -42.110 -51.847  13.776  1.00  0.00    -0.247 OA
HETATM    4  N   UNL     1     -42.074 -50.567  11.856  1.00  0.00    -0.295 N 
HETATM    5  H   UNL     1     -44.467 -50.808  12.045  1.00  0.00     0.165 HD
HETATM    6  H   UNL     1     -42.317 -50.809  10.907  1.00  0.00     0.172 HD
ENDROOT
BRANCH   1   7
HETATM    7  C   UNL     1     -44.843 -52.546  13.262  1.00  0.00     0.059 C 
HETATM    8  C   UNL     1     -44.429 -53.995  12.920  1.00  0.00     0.059 C 
HETATM    9  C   UNL     1     -45.082 -55.009  13.851  1.00  0.00     0.170 C 
HETATM   10  O   UNL     1     -44.794 -54.709  15.213  1.00  0.00    -0.391 OA
HETATM   11  C   UNL     1     -45.273 -53.425  15.610  1.00  0.00     0.170 C 
HETATM   12  C   UNL     1     -44.621 -52.329  14.777  1.00  0.00     0.059 C 
BRANCH   7  13
HETATM   13  C   UNL     1     -46.342 -52.315  12.890  1.00  0.00     0.195 C 
BRANCH  13  14
HETATM   14  O   UNL     1     -46.574 -52.569  11.502  1.00  0.00    -0.398 OA
HETATM   15  H   UNL     1     -46.307 -51.765  11.026  1.00  0.00     0.209 HD
ENDBRANCH  13  14
ENDBRANCH   7  13
ENDBRANCH   1   7
BRANCH   4  16
HETATM   16  C   UNL     1     -40.734 -50.181  11.985  1.00  0.00     0.108 A 
HETATM   17  C   UNL     1     -40.380 -48.837  12.045  1.00  0.00     0.049 A 
HETATM   18  C   UNL     1     -39.044 -48.502  12.229  1.00  0.00     0.005 A 
HETATM   19  C   UNL     1     -38.108 -49.519  12.361  1.00  0.00     0.017 A 
HETATM   20  C   UNL     1     -38.547 -50.829  12.259  1.00  0.00     0.089 A 
HETATM   21  N   UNL     1     -39.835 -51.183  12.037  1.00  0.00    -0.352 N 
ATOM     22  HN  UNL     1     -40.110 -52.158  11.917  1.00  0.00     0.166 HD
ENDBRANCH   4  16
TORSDOF 4
ENDMDL
MODEL 3
REMARK VINA RESULT:      -5.9      2.583      4.062
REMARK  4 active torsions:
REMARK  status: ('A' for Active; 'I' for Inactive)
REMARK    1  A    between atoms: O_1  and  C_2 
REMARK    2  A    between atoms: C_2  and  C_3 
REMARK    3  A    between atoms: C_3  and  N_9 
REMARK       I    between atoms: N_9  and  C_10 
REMARK       I    between atoms: C_10  and  N_12 
REMARK    4  A    between atoms: N_12  and  C_13 
ROOT
HETATM    1  N   UNL     1     -42.422 -50.942  11.982  1.00  0.00    -0.331 N 
HETATM    2  C   UNL     1     -41.861 -49.689  12.034  1.00  0.00     0.322 C 
HETATM    3  O   UNL     1     -41.129 -49.322  12.941  1.00  0.00    -0.247 OA
HETATM    4  N   UNL     1     -42.186 -48.942  10.925  1.00  0.00    -0.295 N 
HETATM    5  H   UNL     1     -43.308 -50.999  11.500  1.00  0.00     0.165 HD
HETATM    6  H   UNL     1     -42.123 -49.445  10.051  1.00  0.00     0.172 HD
ENDROOT
BRANCH   1   7
HETATM    7  C   UNL     1     -42.062 -52.034  12.921  1.00  0.00     0.059 C 
HETATM    8  C   UNL     1     -42.145 -51.559  14.390  1.00  0.00     0.059 C 
HETATM    9  C   UNL     1     -42.049 -52.721  15.371  1.00  0.00     0.170 C 
HETATM   10  O   UNL     1     -43.048 -53.700  15.099  1.00  0.00    -0.391 OA
HETATM   11  C   UNL     1     -42.931 -54.260  13.792  1.00  0.00     0.170 C 
HETATM   12  C   UNL     1     -43.084 -53.179  12.730  1.00  0.00     0.059 C 
BRANCH   7  13
HETATM   13  C   UNL     1     -40.617 -52.529  12.599  1.00  0.00     0.195 C 
BRANCH  13  14
HETATM   14  O   UNL     1     -40.581 -53.246  11.363  1.00  0.00    -0.398 OA
HETATM   15  H   UNL     1     -41.244 -52.832  10.785  1.00  0.00     0.209 HD
ENDBRANCH  13  14
ENDBRANCH   7  13
ENDBRANCH   1   7
BRANCH   4  16
HETATM   16  C   UNL     1     -41.766 -47.611  10.809  1.00  0.00     0.108 A 
HETATM   17  C   UNL     1     -42.688 -46.572  10.760  1.00  0.00     0.049 A 
HETATM   18  C   UNL     1     -42.224 -45.263  10.701  1.00  0.00     0.005 A 
HETATM   19  C   UNL     1     -40.855 -45.035  10.707  1.00  0.00     0.017 A 
HETATM   20  C   UNL     1     -40.009 -46.132  10.727  1.00  0.00     0.089 A 
HETATM   21  N   UNL     1     -40.433 -47.418  10.742  1.00  0.00    -0.352 N 
ATOM     22  HN  UNL     1     -39.779 -48.199  10.705  1.00  0.00     0.166 HD
ENDBRANCH   4  16
TORSDOF 4
ENDMDL
MODEL 4
REMARK VINA RESULT:      -5.8      3.728      5.493
REMARK  4 active torsions:
REMARK  status: ('A' for Active; 'I' for Inactive)
REMARK    1  A    between atoms: O_1  and  C_2 
REMARK    2  A    between atoms: C_2  and  C_3 
REMARK    3  A    between atoms: C_3  and  N_9 
REMARK       I    between atoms: N_9  and  C_10 
REMARK       I    between atoms: C_10  and  N_12 
REMARK    4  A    between atoms: N_12  and  C_13 
ROOT
HETATM    1  N   UNL     1     -39.635 -51.347  12.094  1.00  0.00    -0.331 N 
HETATM    2  C   UNL     1     -40.870 -51.659  12.609  1.00  0.00     0.322 C 
HETATM    3  O   UNL     1     -41.544 -50.869  13.253  1.00  0.00    -0.247 OA
HETATM    4  N   UNL     1     -41.256 -52.934  12.264  1.00  0.00    -0.295 N 
HETATM    5  H   UNL     1     -38.998 -52.125  11.997  1.00  0.00     0.165 HD
HETATM    6  H   UNL     1     -41.078 -53.176  11.300  1.00  0.00     0.172 HD
ENDROOT
BRANCH   1   7
HETATM    7  C   UNL     1     -39.069 -49.975  12.112  1.00  0.00     0.059 C 
HETATM    8  C   UNL     1     -40.083 -48.944  11.563  1.00  0.00     0.059 C 
HETATM    9  C   UNL     1     -39.636 -47.511  11.824  1.00  0.00     0.170 C 
HETATM   10  O   UNL     1     -39.398 -47.296  13.211  1.00  0.00    -0.391 OA
HETATM   11  C   UNL     1     -38.376 -48.142  13.734  1.00  0.00     0.170 C 
HETATM   12  C   UNL     1     -38.763 -49.608  13.582  1.00  0.00     0.059 C 
BRANCH   7  13
HETATM   13  C   UNL     1     -37.763 -49.948  11.257  1.00  0.00     0.195 C 
BRANCH  13  14
HETATM   14  O   UNL     1     -37.185 -51.252  11.159  1.00  0.00    -0.398 OA
HETATM   15  H   UNL     1     -36.257 -51.123  10.899  1.00  0.00     0.209 HD
ENDBRANCH  13  14
ENDBRANCH   7  13
ENDBRANCH   1   7
BRANCH   4  16
HETATM   16  C   UNL     1     -42.457 -53.473  12.740  1.00  0.00     0.108 A 
HETATM   17  C   UNL     1     -42.476 -54.307  13.853  1.00  0.00     0.049 A 
HETATM   18  C   UNL     1     -43.698 -54.774  14.323  1.00  0.00     0.005 A 
HETATM   19  C   UNL     1     -44.861 -54.381  13.675  1.00  0.00     0.017 A 
HETATM   20  C   UNL     1     -44.745 -53.572  12.556  1.00  0.00     0.089 A 
HETATM   21  N   UNL     1     -43.566 -53.138  12.051  1.00  0.00    -0.352 N 
ATOM     22  HN  UNL     1     -43.520 -52.586  11.195  1.00  0.00     0.166 HD
ENDBRANCH   4  16
TORSDOF 4
ENDMDL
MODEL 5
REMARK VINA RESULT:      -5.7      2.782      5.913
REMARK  4 active torsions:
REMARK  status: ('A' for Active; 'I' for Inactive)
REMARK    1  A    between atoms: O_1  and  C_2 
REMARK    2  A    between atoms: C_2  and  C_3 
REMARK    3  A    between atoms: C_3  and  N_9 
REMARK       I    between atoms: N_9  and  C_10 
REMARK       I    between atoms: C_10  and  N_12 
REMARK    4  A    between atoms: N_12  and  C_13 
ROOT
HETATM    1  N   UNL     1     -40.908 -48.721  11.013  1.00  0.00    -0.331 N 
HETATM    2  C   UNL     1     -41.522 -49.745  11.693  1.00  0.00     0.322 C 
HETATM    3  O   UNL     1     -42.480 -49.576  12.432  1.00  0.00    -0.247 OA
HETATM    4  N   UNL     1     -40.956 -50.963  11.393  1.00  0.00    -0.295 N 
HETATM    5  H   UNL     1     -39.926 -48.858  10.820  1.00  0.00     0.165 HD
HETATM    6  H   UNL     1     -40.766 -51.104  10.411  1.00  0.00     0.172 HD
ENDROOT
BRANCH   1   7
HETATM    7  C   UNL     1     -41.448 -47.339  10.964  1.00  0.00     0.059 C 
HETATM    8  C   UNL     1     -42.058 -46.928  12.323  1.00  0.00     0.059 C 
HETATM    9  C   UNL     1     -42.367 -45.436  12.382  1.00  0.00     0.170 C 
HETATM   10  O   UNL     1     -41.205 -44.665  12.094  1.00  0.00    -0.391 OA
HETATM   11  C   UNL     1     -40.679 -44.920  10.793  1.00  0.00     0.170 C 
HETATM   12  C   UNL     1     -40.273 -46.382  10.657  1.00  0.00     0.059 C 
BRANCH   7  13
HETATM   13  C   UNL     1     -42.531 -47.253   9.843  1.00  0.00     0.195 C 
BRANCH  13  14
HETATM   14  O   UNL     1     -43.737 -47.912  10.239  1.00  0.00    -0.398 OA
HETATM   15  H   UNL     1     -44.276 -47.246  10.699  1.00  0.00     0.209 HD
ENDBRANCH  13  14
ENDBRANCH   7  13
ENDBRANCH   1   7
BRANCH   4  16
HETATM   16  C   UNL     1     -41.393 -52.132  12.028  1.00  0.00     0.108 A 
HETATM   17  C   UNL     1     -40.515 -52.914  12.771  1.00  0.00     0.049 A 
HETATM   18  C   UNL     1     -41.006 -54.035  13.429  1.00  0.00     0.005 A 
HETATM   19  C   UNL     1     -42.359 -54.331  13.336  1.00  0.00     0.017 A 
HETATM   20  C   UNL     1     -43.153 -53.513  12.549  1.00  0.00     0.089 A 
HETATM   21  N   UNL     1     -42.695 -52.440  11.863  1.00  0.00    -0.352 N 
ATOM     22  HN  UNL     1     -43.302 -51.893  11.253  1.00  0.00     0.166 HD
ENDBRANCH   4  16
TORSDOF 4
ENDMDL
MODEL 6
REMARK VINA RESULT:      -5.7      4.156      5.674
REMARK  4 active torsions:
REMARK  status: ('A' for Active; 'I' for Inactive)
REMARK    1  A    between atoms: O_1  and  C_2 
REMARK    2  A    between atoms: C_2  and  C_3 
REMARK    3  A    between atoms: C_3  and  N_9 
REMARK       I    between atoms: N_9  and  C_10 
REMARK       I    between atoms: C_10  and  N_12 
REMARK    4  A    between atoms: N_12  and  C_13 
ROOT
HETATM    1  N   UNL     1     -42.215 -50.956  12.072  1.00  0.00    -0.331 N 
HETATM    2  C   UNL     1     -42.883 -51.753  12.970  1.00  0.00     0.322 C 
HETATM    3  O   UNL     1     -42.416 -52.077  14.052  1.00  0.00    -0.247 OA
HETATM    4  N   UNL     1     -44.139 -52.085  12.516  1.00  0.00    -0.295 N 
HETATM    5  H   UNL     1     -42.444 -51.113  11.100  1.00  0.00     0.165 HD
HETATM    6  H   UNL     1     -44.650 -51.316  12.106  1.00  0.00     0.172 HD
ENDROOT
BRANCH   1   7
HETATM    7  C   UNL     1     -40.941 -50.263  12.390  1.00  0.00     0.059 C 
HETATM    8  C   UNL     1     -41.026 -49.533  13.750  1.00  0.00     0.059 C 
HETATM    9  C   UNL     1     -39.660 -49.050  14.224  1.00  0.00     0.170 C 
HETATM   10  O   UNL     1     -38.732 -50.129  14.285  1.00  0.00    -0.391 OA
HETATM   11  C   UNL     1     -38.526 -50.754  13.020  1.00  0.00     0.170 C 
HETATM   12  C   UNL     1     -39.831 -51.334  12.490  1.00  0.00     0.059 C 
BRANCH   7  13
HETATM   13  C   UNL     1     -40.617 -49.242  11.254  1.00  0.00     0.195 C 
BRANCH  13  14
HETATM   14  O   UNL     1     -40.457 -49.903   9.996  1.00  0.00    -0.398 OA
HETATM   15  H   UNL     1     -40.040 -50.761  10.187  1.00  0.00     0.209 HD
ENDBRANCH  13  14
ENDBRANCH   7  13
ENDBRANCH   1   7
BRANCH   4  16
HETATM   16  C   UNL     1     -44.963 -52.943  13.253  1.00  0.00     0.108 A 
HETATM   17  C   UNL     1     -46.042 -52.451  13.981  1.00  0.00     0.049 A 
HETATM   18  C   UNL     1     -46.865 -53.347  14.651  1.00  0.00     0.005 A 
HETATM   19  C   UNL     1     -46.594 -54.706  14.562  1.00  0.00     0.017 A 
HETATM   20  C   UNL     1     -45.482 -55.104  13.838  1.00  0.00     0.089 A 
HETATM   21  N   UNL     1     -44.638 -54.251  13.211  1.00  0.00    -0.352 N 
ATOM     22  HN  UNL     1     -43.801 -54.581  12.731  1.00  0.00     0.166 HD
ENDBRANCH   4  16
TORSDOF 4
ENDMDL
MODEL 7
REMARK VINA RESULT:      -5.5      4.066      5.334
REMARK  4 active torsions:
REMARK  status: ('A' for Active; 'I' for Inactive)
REMARK    1  A    between atoms: O_1  and  C_2 
REMARK    2  A    between atoms: C_2  and  C_3 
REMARK    3  A    between atoms: C_3  and  N_9 
REMARK       I    between atoms: N_9  and  C_10 
REMARK       I    between atoms: C_10  and  N_12 
REMARK    4  A    between atoms: N_12  and  C_13 
ROOT
HETATM    1  N   UNL     1     -42.842 -49.437  11.981  1.00  0.00    -0.331 N 
HETATM    2  C   UNL     1     -43.273 -50.440  12.816  1.00  0.00     0.322 C 
HETATM    3  O   UNL     1     -42.531 -51.035  13.583  1.00  0.00    -0.247 OA
HETATM    4  N   UNL     1     -44.630 -50.639  12.709  1.00  0.00    -0.295 N 
HETATM    5  H   UNL     1     -43.364 -49.336  11.122  1.00  0.00     0.165 HD
HETATM    6  H   UNL     1     -45.175 -49.790  12.682  1.00  0.00     0.172 HD
ENDROOT
BRANCH   1   7
HETATM    7  C   UNL     1     -41.479 -48.853  12.047  1.00  0.00     0.059 C 
HETATM    8  C   UNL     1     -41.357 -47.611  11.136  1.00  0.00     0.059 C 
HETATM    9  C   UNL     1     -40.068 -46.839  11.393  1.00  0.00     0.170 C 
HETATM   10  O   UNL     1     -39.959 -46.473  12.765  1.00  0.00    -0.391 OA
HETATM   11  C   UNL     1     -39.939 -47.601  13.638  1.00  0.00     0.170 C 
HETATM   12  C   UNL     1     -41.226 -48.404  13.505  1.00  0.00     0.059 C 
BRANCH   7  13
HETATM   13  C   UNL     1     -40.438 -49.935  11.619  1.00  0.00     0.195 C 
BRANCH  13  14
HETATM   14  O   UNL     1     -40.398 -50.078  10.197  1.00  0.00    -0.398 OA
HETATM   15  H   UNL     1     -39.536 -49.732   9.909  1.00  0.00     0.209 HD
ENDBRANCH  13  14
ENDBRANCH   7  13
ENDBRANCH   1   7
BRANCH   4  16
HETATM   16  C   UNL     1     -45.264 -51.659  13.430  1.00  0.00     0.108 A 
HETATM   17  C   UNL     1     -46.265 -51.370  14.350  1.00  0.00     0.049 A 
HETATM   18  C   UNL     1     -46.904 -52.419  15.001  1.00  0.00     0.005 A 
HETATM   19  C   UNL     1     -46.532 -53.722  14.701  1.00  0.00     0.017 A 
HETATM   20  C   UNL     1     -45.504 -53.916  13.792  1.00  0.00     0.089 A 
HETATM   21  N   UNL     1     -44.836 -52.912  13.175  1.00  0.00    -0.352 N 
ATOM     22  HN  UNL     1     -44.050 -53.095  12.552  1.00  0.00     0.166 HD
ENDBRANCH   4  16
TORSDOF 4
ENDMDL
MODEL 8
REMARK VINA RESULT:      -5.3      3.885      4.931
REMARK  4 active torsions:
REMARK  status: ('A' for Active; 'I' for Inactive)
REMARK    1  A    between atoms: O_1  and  C_2 
REMARK    2  A    between atoms: C_2  and  C_3 
REMARK    3  A    between atoms: C_3  and  N_9 
REMARK       I    between atoms: N_9  and  C_10 
REMARK       I    between atoms: C_10  and  N_12 
REMARK    4  A    between atoms: N_12  and  C_13 
ROOT
HETATM    1  N   UNL     1     -41.156 -50.873  13.060  1.00  0.00    -0.331 N 
HETATM    2  C   UNL     1     -42.402 -50.530  13.526  1.00  0.00     0.322 C 
HETATM    3  O   UNL     1     -42.730 -49.378  13.771  1.00  0.00    -0.247 OA
HETATM    4  N   UNL     1     -43.226 -51.628  13.625  1.00  0.00    -0.295 N 
HETATM    5  H   UNL     1     -40.839 -51.798  13.314  1.00  0.00     0.165 HD
HETATM    6  H   UNL     1     -43.179 -52.255  12.835  1.00  0.00     0.172 HD
ENDROOT
BRANCH   1   7
HETATM    7  C   UNL     1     -40.141 -49.874  12.640  1.00  0.00     0.059 C 
HETATM    8  C   UNL     1     -39.878 -48.839  13.758  1.00  0.00     0.059 C 
HETATM    9  C   UNL     1     -38.657 -47.977  13.461  1.00  0.00     0.170 C 
HETATM   10  O   UNL     1     -37.505 -48.785  13.239  1.00  0.00    -0.391 OA
HETATM   11  C   UNL     1     -37.657 -49.671  12.131  1.00  0.00     0.170 C 
HETATM   12  C   UNL     1     -38.819 -50.628  12.365  1.00  0.00     0.059 C 
BRANCH   7  13
HETATM   13  C   UNL     1     -40.639 -49.151  11.348  1.00  0.00     0.195 C 
BRANCH  13  14
HETATM   14  O   UNL     1     -40.480 -49.985  10.198  1.00  0.00    -0.398 OA
HETATM   15  H   UNL     1     -41.329 -50.442  10.070  1.00  0.00     0.209 HD
ENDBRANCH  13  14
ENDBRANCH   7  13
ENDBRANCH   1   7
BRANCH   4  16
HETATM   16  C   UNL     1     -44.522 -51.507  14.139  1.00  0.00     0.108 A 
HETATM   17  C   UNL     1     -45.632 -51.573  13.305  1.00  0.00     0.049 A 
HETATM   18  C   UNL     1     -46.901 -51.504  13.867  1.00  0.00     0.005 A 
HETATM   19  C   UNL     1     -47.021 -51.387  15.245  1.00  0.00     0.017 A 
HETATM   20  C   UNL     1     -45.860 -51.299  15.996  1.00  0.00     0.089 A 
HETATM   21  N   UNL     1     -44.611 -51.321  15.471  1.00  0.00    -0.352 N 
ATOM     22  HN  UNL     1     -43.783 -51.202  16.054  1.00  0.00     0.166 HD
ENDBRANCH   4  16
TORSDOF 4
ENDMDL
MODEL 9
REMARK VINA RESULT:      -5.2      4.114      6.900
REMARK  4 active torsions:
REMARK  status: ('A' for Active; 'I' for Inactive)
REMARK    1  A    between atoms: O_1  and  C_2 
REMARK    2  A    between atoms: C_2  and  C_3 
REMARK    3  A    between atoms: C_3  and  N_9 
REMARK       I    between atoms: N_9  and  C_10 
REMARK       I    between atoms: C_10  and  N_12 
REMARK    4  A    between atoms: N_12  and  C_13 
ROOT
HETATM    1  N   UNL     1     -42.750 -52.240  14.385  1.00  0.00    -0.331 N 
HETATM    2  C   UNL     1     -41.866 -51.712  13.475  1.00  0.00     0.322 C 
HETATM    3  O   UNL     1     -42.126 -51.585  12.288  1.00  0.00    -0.247 OA
HETATM    4  N   UNL     1     -40.697 -51.308  14.080  1.00  0.00    -0.295 N 
HETATM    5  H   UNL     1     -42.329 -52.709  15.175  1.00  0.00     0.165 HD
HETATM    6  H   UNL     1     -40.829 -50.808  14.947  1.00  0.00     0.172 HD
ENDROOT
BRANCH   1   7
HETATM    7  C   UNL     1     -44.166 -52.545  14.060  1.00  0.00     0.059 C 
HETATM    8  C   UNL     1     -44.992 -52.802  15.342  1.00  0.00     0.059 C 
HETATM    9  C   UNL     1     -46.488 -52.845  15.057  1.00  0.00     0.170 C 
HETATM   10  O   UNL     1     -46.917 -51.650  14.410  1.00  0.00    -0.391 OA
HETATM   11  C   UNL     1     -46.271 -51.438  13.157  1.00  0.00     0.170 C 
HETATM   12  C   UNL     1     -44.764 -51.311  13.345  1.00  0.00     0.059 C 
BRANCH   7  13
HETATM   13  C   UNL     1     -44.219 -53.797  13.129  1.00  0.00     0.195 C 
BRANCH  13  14
HETATM   14  O   UNL     1     -44.184 -53.417  11.751  1.00  0.00    -0.398 OA
HETATM   15  H   UNL     1     -43.280 -53.105  11.575  1.00  0.00     0.209 HD
ENDBRANCH  13  14
ENDBRANCH   7  13
ENDBRANCH   1   7
BRANCH   4  16
HETATM   16  C   UNL     1     -39.637 -50.799  13.321  1.00  0.00     0.108 A 
HETATM   17  C   UNL     1     -38.378 -51.388  13.364  1.00  0.00     0.049 A 
HETATM   18  C   UNL     1     -37.370 -50.883  12.552  1.00  0.00     0.005 A 
HETATM   19  C   UNL     1     -37.656 -49.815  11.712  1.00  0.00     0.017 A 
HETATM   20  C   UNL     1     -38.931 -49.272  11.756  1.00  0.00     0.089 A 
HETATM   21  N   UNL     1     -39.919 -49.717  12.568  1.00  0.00    -0.352 N 
ATOM     22  HN  UNL     1     -40.828 -49.257  12.608  1.00  0.00     0.166 HD
ENDBRANCH   4  16
TORSDOF 4
ENDMDL
