MODEL 1
REMARK VINA RESULT:      -6.8      0.000      0.000
REMARK  4 active torsions:
REMARK  status: ('A' for Active; 'I' for Inactive)
REMARK    1  A    between atoms: O_1  and  C_2 
REMARK    2  A    between atoms: C_2  and  C_3 
REMARK    3  A    between atoms: C_3  and  N_4 
REMARK       I    between atoms: N_4  and  C_5 
REMARK       I    between atoms: C_5  and  N_7 
REMARK    4  A    between atoms: N_7  and  C_8 
ROOT
HETATM    1  N   UNL     1     -40.593 -50.364  11.035  1.00  0.00    -0.340 N 
HETATM    2  C   UNL     1     -41.403 -49.259  11.190  1.00  0.00     0.320 C 
HETATM    3  O   UNL     1     -41.800 -48.874  12.283  1.00  0.00    -0.247 OA
HETATM    4  N   UNL     1     -41.617 -48.635   9.980  1.00  0.00    -0.309 N 
HETATM    5  H   UNL     1     -40.733 -50.892  10.186  1.00  0.00     0.164 HD
HETATM    6  H   UNL     1     -40.856 -48.760   9.329  1.00  0.00     0.170 HD
ENDROOT
BRANCH   1   7
HETATM    7  C   UNL     1     -40.143 -51.081  12.214  1.00  0.00     0.162 C 
BRANCH   7   8
HETATM    8  C   UNL     1     -40.822 -52.456  12.409  1.00  0.00     0.074 C 
HETATM    9  C   UNL     1     -40.239 -53.136  13.663  1.00  0.00     0.039 C 
HETATM   10  C   UNL     1     -40.942 -54.449  14.007  1.00  0.00     0.003 C 
HETATM   11  C   UNL     1     -42.449 -54.259  14.133  1.00  0.00     0.000 C 
HETATM   12  C   UNL     1     -43.033 -53.634  12.874  1.00  0.00     0.003 C 
HETATM   13  C   UNL     1     -42.349 -52.310  12.533  1.00  0.00     0.039 C 
BRANCH   8  14
HETATM   14  O   UNL     1     -40.552 -53.285  11.268  1.00  0.00    -0.388 OA
HETATM   15  H   UNL     1     -41.032 -52.910  10.508  1.00  0.00     0.210 HD
ENDBRANCH   8  14
ENDBRANCH   7   8
ENDBRANCH   1   7
BRANCH   4  16
HETATM   16  C   UNL     1     -42.382 -47.456   9.853  1.00  0.00     0.038 A 
HETATM   17  C   UNL     1     -43.557 -47.505   9.111  1.00  0.00     0.046 A 
HETATM   18  C   UNL     1     -44.268 -46.329   8.939  1.00  0.00     0.090 A 
HETATM   19  N   UNL     1     -43.917 -45.149   9.492  1.00  0.00    -0.375 N 
HETATM   20  C   UNL     1     -42.792 -45.143  10.239  1.00  0.00     0.090 A 
ATOM     21  HN  UNL     1     -44.473 -44.306   9.354  1.00  0.00     0.164 HD
HETATM   22  C   UNL     1     -41.993 -46.256  10.441  1.00  0.00     0.046 A 
ENDBRANCH   4  16
TORSDOF 4
ENDMDL
MODEL 2
REMARK VINA RESULT:      -6.2      1.411      1.869
REMARK  4 active torsions:
REMARK  status: ('A' for Active; 'I' for Inactive)
REMARK    1  A    between atoms: O_1  and  C_2 
REMARK    2  A    between atoms: C_2  and  C_3 
REMARK    3  A    between atoms: C_3  and  N_4 
REMARK       I    between atoms: N_4  and  C_5 
REMARK       I    between atoms: C_5  and  N_7 
REMARK    4  A    between atoms: N_7  and  C_8 
ROOT
HETATM    1  N   UNL     1     -40.500 -50.299  11.255  1.00  0.00    -0.340 N 
HETATM    2  C   UNL     1     -40.607 -48.989  11.670  1.00  0.00     0.320 C 
HETATM    3  O   UNL     1     -40.344 -48.630  12.812  1.00  0.00    -0.247 OA
HETATM    4  N   UNL     1     -40.961 -48.169  10.620  1.00  0.00    -0.309 N 
HETATM    5  H   UNL     1     -41.171 -50.592  10.560  1.00  0.00     0.164 HD
HETATM    6  H   UNL     1     -40.645 -48.513   9.725  1.00  0.00     0.170 HD
ENDROOT
BRANCH   1   7
HETATM    7  C   UNL     1     -40.009 -51.298  12.187  1.00  0.00     0.162 C 
BRANCH   7   8
HETATM    8  C   UNL     1     -40.932 -52.529  12.332  1.00  0.00     0.074 C 
HETATM    9  C   UNL     1     -40.619 -53.243  13.661  1.00  0.00     0.039 C 
HETATM   10  C   UNL     1     -41.572 -54.403  13.949  1.00  0.00     0.003 C 
HETATM   11  C   UNL     1     -43.028 -53.958  13.893  1.00  0.00     0.000 C 
HETATM   12  C   UNL     1     -43.351 -53.297  12.560  1.00  0.00     0.003 C 
HETATM   13  C   UNL     1     -42.415 -52.123  12.271  1.00  0.00     0.039 C 
BRANCH   8  14
HETATM   14  O   UNL     1     -40.682 -53.439  11.250  1.00  0.00    -0.388 OA
HETATM   15  H   UNL     1     -40.199 -52.953  10.558  1.00  0.00     0.210 HD
ENDBRANCH   8  14
ENDBRANCH   7   8
ENDBRANCH   1   7
BRANCH   4  16
HETATM   16  C   UNL     1     -41.105 -46.772  10.756  1.00  0.00     0.038 A 
HETATM   17  C   UNL     1     -39.966 -45.978  10.672  1.00  0.00     0.046 A 
HETATM   18  C   UNL     1     -40.107 -44.614  10.870  1.00  0.00     0.090 A 
HETATM   19  N   UNL     1     -41.291 -44.004  11.087  1.00  0.00    -0.375 N 
HETATM   20  C   UNL     1     -42.383 -44.798  11.126  1.00  0.00     0.090 A 
ATOM     21  HN  UNL     1     -41.357 -42.994  11.216  1.00  0.00     0.164 HD
HETATM   22  C   UNL     1     -42.342 -46.174  10.976  1.00  0.00     0.046 A 
ENDBRANCH   4  16
TORSDOF 4
ENDMDL
MODEL 3
REMARK VINA RESULT:      -6.2      2.248      2.915
REMARK  4 active torsions:
REMARK  status: ('A' for Active; 'I' for Inactive)
REMARK    1  A    between atoms: O_1  and  C_2 
REMARK    2  A    between atoms: C_2  and  C_3 
REMARK    3  A    between atoms: C_3  and  N_4 
REMARK       I    between atoms: N_4  and  C_5 
REMARK       I    between atoms: C_5  and  N_7 
REMARK    4  A    between atoms: N_7  and  C_8 
ROOT
HETATM    1  N   UNL     1     -42.156 -51.615  12.078  1.00  0.00    -0.340 N 
HETATM    2  C   UNL     1     -42.130 -50.239  12.138  1.00  0.00     0.320 C 
HETATM    3  O   UNL     1     -42.482 -49.610  13.129  1.00  0.00    -0.247 OA
HETATM    4  N   UNL     1     -41.590 -49.708  10.987  1.00  0.00    -0.309 N 
HETATM    5  H   UNL     1     -42.358 -52.009  11.171  1.00  0.00     0.164 HD
HETATM    6  H   UNL     1     -40.924 -50.322  10.541  1.00  0.00     0.170 HD
ENDROOT
BRANCH   1   7
HETATM    7  C   UNL     1     -42.569 -52.366  13.250  1.00  0.00     0.162 C 
BRANCH   7   8
HETATM    8  C   UNL     1     -43.988 -52.970  13.141  1.00  0.00     0.074 C 
HETATM    9  C   UNL     1     -44.036 -54.296  13.924  1.00  0.00     0.039 C 
HETATM   10  C   UNL     1     -45.438 -54.903  13.977  1.00  0.00     0.003 C 
HETATM   11  C   UNL     1     -46.459 -53.907  14.516  1.00  0.00     0.000 C 
HETATM   12  C   UNL     1     -46.446 -52.615  13.710  1.00  0.00     0.003 C 
HETATM   13  C   UNL     1     -45.051 -51.990  13.668  1.00  0.00     0.039 C 
BRANCH   8  14
HETATM   14  O   UNL     1     -44.284 -53.238  11.762  1.00  0.00    -0.388 OA
HETATM   15  H   UNL     1     -44.964 -52.603  11.475  1.00  0.00     0.210 HD
ENDBRANCH   8  14
ENDBRANCH   7   8
ENDBRANCH   1   7
BRANCH   4  16
HETATM   16  C   UNL     1     -41.410 -48.322  10.796  1.00  0.00     0.038 A 
HETATM   17  C   UNL     1     -42.410 -47.608  10.143  1.00  0.00     0.046 A 
HETATM   18  C   UNL     1     -42.197 -46.260   9.903  1.00  0.00     0.090 A 
HETATM   19  N   UNL     1     -41.101 -45.587  10.312  1.00  0.00    -0.375 N 
HETATM   20  C   UNL     1     -40.166 -46.299  10.976  1.00  0.00     0.090 A 
ATOM     21  HN  UNL     1     -40.985 -44.590  10.128  1.00  0.00     0.164 HD
HETATM   22  C   UNL     1     -40.269 -47.656  11.234  1.00  0.00     0.046 A 
ENDBRANCH   4  16
TORSDOF 4
ENDMDL
MODEL 4
REMARK VINA RESULT:      -6.2      2.994      6.463
REMARK  4 active torsions:
REMARK  status: ('A' for Active; 'I' for Inactive)
REMARK    1  A    between atoms: O_1  and  C_2 
REMARK    2  A    between atoms: C_2  and  C_3 
REMARK    3  A    between atoms: C_3  and  N_4 
REMARK       I    between atoms: N_4  and  C_5 
REMARK       I    between atoms: C_5  and  N_7 
REMARK    4  A    between atoms: N_7  and  C_8 
ROOT
HETATM    1  N   UNL     1     -41.304 -51.927  11.637  1.00  0.00    -0.340 N 
HETATM    2  C   UNL     1     -42.197 -52.388  12.581  1.00  0.00     0.320 C 
HETATM    3  O   UNL     1     -41.954 -52.389  13.781  1.00  0.00    -0.247 OA
HETATM    4  N   UNL     1     -43.388 -52.754  11.991  1.00  0.00    -0.309 N 
HETATM    5  H   UNL     1     -41.327 -52.401  10.746  1.00  0.00     0.164 HD
HETATM    6  H   UNL     1     -43.588 -52.237  11.147  1.00  0.00     0.170 HD
ENDROOT
BRANCH   1   7
HETATM    7  C   UNL     1     -40.037 -51.370  12.076  1.00  0.00     0.162 C 
BRANCH   7   8
HETATM    8  C   UNL     1     -39.854 -49.876  11.727  1.00  0.00     0.074 C 
HETATM    9  C   UNL     1     -41.186 -49.313  11.194  1.00  0.00     0.039 C 
HETATM   10  C   UNL     1     -41.134 -47.806  10.941  1.00  0.00     0.003 C 
HETATM   11  C   UNL     1     -40.670 -47.047  12.178  1.00  0.00     0.000 C 
HETATM   12  C   UNL     1     -39.329 -47.569  12.674  1.00  0.00     0.003 C 
HETATM   13  C   UNL     1     -39.376 -49.073  12.950  1.00  0.00     0.039 C 
BRANCH   8  14
HETATM   14  O   UNL     1     -38.857 -49.747  10.701  1.00  0.00    -0.388 OA
HETATM   15  H   UNL     1     -38.137 -49.195  11.054  1.00  0.00     0.210 HD
ENDBRANCH   8  14
ENDBRANCH   7   8
ENDBRANCH   1   7
BRANCH   4  16
HETATM   16  C   UNL     1     -44.492 -53.227  12.730  1.00  0.00     0.038 A 
HETATM   17  C   UNL     1     -45.526 -52.342  13.016  1.00  0.00     0.046 A 
HETATM   18  C   UNL     1     -46.576 -52.798  13.796  1.00  0.00     0.090 A 
HETATM   19  N   UNL     1     -46.683 -54.065  14.250  1.00  0.00    -0.375 N 
HETATM   20  C   UNL     1     -45.682 -54.910  13.923  1.00  0.00     0.090 A 
ATOM     21  HN  UNL     1     -47.479 -54.368  14.811  1.00  0.00     0.164 HD
HETATM   22  C   UNL     1     -44.573 -54.542  13.179  1.00  0.00     0.046 A 
ENDBRANCH   4  16
TORSDOF 4
ENDMDL
MODEL 5
REMARK VINA RESULT:      -6.1      3.240      4.905
REMARK  4 active torsions:
REMARK  status: ('A' for Active; 'I' for Inactive)
REMARK    1  A    between atoms: O_1  and  C_2 
REMARK    2  A    between atoms: C_2  and  C_3 
REMARK    3  A    between atoms: C_3  and  N_4 
REMARK       I    between atoms: N_4  and  C_5 
REMARK       I    between atoms: C_5  and  N_7 
REMARK    4  A    between atoms: N_7  and  C_8 
ROOT
HETATM    1  N   UNL     1     -43.156 -52.887  12.004  1.00  0.00    -0.340 N 
HETATM    2  C   UNL     1     -42.169 -52.089  12.542  1.00  0.00     0.320 C 
HETATM    3  O   UNL     1     -41.823 -52.160  13.715  1.00  0.00    -0.247 OA
HETATM    4  N   UNL     1     -41.601 -51.292  11.572  1.00  0.00    -0.309 N 
HETATM    5  H   UNL     1     -43.714 -52.462  11.278  1.00  0.00     0.164 HD
HETATM    6  H   UNL     1     -41.633 -51.704  10.651  1.00  0.00     0.170 HD
ENDROOT
BRANCH   1   7
HETATM    7  C   UNL     1     -43.786 -53.893  12.841  1.00  0.00     0.162 C 
BRANCH   7   8
HETATM    8  C   UNL     1     -45.114 -53.434  13.483  1.00  0.00     0.074 C 
HETATM    9  C   UNL     1     -44.901 -53.226  14.995  1.00  0.00     0.039 C 
HETATM   10  C   UNL     1     -46.133 -52.649  15.693  1.00  0.00     0.003 C 
HETATM   11  C   UNL     1     -46.606 -51.365  15.022  1.00  0.00     0.000 C 
HETATM   12  C   UNL     1     -46.865 -51.583  13.537  1.00  0.00     0.003 C 
HETATM   13  C   UNL     1     -45.632 -52.142  12.826  1.00  0.00     0.039 C 
BRANCH   8  14
HETATM   14  O   UNL     1     -46.110 -54.451  13.293  1.00  0.00    -0.388 OA
HETATM   15  H   UNL     1     -46.362 -54.788  14.171  1.00  0.00     0.210 HD
ENDBRANCH   8  14
ENDBRANCH   7   8
ENDBRANCH   1   7
BRANCH   4  16
HETATM   16  C   UNL     1     -40.539 -50.402  11.839  1.00  0.00     0.038 A 
HETATM   17  C   UNL     1     -40.774 -49.036  11.722  1.00  0.00     0.046 A 
HETATM   18  C   UNL     1     -39.709 -48.173  11.924  1.00  0.00     0.090 A 
HETATM   19  N   UNL     1     -38.471 -48.576  12.281  1.00  0.00    -0.375 N 
HETATM   20  C   UNL     1     -38.286 -49.905  12.425  1.00  0.00     0.090 A 
ATOM     21  HN  UNL     1     -37.715 -47.909  12.434  1.00  0.00     0.164 HD
HETATM   22  C   UNL     1     -39.275 -50.850  12.210  1.00  0.00     0.046 A 
ENDBRANCH   4  16
TORSDOF 4
ENDMDL
MODEL 6
REMARK VINA RESULT:      -6.0      3.497      6.396
REMARK  4 active torsions:
REMARK  status: ('A' for Active; 'I' for Inactive)
REMARK    1  A    between atoms: O_1  and  C_2 
REMARK    2  A    between atoms: C_2  and  C_3 
REMARK    3  A    between atoms: C_3  and  N_4 
REMARK       I    between atoms: N_4  and  C_5 
REMARK       I    between atoms: C_5  and  N_7 
REMARK    4  A    between atoms: N_7  and  C_8 
ROOT
HETATM    1  N   UNL     1     -42.704 -50.466  12.266  1.00  0.00    -0.340 N 
HETATM    2  C   UNL     1     -43.253 -51.412  13.105  1.00  0.00     0.320 C 
HETATM    3  O   UNL     1     -42.797 -51.662  14.214  1.00  0.00    -0.247 OA
HETATM    4  N   UNL     1     -44.397 -51.949  12.555  1.00  0.00    -0.309 N 
HETATM    5  H   UNL     1     -42.771 -50.667  11.279  1.00  0.00     0.164 HD
HETATM    6  H   UNL     1     -44.880 -51.310  11.940  1.00  0.00     0.170 HD
ENDROOT
BRANCH   1   7
HETATM    7  C   UNL     1     -41.565 -49.691  12.725  1.00  0.00     0.162 C 
BRANCH   7   8
HETATM    8  C   UNL     1     -40.197 -50.280  12.310  1.00  0.00     0.074 C 
HETATM    9  C   UNL     1     -39.291 -49.143  11.798  1.00  0.00     0.039 C 
HETATM   10  C   UNL     1     -37.871 -49.614  11.483  1.00  0.00     0.003 C 
HETATM   11  C   UNL     1     -37.241 -50.326  12.674  1.00  0.00     0.000 C 
HETATM   12  C   UNL     1     -38.112 -51.481  13.149  1.00  0.00     0.003 C 
HETATM   13  C   UNL     1     -39.530 -51.017  13.485  1.00  0.00     0.039 C 
BRANCH   8  14
HETATM   14  O   UNL     1     -40.391 -51.229  11.251  1.00  0.00    -0.388 OA
HETATM   15  H   UNL     1     -40.570 -50.731  10.434  1.00  0.00     0.210 HD
ENDBRANCH   8  14
ENDBRANCH   7   8
ENDBRANCH   1   7
BRANCH   4  16
HETATM   16  C   UNL     1     -45.183 -52.916  13.218  1.00  0.00     0.038 A 
HETATM   17  C   UNL     1     -46.288 -52.486  13.945  1.00  0.00     0.046 A 
HETATM   18  C   UNL     1     -47.015 -53.434  14.645  1.00  0.00     0.090 A 
HETATM   19  N   UNL     1     -46.748 -54.757  14.621  1.00  0.00    -0.375 N 
HETATM   20  C   UNL     1     -45.692 -55.147  13.875  1.00  0.00     0.090 A 
ATOM     21  HN  UNL     1     -47.315 -55.428  15.139  1.00  0.00     0.164 HD
HETATM   22  C   UNL     1     -44.882 -54.273  13.169  1.00  0.00     0.046 A 
ENDBRANCH   4  16
TORSDOF 4
ENDMDL
MODEL 7
REMARK VINA RESULT:      -6.0      3.359      6.420
REMARK  4 active torsions:
REMARK  status: ('A' for Active; 'I' for Inactive)
REMARK    1  A    between atoms: O_1  and  C_2 
REMARK    2  A    between atoms: C_2  and  C_3 
REMARK    3  A    between atoms: C_3  and  N_4 
REMARK       I    between atoms: N_4  and  C_5 
REMARK       I    between atoms: C_5  and  N_7 
REMARK    4  A    between atoms: N_7  and  C_8 
ROOT
HETATM    1  N   UNL     1     -40.819 -51.214  11.255  1.00  0.00    -0.340 N 
HETATM    2  C   UNL     1     -41.762 -51.571  12.194  1.00  0.00     0.320 C 
HETATM    3  O   UNL     1     -42.193 -50.789  13.034  1.00  0.00    -0.247 OA
HETATM    4  N   UNL     1     -42.188 -52.867  11.995  1.00  0.00    -0.309 N 
HETATM    5  H   UNL     1     -40.176 -51.944  10.983  1.00  0.00     0.164 HD
HETATM    6  H   UNL     1     -42.131 -53.159  11.030  1.00  0.00     0.170 HD
ENDROOT
BRANCH   1   7
HETATM    7  C   UNL     1     -40.343 -49.843  11.216  1.00  0.00     0.162 C 
BRANCH   7   8
HETATM    8  C   UNL     1     -38.993 -49.627  11.936  1.00  0.00     0.074 C 
HETATM    9  C   UNL     1     -39.139 -48.478  12.953  1.00  0.00     0.039 C 
HETATM   10  C   UNL     1     -37.885 -48.275  13.803  1.00  0.00     0.003 C 
HETATM   11  C   UNL     1     -37.461 -49.568  14.490  1.00  0.00     0.000 C 
HETATM   12  C   UNL     1     -37.268 -50.691  13.481  1.00  0.00     0.003 C 
HETATM   13  C   UNL     1     -38.524 -50.914  12.638  1.00  0.00     0.039 C 
BRANCH   8  14
HETATM   14  O   UNL     1     -37.993 -49.264  10.971  1.00  0.00    -0.388 OA
HETATM   15  H   UNL     1     -37.123 -49.494  11.344  1.00  0.00     0.210 HD
ENDBRANCH   8  14
ENDBRANCH   7   8
ENDBRANCH   1   7
BRANCH   4  16
HETATM   16  C   UNL     1     -43.179 -53.477  12.792  1.00  0.00     0.038 A 
HETATM   17  C   UNL     1     -42.775 -54.236  13.886  1.00  0.00     0.046 A 
HETATM   18  C   UNL     1     -43.752 -54.883  14.625  1.00  0.00     0.090 A 
HETATM   19  N   UNL     1     -45.075 -54.778  14.380  1.00  0.00    -0.375 N 
HETATM   20  C   UNL     1     -45.437 -54.003  13.335  1.00  0.00     0.090 A 
ATOM     21  HN  UNL     1     -45.766 -55.260  14.955  1.00  0.00     0.164 HD
HETATM   22  C   UNL     1     -44.536 -53.345  12.514  1.00  0.00     0.046 A 
ENDBRANCH   4  16
TORSDOF 4
ENDMDL
MODEL 8
REMARK VINA RESULT:      -5.9      2.225      6.804
REMARK  4 active torsions:
REMARK  status: ('A' for Active; 'I' for Inactive)
REMARK    1  A    between atoms: O_1  and  C_2 
REMARK    2  A    between atoms: C_2  and  C_3 
REMARK    3  A    between atoms: C_3  and  N_4 
REMARK       I    between atoms: N_4  and  C_5 
REMARK       I    between atoms: C_5  and  N_7 
REMARK    4  A    between atoms: N_7  and  C_8 
ROOT
HETATM    1  N   UNL     1     -40.885 -50.802  11.187  1.00  0.00    -0.340 N 
HETATM    2  C   UNL     1     -41.472 -51.477  12.236  1.00  0.00     0.320 C 
HETATM    3  O   UNL     1     -41.291 -51.170  13.408  1.00  0.00    -0.247 OA
HETATM    4  N   UNL     1     -42.323 -52.458  11.773  1.00  0.00    -0.309 N 
HETATM    5  H   UNL     1     -40.653 -51.364  10.381  1.00  0.00     0.164 HD
HETATM    6  H   UNL     1     -42.724 -52.242  10.872  1.00  0.00     0.170 HD
ENDROOT
BRANCH   1   7
HETATM    7  C   UNL     1     -40.056 -49.644  11.468  1.00  0.00     0.162 C 
BRANCH   7   8
HETATM    8  C   UNL     1     -40.842 -48.317  11.563  1.00  0.00     0.074 C 
HETATM    9  C   UNL     1     -39.859 -47.136  11.445  1.00  0.00     0.039 C 
HETATM   10  C   UNL     1     -40.564 -45.780  11.402  1.00  0.00     0.003 C 
HETATM   11  C   UNL     1     -41.617 -45.732  10.302  1.00  0.00     0.000 C 
HETATM   12  C   UNL     1     -42.618 -46.869  10.448  1.00  0.00     0.003 C 
HETATM   13  C   UNL     1     -41.925 -48.232  10.472  1.00  0.00     0.039 C 
BRANCH   8  14
HETATM   14  O   UNL     1     -41.498 -48.245  12.838  1.00  0.00    -0.388 OA
HETATM   15  H   UNL     1     -40.981 -47.645  13.405  1.00  0.00     0.210 HD
ENDBRANCH   8  14
ENDBRANCH   7   8
ENDBRANCH   1   7
BRANCH   4  16
HETATM   16  C   UNL     1     -43.083 -53.278  12.633  1.00  0.00     0.038 A 
HETATM   17  C   UNL     1     -44.468 -53.260  12.512  1.00  0.00     0.046 A 
HETATM   18  C   UNL     1     -45.209 -54.019  13.403  1.00  0.00     0.090 A 
HETATM   19  N   UNL     1     -44.665 -54.817  14.346  1.00  0.00    -0.375 N 
HETATM   20  C   UNL     1     -43.317 -54.842  14.413  1.00  0.00     0.090 A 
ATOM     21  HN  UNL     1     -45.244 -55.373  14.976  1.00  0.00     0.164 HD
HETATM   22  C   UNL     1     -42.490 -54.093  13.593  1.00  0.00     0.046 A 
ENDBRANCH   4  16
TORSDOF 4
ENDMDL
MODEL 9
REMARK VINA RESULT:      -5.9      1.850      6.913
REMARK  4 active torsions:
REMARK  status: ('A' for Active; 'I' for Inactive)
REMARK    1  A    between atoms: O_1  and  C_2 
REMARK    2  A    between atoms: C_2  and  C_3 
REMARK    3  A    between atoms: C_3  and  N_4 
REMARK       I    between atoms: N_4  and  C_5 
REMARK       I    between atoms: C_5  and  N_7 
REMARK    4  A    between atoms: N_7  and  C_8 
ROOT
HETATM    1  N   UNL     1     -41.084 -48.930  10.538  1.00  0.00    -0.340 N 
HETATM    2  C   UNL     1     -41.416 -49.763  11.585  1.00  0.00     0.320 C 
HETATM    3  O   UNL     1     -41.990 -49.368  12.592  1.00  0.00    -0.247 OA
HETATM    4  N   UNL     1     -41.089 -51.070  11.294  1.00  0.00    -0.309 N 
HETATM    5  H   UNL     1     -40.233 -49.164  10.047  1.00  0.00     0.164 HD
HETATM    6  H   UNL     1     -41.115 -51.275  10.306  1.00  0.00     0.170 HD
ENDROOT
BRANCH   1   7
HETATM    7  C   UNL     1     -41.469 -47.531  10.598  1.00  0.00     0.162 C 
BRANCH   7   8
HETATM    8  C   UNL     1     -42.669 -47.172   9.693  1.00  0.00     0.074 C 
HETATM    9  C   UNL     1     -42.689 -48.120   8.478  1.00  0.00     0.039 C 
HETATM   10  C   UNL     1     -43.918 -47.919   7.590  1.00  0.00     0.003 C 
HETATM   11  C   UNL     1     -45.210 -48.023   8.392  1.00  0.00     0.000 C 
HETATM   12  C   UNL     1     -45.211 -47.051   9.563  1.00  0.00     0.003 C 
HETATM   13  C   UNL     1     -43.996 -47.256  10.468  1.00  0.00     0.039 C 
BRANCH   8  14
HETATM   14  O   UNL     1     -42.521 -45.823   9.223  1.00  0.00    -0.388 OA
HETATM   15  H   UNL     1     -43.406 -45.491   8.989  1.00  0.00     0.210 HD
ENDBRANCH   8  14
ENDBRANCH   7   8
ENDBRANCH   1   7
BRANCH   4  16
HETATM   16  C   UNL     1     -41.354 -52.138  12.177  1.00  0.00     0.038 A 
HETATM   17  C   UNL     1     -40.309 -52.633  12.950  1.00  0.00     0.046 A 
HETATM   18  C   UNL     1     -40.563 -53.723  13.766  1.00  0.00     0.090 A 
HETATM   19  N   UNL     1     -41.777 -54.299  13.897  1.00  0.00    -0.375 N 
HETATM   20  C   UNL     1     -42.779 -53.772  13.162  1.00  0.00     0.090 A 
ATOM     21  HN  UNL     1     -41.928 -55.093  14.519  1.00  0.00     0.164 HD
HETATM   22  C   UNL     1     -42.619 -52.707  12.290  1.00  0.00     0.046 A 
ENDBRANCH   4  16
TORSDOF 4
ENDMDL
