MODEL 1
REMARK VINA RESULT:      -7.2      0.000      0.000
REMARK  3 active torsions:
REMARK  status: ('A' for Active; 'I' for Inactive)
REMARK    1  A    between atoms: N_1  and  C_10 
REMARK    2  A    between atoms: N_2  and  C_7 
REMARK    3  A    between atoms: C_10  and  C_12 
ROOT
HETATM    1  N   UNL     1     -40.562 -51.209  12.403  1.00  0.00    -0.258 N 
HETATM    2  N   UNL     1     -40.155 -48.913  12.793  1.00  0.00    -0.279 N 
HETATM    3  C   UNL     1     -41.017 -49.895  12.297  1.00  0.00     0.334 C 
HETATM    4  C   UNL     1     -39.466 -51.596  13.160  1.00  0.00     0.292 C 
HETATM    5  C   UNL     1     -38.693 -50.494  13.766  1.00  0.00     0.200 C 
HETATM    6  C   UNL     1     -39.045 -49.232  13.547  1.00  0.00     0.146 C 
HETATM    7  O   UNL     1     -42.122 -49.605  11.835  1.00  0.00    -0.246 OA
HETATM    8  O   UNL     1     -39.155 -52.766  13.374  1.00  0.00    -0.264 OA
HETATM    9  F   UNL     1     -37.636 -50.824  14.529  1.00  0.00    -0.199 F 
ENDROOT
BRANCH   1  10
HETATM   10  C   UNL     1     -41.349 -52.264  11.776  1.00  0.00     0.194 C 
BRANCH  10  11
HETATM   11  C   UNL     1     -42.580 -52.711  12.559  1.00  0.00     0.028 A 
HETATM   12  N   UNL     1     -43.680 -51.912  12.568  1.00  0.00    -0.357 N 
HETATM   13  C   UNL     1     -44.673 -52.183  13.444  1.00  0.00     0.042 A 
ATOM     14  HN  UNL     1     -43.755 -51.123  11.925  1.00  0.00     0.166 HD
HETATM   15  C   UNL     1     -44.620 -53.272  14.339  1.00  0.00    -0.009 A 
HETATM   16  C   UNL     1     -45.781 -51.348  13.515  1.00  0.00     0.030 A 
HETATM   17  C   UNL     1     -45.642 -53.473  15.289  1.00  0.00     0.013 A 
HETATM   18  C   UNL     1     -43.508 -54.112  14.275  1.00  0.00     0.015 A 
HETATM   19  C   UNL     1     -46.718 -52.593  15.362  1.00  0.00     0.001 A 
HETATM   20  C   UNL     1     -46.793 -51.532  14.467  1.00  0.00     0.002 A 
HETATM   21  C   UNL     1     -42.477 -53.829  13.385  1.00  0.00     0.027 A 
ENDBRANCH  10  11
ENDBRANCH   1  10
BRANCH   2  22
HETATM   22  C   UNL     1     -40.460 -47.533  12.447  1.00  0.00     0.232 C 
HETATM   23  O   UNL     1     -40.249 -47.304  11.040  1.00  0.00    -0.366 OA
HETATM   24  C   UNL     1     -39.938 -45.912  10.868  1.00  0.00     0.170 C 
HETATM   25  C   UNL     1     -39.910 -45.281  12.248  1.00  0.00     0.031 C 
HETATM   26  C   UNL     1     -39.634 -46.465  13.146  1.00  0.00     0.056 C 
ENDBRANCH   2  22
TORSDOF 3
ENDMDL
MODEL 2
REMARK VINA RESULT:      -7.1      2.361      6.648
REMARK  3 active torsions:
REMARK  status: ('A' for Active; 'I' for Inactive)
REMARK    1  A    between atoms: N_1  and  C_10 
REMARK    2  A    between atoms: N_2  and  C_7 
REMARK    3  A    between atoms: C_10  and  C_12 
ROOT
HETATM    1  N   UNL     1     -41.231 -53.045  12.842  1.00  0.00    -0.258 N 
HETATM    2  N   UNL     1     -43.065 -53.726  14.168  1.00  0.00    -0.279 N 
HETATM    3  C   UNL     1     -42.613 -53.177  12.966  1.00  0.00     0.334 C 
HETATM    4  C   UNL     1     -40.312 -53.630  13.700  1.00  0.00     0.292 C 
HETATM    5  C   UNL     1     -40.889 -54.316  14.874  1.00  0.00     0.200 C 
HETATM    6  C   UNL     1     -42.203 -54.317  15.067  1.00  0.00     0.146 C 
HETATM    7  O   UNL     1     -43.398 -52.869  12.066  1.00  0.00    -0.246 OA
HETATM    8  O   UNL     1     -39.098 -53.640  13.508  1.00  0.00    -0.264 OA
HETATM    9  F   UNL     1     -40.036 -54.918  15.722  1.00  0.00    -0.199 F 
ENDROOT
BRANCH   1  10
HETATM   10  C   UNL     1     -40.705 -52.349  11.674  1.00  0.00     0.194 C 
BRANCH  10  11
HETATM   11  C   UNL     1     -40.640 -50.829  11.797  1.00  0.00     0.028 A 
HETATM   12  N   UNL     1     -41.687 -50.086  11.348  1.00  0.00    -0.357 N 
HETATM   13  C   UNL     1     -41.533 -48.748  11.234  1.00  0.00     0.042 A 
ATOM     14  HN  UNL     1     -42.571 -50.531  11.101  1.00  0.00     0.166 HD
HETATM   15  C   UNL     1     -40.335 -48.089  11.581  1.00  0.00    -0.009 A 
HETATM   16  C   UNL     1     -42.566 -47.974  10.722  1.00  0.00     0.030 A 
HETATM   17  C   UNL     1     -40.191 -46.702  11.375  1.00  0.00     0.013 A 
HETATM   18  C   UNL     1     -39.292 -48.863  12.092  1.00  0.00     0.015 A 
HETATM   19  C   UNL     1     -41.230 -45.962  10.819  1.00  0.00     0.001 A 
HETATM   20  C   UNL     1     -42.425 -46.597  10.499  1.00  0.00     0.002 A 
HETATM   21  C   UNL     1     -39.441 -50.242  12.196  1.00  0.00     0.027 A 
ENDBRANCH  10  11
ENDBRANCH   1  10
BRANCH   2  22
HETATM   22  C   UNL     1     -44.489 -53.617  14.449  1.00  0.00     0.232 C 
HETATM   23  O   UNL     1     -44.716 -53.450  15.862  1.00  0.00    -0.366 OA
HETATM   24  C   UNL     1     -46.023 -53.969  16.157  1.00  0.00     0.170 C 
HETATM   25  C   UNL     1     -46.591 -54.524  14.864  1.00  0.00     0.031 C 
HETATM   26  C   UNL     1     -45.347 -54.807  14.052  1.00  0.00     0.056 C 
ENDBRANCH   2  22
TORSDOF 3
ENDMDL
MODEL 3
REMARK VINA RESULT:      -7.1      2.138      2.795
REMARK  3 active torsions:
REMARK  status: ('A' for Active; 'I' for Inactive)
REMARK    1  A    between atoms: N_1  and  C_10 
REMARK    2  A    between atoms: N_2  and  C_7 
REMARK    3  A    between atoms: C_10  and  C_12 
ROOT
HETATM    1  N   UNL     1     -38.820 -50.910  13.449  1.00  0.00    -0.258 N 
HETATM    2  N   UNL     1     -39.834 -48.984  12.526  1.00  0.00    -0.279 N 
HETATM    3  C   UNL     1     -39.764 -49.893  13.584  1.00  0.00     0.334 C 
HETATM    4  C   UNL     1     -37.823 -50.924  12.484  1.00  0.00     0.292 C 
HETATM    5  C   UNL     1     -37.891 -49.838  11.486  1.00  0.00     0.200 C 
HETATM    6  C   UNL     1     -38.879 -48.950  11.532  1.00  0.00     0.146 C 
HETATM    7  O   UNL     1     -40.473 -49.769  14.585  1.00  0.00    -0.246 OA
HETATM    8  O   UNL     1     -36.902 -51.738  12.456  1.00  0.00    -0.264 OA
HETATM    9  F   UNL     1     -36.931 -49.798  10.545  1.00  0.00    -0.199 F 
ENDROOT
BRANCH   1  10
HETATM   10  C   UNL     1     -38.797 -51.970  14.449  1.00  0.00     0.194 C 
BRANCH  10  11
HETATM   11  C   UNL     1     -39.965 -52.950  14.385  1.00  0.00     0.028 A 
HETATM   12  N   UNL     1     -40.959 -52.732  13.484  1.00  0.00    -0.357 N 
HETATM   13  C   UNL     1     -42.099 -53.452  13.587  1.00  0.00     0.042 A 
ATOM     14  HN  UNL     1     -40.847 -52.039  12.744  1.00  0.00     0.166 HD
HETATM   15  C   UNL     1     -42.291 -54.432  14.583  1.00  0.00    -0.009 A 
HETATM   16  C   UNL     1     -43.153 -53.207  12.716  1.00  0.00     0.030 A 
HETATM   17  C   UNL     1     -43.523 -55.105  14.702  1.00  0.00     0.013 A 
HETATM   18  C   UNL     1     -41.237 -54.679  15.463  1.00  0.00     0.015 A 
HETATM   19  C   UNL     1     -44.575 -54.806  13.840  1.00  0.00     0.001 A 
HETATM   20  C   UNL     1     -44.387 -53.860  12.839  1.00  0.00     0.002 A 
HETATM   21  C   UNL     1     -40.068 -53.931  15.370  1.00  0.00     0.027 A 
ENDBRANCH  10  11
ENDBRANCH   1  10
BRANCH   2  22
HETATM   22  C   UNL     1     -40.983 -48.092  12.497  1.00  0.00     0.232 C 
HETATM   23  O   UNL     1     -42.114 -48.742  11.886  1.00  0.00    -0.366 OA
HETATM   24  C   UNL     1     -42.948 -47.720  11.317  1.00  0.00     0.170 C 
HETATM   25  C   UNL     1     -42.257 -46.389  11.553  1.00  0.00     0.031 C 
HETATM   26  C   UNL     1     -40.811 -46.795  11.724  1.00  0.00     0.056 C 
ENDBRANCH   2  22
TORSDOF 3
ENDMDL
MODEL 4
REMARK VINA RESULT:      -7.0      2.299      3.692
REMARK  3 active torsions:
REMARK  status: ('A' for Active; 'I' for Inactive)
REMARK    1  A    between atoms: N_1  and  C_10 
REMARK    2  A    between atoms: N_2  and  C_7 
REMARK    3  A    between atoms: C_10  and  C_12 
ROOT
HETATM    1  N   UNL     1     -42.482 -53.171  13.427  1.00  0.00    -0.258 N 
HETATM    2  N   UNL     1     -40.416 -52.042  13.215  1.00  0.00    -0.279 N 
HETATM    3  C   UNL     1     -41.798 -52.032  13.006  1.00  0.00     0.334 C 
HETATM    4  C   UNL     1     -41.930 -54.160  14.228  1.00  0.00     0.292 C 
HETATM    5  C   UNL     1     -40.489 -54.012  14.516  1.00  0.00     0.200 C 
HETATM    6  C   UNL     1     -39.805 -53.000  13.995  1.00  0.00     0.146 C 
HETATM    7  O   UNL     1     -42.366 -51.054  12.515  1.00  0.00    -0.246 OA
HETATM    8  O   UNL     1     -42.571 -55.085  14.722  1.00  0.00    -0.264 OA
HETATM    9  F   UNL     1     -39.917 -54.936  15.309  1.00  0.00    -0.199 F 
ENDROOT
BRANCH   1  10
HETATM   10  C   UNL     1     -43.900 -53.283  13.109  1.00  0.00     0.194 C 
BRANCH  10  11
HETATM   11  C   UNL     1     -44.842 -52.555  14.064  1.00  0.00     0.028 A 
HETATM   12  N   UNL     1     -44.763 -52.821  15.395  1.00  0.00    -0.357 N 
HETATM   13  C   UNL     1     -45.743 -52.367  16.208  1.00  0.00     0.042 A 
ATOM     14  HN  UNL     1     -43.980 -53.354  15.774  1.00  0.00     0.166 HD
HETATM   15  C   UNL     1     -46.836 -51.612  15.731  1.00  0.00    -0.009 A 
HETATM   16  C   UNL     1     -45.719 -52.675  17.562  1.00  0.00     0.030 A 
HETATM   17  C   UNL     1     -47.876 -51.224  16.600  1.00  0.00     0.013 A 
HETATM   18  C   UNL     1     -46.868 -51.303  14.371  1.00  0.00     0.015 A 
HETATM   19  C   UNL     1     -47.842 -51.586  17.944  1.00  0.00     0.001 A 
HETATM   20  C   UNL     1     -46.757 -52.307  18.429  1.00  0.00     0.002 A 
HETATM   21  C   UNL     1     -45.869 -51.781  13.529  1.00  0.00     0.027 A 
ENDBRANCH  10  11
ENDBRANCH   1  10
BRANCH   2  22
HETATM   22  C   UNL     1     -39.641 -51.012  12.540  1.00  0.00     0.232 C 
HETATM   23  O   UNL     1     -38.339 -51.511  12.179  1.00  0.00    -0.366 OA
HETATM   24  C   UNL     1     -37.441 -50.391  12.126  1.00  0.00     0.170 C 
HETATM   25  C   UNL     1     -38.232 -49.159  12.526  1.00  0.00     0.031 C 
HETATM   26  C   UNL     1     -39.367 -49.745  13.335  1.00  0.00     0.056 C 
ENDBRANCH   2  22
TORSDOF 3
ENDMDL
MODEL 5
REMARK VINA RESULT:      -6.9      1.852      3.564
REMARK  3 active torsions:
REMARK  status: ('A' for Active; 'I' for Inactive)
REMARK    1  A    between atoms: N_1  and  C_10 
REMARK    2  A    between atoms: N_2  and  C_7 
REMARK    3  A    between atoms: C_10  and  C_12 
ROOT
HETATM    1  N   UNL     1     -40.454 -51.157  12.582  1.00  0.00    -0.258 N 
HETATM    2  N   UNL     1     -38.874 -50.486  14.208  1.00  0.00    -0.279 N 
HETATM    3  C   UNL     1     -39.418 -51.520  13.441  1.00  0.00     0.334 C 
HETATM    4  C   UNL     1     -40.791 -49.846  12.279  1.00  0.00     0.292 C 
HETATM    5  C   UNL     1     -40.061 -48.811  13.038  1.00  0.00     0.200 C 
HETATM    6  C   UNL     1     -39.173 -49.163  13.962  1.00  0.00     0.146 C 
HETATM    7  O   UNL     1     -38.973 -52.668  13.503  1.00  0.00    -0.246 OA
HETATM    8  O   UNL     1     -41.601 -49.525  11.412  1.00  0.00    -0.264 OA
HETATM    9  F   UNL     1     -40.339 -47.525  12.760  1.00  0.00    -0.199 F 
ENDROOT
BRANCH   1  10
HETATM   10  C   UNL     1     -41.158 -52.211  11.863  1.00  0.00     0.194 C 
BRANCH  10  11
HETATM   11  C   UNL     1     -42.469 -52.668  12.496  1.00  0.00     0.028 A 
HETATM   12  N   UNL     1     -43.528 -51.815  12.503  1.00  0.00    -0.357 N 
HETATM   13  C   UNL     1     -44.603 -52.119  13.265  1.00  0.00     0.042 A 
ATOM     14  HN  UNL     1     -43.513 -50.962  11.943  1.00  0.00     0.166 HD
HETATM   15  C   UNL     1     -44.675 -53.295  14.042  1.00  0.00    -0.009 A 
HETATM   16  C   UNL     1     -45.673 -51.236  13.337  1.00  0.00     0.030 A 
HETATM   17  C   UNL     1     -45.780 -53.535  14.882  1.00  0.00     0.013 A 
HETATM   18  C   UNL     1     -43.600 -54.183  13.977  1.00  0.00     0.015 A 
HETATM   19  C   UNL     1     -46.817 -52.610  14.963  1.00  0.00     0.001 A 
HETATM   20  C   UNL     1     -46.768 -51.461  14.183  1.00  0.00     0.002 A 
HETATM   21  C   UNL     1     -42.487 -53.867  13.205  1.00  0.00     0.027 A 
ENDBRANCH  10  11
ENDBRANCH   1  10
BRANCH   2  22
HETATM   22  C   UNL     1     -38.001 -50.870  15.307  1.00  0.00     0.232 C 
HETATM   23  O   UNL     1     -38.707 -50.810  16.561  1.00  0.00    -0.366 OA
HETATM   24  C   UNL     1     -37.739 -50.564  17.594  1.00  0.00     0.170 C 
HETATM   25  C   UNL     1     -36.387 -50.417  16.921  1.00  0.00     0.031 C 
HETATM   26  C   UNL     1     -36.762 -50.014  15.513  1.00  0.00     0.056 C 
ENDBRANCH   2  22
TORSDOF 3
ENDMDL
MODEL 6
REMARK VINA RESULT:      -6.8      2.148      6.316
REMARK  3 active torsions:
REMARK  status: ('A' for Active; 'I' for Inactive)
REMARK    1  A    between atoms: N_1  and  C_10 
REMARK    2  A    between atoms: N_2  and  C_7 
REMARK    3  A    between atoms: C_10  and  C_12 
ROOT
HETATM    1  N   UNL     1     -39.524 -51.360  12.813  1.00  0.00    -0.258 N 
HETATM    2  N   UNL     1     -41.019 -52.937  13.744  1.00  0.00    -0.279 N 
HETATM    3  C   UNL     1     -40.624 -52.195  12.627  1.00  0.00     0.334 C 
HETATM    4  C   UNL     1     -38.687 -51.407  13.918  1.00  0.00     0.292 C 
HETATM    5  C   UNL     1     -39.108 -52.328  14.993  1.00  0.00     0.200 C 
HETATM    6  C   UNL     1     -40.236 -53.019  14.876  1.00  0.00     0.146 C 
HETATM    7  O   UNL     1     -41.198 -52.313  11.543  1.00  0.00    -0.246 OA
HETATM    8  O   UNL     1     -37.636 -50.777  14.015  1.00  0.00    -0.264 OA
HETATM    9  F   UNL     1     -38.314 -52.424  16.075  1.00  0.00    -0.199 F 
ENDROOT
BRANCH   1  10
HETATM   10  C   UNL     1     -39.152 -50.456  11.731  1.00  0.00     0.194 C 
BRANCH  10  11
HETATM   11  C   UNL     1     -39.977 -49.174  11.641  1.00  0.00     0.028 A 
HETATM   12  N   UNL     1     -41.044 -49.136  10.799  1.00  0.00    -0.357 N 
HETATM   13  C   UNL     1     -41.624 -47.943  10.539  1.00  0.00     0.042 A 
ATOM     14  HN  UNL     1     -41.400 -49.991  10.372  1.00  0.00     0.166 HD
HETATM   15  C   UNL     1     -41.176 -46.738  11.120  1.00  0.00    -0.009 A 
HETATM   16  C   UNL     1     -42.677 -47.868   9.637  1.00  0.00     0.030 A 
HETATM   17  C   UNL     1     -41.759 -45.506  10.761  1.00  0.00     0.013 A 
HETATM   18  C   UNL     1     -40.115 -46.807  12.023  1.00  0.00     0.015 A 
HETATM   19  C   UNL     1     -42.785 -45.460   9.821  1.00  0.00     0.001 A 
HETATM   20  C   UNL     1     -43.251 -46.645   9.263  1.00  0.00     0.002 A 
HETATM   21  C   UNL     1     -39.505 -48.031  12.283  1.00  0.00     0.027 A 
ENDBRANCH  10  11
ENDBRANCH   1  10
BRANCH   2  22
HETATM   22  C   UNL     1     -42.316 -53.593  13.674  1.00  0.00     0.232 C 
HETATM   23  O   UNL     1     -43.374 -52.658  13.961  1.00  0.00    -0.366 OA
HETATM   24  C   UNL     1     -44.480 -53.402  14.496  1.00  0.00     0.170 C 
HETATM   25  C   UNL     1     -44.047 -54.854  14.584  1.00  0.00     0.031 C 
HETATM   26  C   UNL     1     -42.540 -54.746  14.639  1.00  0.00     0.056 C 
ENDBRANCH   2  22
TORSDOF 3
ENDMDL
MODEL 7
REMARK VINA RESULT:      -6.7      3.124      6.829
REMARK  3 active torsions:
REMARK  status: ('A' for Active; 'I' for Inactive)
REMARK    1  A    between atoms: N_1  and  C_10 
REMARK    2  A    between atoms: N_2  and  C_7 
REMARK    3  A    between atoms: C_10  and  C_12 
ROOT
HETATM    1  N   UNL     1     -41.048 -52.818  13.100  1.00  0.00    -0.258 N 
HETATM    2  N   UNL     1     -40.204 -53.979  14.978  1.00  0.00    -0.279 N 
HETATM    3  C   UNL     1     -39.934 -53.253  13.815  1.00  0.00     0.334 C 
HETATM    4  C   UNL     1     -42.347 -52.849  13.585  1.00  0.00     0.292 C 
HETATM    5  C   UNL     1     -42.519 -53.512  14.894  1.00  0.00     0.200 C 
HETATM    6  C   UNL     1     -41.474 -54.054  15.510  1.00  0.00     0.146 C 
HETATM    7  O   UNL     1     -38.778 -52.989  13.478  1.00  0.00    -0.246 OA
HETATM    8  O   UNL     1     -43.308 -52.332  13.019  1.00  0.00    -0.264 OA
HETATM    9  F   UNL     1     -43.759 -53.545  15.415  1.00  0.00    -0.199 F 
ENDROOT
BRANCH   1  10
HETATM   10  C   UNL     1     -40.833 -52.182  11.806  1.00  0.00     0.194 C 
BRANCH  10  11
HETATM   11  C   UNL     1     -40.776 -50.657  11.831  1.00  0.00     0.028 A 
HETATM   12  N   UNL     1     -41.889 -49.951  11.500  1.00  0.00    -0.357 N 
HETATM   13  C   UNL     1     -41.776 -48.620  11.289  1.00  0.00     0.042 A 
ATOM     14  HN  UNL     1     -42.793 -50.416  11.412  1.00  0.00     0.166 HD
HETATM   15  C   UNL     1     -40.550 -47.933  11.416  1.00  0.00    -0.009 A 
HETATM   16  C   UNL     1     -42.885 -47.886  10.891  1.00  0.00     0.030 A 
HETATM   17  C   UNL     1     -40.461 -46.560  11.112  1.00  0.00     0.013 A 
HETATM   18  C   UNL     1     -39.431 -48.667  11.811  1.00  0.00     0.015 A 
HETATM   19  C   UNL     1     -41.583 -45.861  10.675  1.00  0.00     0.001 A 
HETATM   20  C   UNL     1     -42.801 -46.523  10.571  1.00  0.00     0.002 A 
HETATM   21  C   UNL     1     -39.540 -50.039  12.014  1.00  0.00     0.027 A 
ENDBRANCH  10  11
ENDBRANCH   1  10
BRANCH   2  22
HETATM   22  C   UNL     1     -39.089 -54.685  15.589  1.00  0.00     0.232 C 
HETATM   23  O   UNL     1     -39.471 -56.027  15.946  1.00  0.00    -0.366 OA
HETATM   24  C   UNL     1     -38.643 -56.438  17.046  1.00  0.00     0.170 C 
HETATM   25  C   UNL     1     -37.751 -55.264  17.404  1.00  0.00     0.031 C 
HETATM   26  C   UNL     1     -38.531 -54.083  16.869  1.00  0.00     0.056 C 
ENDBRANCH   2  22
TORSDOF 3
ENDMDL
MODEL 8
REMARK VINA RESULT:      -6.5      3.234      5.603
REMARK  3 active torsions:
REMARK  status: ('A' for Active; 'I' for Inactive)
REMARK    1  A    between atoms: N_1  and  C_10 
REMARK    2  A    between atoms: N_2  and  C_7 
REMARK    3  A    between atoms: C_10  and  C_12 
ROOT
HETATM    1  N   UNL     1     -41.806 -53.037  13.275  1.00  0.00    -0.258 N 
HETATM    2  N   UNL     1     -40.833 -54.323  15.003  1.00  0.00    -0.279 N 
HETATM    3  C   UNL     1     -41.921 -54.115  14.151  1.00  0.00     0.334 C 
HETATM    4  C   UNL     1     -40.627 -52.345  13.041  1.00  0.00     0.292 C 
HETATM    5  C   UNL     1     -39.485 -52.731  13.893  1.00  0.00     0.200 C 
HETATM    6  C   UNL     1     -39.635 -53.663  14.829  1.00  0.00     0.146 C 
HETATM    7  O   UNL     1     -42.896 -54.869  14.160  1.00  0.00    -0.246 OA
HETATM    8  O   UNL     1     -40.488 -51.496  12.162  1.00  0.00    -0.264 OA
HETATM    9  F   UNL     1     -38.314 -52.103  13.685  1.00  0.00    -0.199 F 
ENDROOT
BRANCH   1  10
HETATM   10  C   UNL     1     -42.962 -52.681  12.462  1.00  0.00     0.194 C 
BRANCH  10  11
HETATM   11  C   UNL     1     -44.169 -52.161  13.239  1.00  0.00     0.028 A 
HETATM   12  N   UNL     1     -43.961 -51.439  14.372  1.00  0.00    -0.357 N 
HETATM   13  C   UNL     1     -45.012 -51.186  15.184  1.00  0.00     0.042 A 
ATOM     14  HN  UNL     1     -43.030 -51.094  14.606  1.00  0.00     0.166 HD
HETATM   15  C   UNL     1     -46.320 -51.628  14.893  1.00  0.00    -0.009 A 
HETATM   16  C   UNL     1     -44.816 -50.502  16.377  1.00  0.00     0.030 A 
HETATM   17  C   UNL     1     -47.373 -51.408  15.804  1.00  0.00     0.013 A 
HETATM   18  C   UNL     1     -46.521 -52.319  13.698  1.00  0.00     0.015 A 
HETATM   19  C   UNL     1     -47.135 -50.757  17.011  1.00  0.00     0.001 A 
HETATM   20  C   UNL     1     -45.855 -50.295  17.295  1.00  0.00     0.002 A 
HETATM   21  C   UNL     1     -45.440 -52.595  12.867  1.00  0.00     0.027 A 
ENDBRANCH  10  11
ENDBRANCH   1  10
BRANCH   2  22
HETATM   22  C   UNL     1     -41.031 -55.245  16.111  1.00  0.00     0.232 C 
HETATM   23  O   UNL     1     -41.444 -54.536  17.295  1.00  0.00    -0.366 OA
HETATM   24  C   UNL     1     -41.022 -55.304  18.433  1.00  0.00     0.170 C 
HETATM   25  C   UNL     1     -40.269 -56.513  17.908  1.00  0.00     0.031 C 
HETATM   26  C   UNL     1     -39.816 -56.051  16.541  1.00  0.00     0.056 C 
ENDBRANCH   2  22
TORSDOF 3
ENDMDL
MODEL 9
REMARK VINA RESULT:      -6.2      2.634      3.745
REMARK  3 active torsions:
REMARK  status: ('A' for Active; 'I' for Inactive)
REMARK    1  A    between atoms: N_1  and  C_10 
REMARK    2  A    between atoms: N_2  and  C_7 
REMARK    3  A    between atoms: C_10  and  C_12 
ROOT
HETATM    1  N   UNL     1     -40.839 -52.995  15.867  1.00  0.00    -0.258 N 
HETATM    2  N   UNL     1     -39.292 -52.002  14.381  1.00  0.00    -0.279 N 
HETATM    3  C   UNL     1     -40.244 -51.829  15.390  1.00  0.00     0.334 C 
HETATM    4  C   UNL     1     -40.384 -54.275  15.586  1.00  0.00     0.292 C 
HETATM    5  C   UNL     1     -39.275 -54.354  14.613  1.00  0.00     0.200 C 
HETATM    6  C   UNL     1     -38.802 -53.248  14.049  1.00  0.00     0.146 C 
HETATM    7  O   UNL     1     -40.500 -50.712  15.845  1.00  0.00    -0.246 OA
HETATM    8  O   UNL     1     -40.814 -55.293  16.123  1.00  0.00    -0.264 OA
HETATM    9  F   UNL     1     -38.785 -55.573  14.328  1.00  0.00    -0.199 F 
ENDROOT
BRANCH   1  10
HETATM   10  C   UNL     1     -41.940 -52.871  16.815  1.00  0.00     0.194 C 
BRANCH  10  11
HETATM   11  C   UNL     1     -43.311 -52.622  16.192  1.00  0.00     0.028 A 
HETATM   12  N   UNL     1     -43.550 -53.064  14.928  1.00  0.00    -0.357 N 
HETATM   13  C   UNL     1     -44.664 -52.641  14.291  1.00  0.00     0.042 A 
ATOM     14  HN  UNL     1     -42.900 -53.703  14.469  1.00  0.00     0.166 HD
HETATM   15  C   UNL     1     -45.599 -51.771  14.893  1.00  0.00    -0.009 A 
HETATM   16  C   UNL     1     -44.902 -53.029  12.979  1.00  0.00     0.030 A 
HETATM   17  C   UNL     1     -46.708 -51.293  14.167  1.00  0.00     0.013 A 
HETATM   18  C   UNL     1     -45.363 -51.374  16.210  1.00  0.00     0.015 A 
HETATM   19  C   UNL     1     -46.894 -51.668  12.839  1.00  0.00     0.001 A 
HETATM   20  C   UNL     1     -45.993 -52.545  12.245  1.00  0.00     0.002 A 
HETATM   21  C   UNL     1     -44.210 -51.796  16.864  1.00  0.00     0.027 A 
ENDBRANCH  10  11
ENDBRANCH   1  10
BRANCH   2  22
HETATM   22  C   UNL     1     -38.863 -50.809  13.668  1.00  0.00     0.232 C 
HETATM   23  O   UNL     1     -39.860 -50.405  12.709  1.00  0.00    -0.366 OA
HETATM   24  C   UNL     1     -39.188 -49.696  11.655  1.00  0.00     0.170 C 
HETATM   25  C   UNL     1     -37.704 -49.719  11.970  1.00  0.00     0.031 C 
HETATM   26  C   UNL     1     -37.576 -50.929  12.868  1.00  0.00     0.056 C 
ENDBRANCH   2  22
TORSDOF 3
ENDMDL
