MODEL 1
REMARK VINA RESULT:      -5.4      0.000      0.000
REMARK  7 active torsions:
REMARK  status: ('A' for Active; 'I' for Inactive)
REMARK    1  A    between atoms: C_2  and  C_3 
REMARK    2  A    between atoms: C_2  and  N_10 
REMARK    3  A    between atoms: C_3  and  N_4 
REMARK    4  A    between atoms: N_10  and  C_11 
REMARK    5  A    between atoms: C_11  and  C_12 
REMARK    6  A    between atoms: C_12  and  C_13 
REMARK       I    between atoms: C_13  and  N_15 
REMARK    7  A    between atoms: N_15  and  C_16 
ROOT
HETATM    1  N   UNL     1     -42.117 -51.057  11.980  1.00  0.00     0.089 N 
HETATM    2  H   UNL     1     -42.623 -50.495  12.668  1.00  0.00     0.316 HD
ENDROOT
BRANCH   1   3
HETATM    3  C   UNL     1     -42.378 -52.494  12.279  1.00  0.00     0.236 C 
HETATM    4  C   UNL     1     -41.006 -53.173  12.373  1.00  0.00     0.044 C 
BRANCH   3   5
HETATM    5  C   UNL     1     -43.201 -52.713  13.570  1.00  0.00     0.183 C 
BRANCH   5   6
HETATM    6  N   UNL     1     -44.603 -52.351  13.462  1.00  0.00    -0.302 N 
HETATM    7  C   UNL     1     -45.348 -51.694  14.401  1.00  0.00     0.111 A 
HETATM    8  C   UNL     1     -46.579 -51.476  13.827  1.00  0.00     0.037 A 
HETATM    9  C   UNL     1     -46.475 -52.036  12.541  1.00  0.00     0.108 A 
HETATM   10  N   UNL     1     -45.274 -52.570  12.313  1.00  0.00    -0.310 N 
ATOM     11  HN  UNL     1     -44.941 -53.036  11.468  1.00  0.00     0.186 HD
ENDBRANCH   5   6
ENDBRANCH   3   5
ENDBRANCH   1   3
BRANCH   1  12
HETATM   12  C   UNL     1     -40.691 -50.731  12.063  1.00  0.00     0.279 C 
BRANCH  12  13
HETATM   13  C   UNL     1     -40.283 -49.632  11.076  1.00  0.00     0.132 C 
BRANCH  13  14
HETATM   14  C   UNL     1     -41.393 -48.601  11.018  1.00  0.00     0.219 C 
HETATM   15  O   UNL     1     -41.787 -48.010  12.016  1.00  0.00    -0.274 OA
HETATM   16  N   UNL     1     -41.919 -48.397   9.760  1.00  0.00    -0.353 N 
HETATM   17  H   UNL     1     -41.490 -48.875   8.976  1.00  0.00     0.163 HD
BRANCH  16  18
HETATM   18  C   UNL     1     -43.009 -47.444   9.489  1.00  0.00     0.022 C 
HETATM   19  C   UNL     1     -42.544 -45.997   9.734  1.00  0.00     0.037 C 
HETATM   20  C   UNL     1     -43.426 -47.570   8.013  1.00  0.00     0.037 C 
HETATM   21  C   UNL     1     -44.239 -47.761  10.358  1.00  0.00     0.037 C 
ENDBRANCH  16  18
ENDBRANCH  13  14
ENDBRANCH  12  13
ENDBRANCH   1  12
TORSDOF 7
ENDMDL
MODEL 2
REMARK VINA RESULT:      -5.2      1.981      5.949
REMARK  7 active torsions:
REMARK  status: ('A' for Active; 'I' for Inactive)
REMARK    1  A    between atoms: C_2  and  C_3 
REMARK    2  A    between atoms: C_2  and  N_10 
REMARK    3  A    between atoms: C_3  and  N_4 
REMARK    4  A    between atoms: N_10  and  C_11 
REMARK    5  A    between atoms: C_11  and  C_12 
REMARK    6  A    between atoms: C_12  and  C_13 
REMARK       I    between atoms: C_13  and  N_15 
REMARK    7  A    between atoms: N_15  and  C_16 
ROOT
HETATM    1  N   UNL     1     -42.089 -50.352  11.801  1.00  0.00     0.089 N 
HETATM    2  H   UNL     1     -41.137 -50.290  11.432  1.00  0.00     0.316 HD
ENDROOT
BRANCH   1   3
HETATM    3  C   UNL     1     -42.526 -48.979  12.182  1.00  0.00     0.236 C 
HETATM    4  C   UNL     1     -41.886 -48.684  13.545  1.00  0.00     0.044 C 
BRANCH   3   5
HETATM    5  C   UNL     1     -42.145 -47.903  11.140  1.00  0.00     0.183 C 
BRANCH   5   6
HETATM    6  N   UNL     1     -43.053 -47.804  10.011  1.00  0.00    -0.302 N 
HETATM    7  C   UNL     1     -44.375 -47.462  10.058  1.00  0.00     0.111 A 
HETATM    8  C   UNL     1     -44.798 -47.395   8.751  1.00  0.00     0.037 A 
HETATM    9  C   UNL     1     -43.657 -47.711   7.992  1.00  0.00     0.108 A 
HETATM   10  N   UNL     1     -42.590 -47.961   8.754  1.00  0.00    -0.310 N 
ATOM     11  HN  UNL     1     -41.648 -48.212   8.456  1.00  0.00     0.186 HD
ENDBRANCH   5   6
ENDBRANCH   3   5
ENDBRANCH   1   3
BRANCH   1  12
HETATM   12  C   UNL     1     -42.092 -51.266  12.946  1.00  0.00     0.279 C 
BRANCH  12  13
HETATM   13  C   UNL     1     -42.359 -52.719  12.537  1.00  0.00     0.132 C 
BRANCH  13  14
HETATM   14  C   UNL     1     -43.838 -53.003  12.713  1.00  0.00     0.219 C 
HETATM   15  O   UNL     1     -44.391 -53.948  12.162  1.00  0.00    -0.274 OA
HETATM   16  N   UNL     1     -44.498 -52.111  13.531  1.00  0.00    -0.353 N 
HETATM   17  H   UNL     1     -43.954 -51.399  14.004  1.00  0.00     0.163 HD
BRANCH  16  18
HETATM   18  C   UNL     1     -45.938 -52.205  13.827  1.00  0.00     0.022 C 
HETATM   19  C   UNL     1     -46.309 -53.626  14.289  1.00  0.00     0.037 C 
HETATM   20  C   UNL     1     -46.277 -51.227  14.965  1.00  0.00     0.037 C 
HETATM   21  C   UNL     1     -46.774 -51.810  12.597  1.00  0.00     0.037 C 
ENDBRANCH  16  18
ENDBRANCH  13  14
ENDBRANCH  12  13
ENDBRANCH   1  12
TORSDOF 7
ENDMDL
MODEL 3
REMARK VINA RESULT:      -5.2      1.880      5.601
REMARK  7 active torsions:
REMARK  status: ('A' for Active; 'I' for Inactive)
REMARK    1  A    between atoms: C_2  and  C_3 
REMARK    2  A    between atoms: C_2  and  N_10 
REMARK    3  A    between atoms: C_3  and  N_4 
REMARK    4  A    between atoms: N_10  and  C_11 
REMARK    5  A    between atoms: C_11  and  C_12 
REMARK    6  A    between atoms: C_12  and  C_13 
REMARK       I    between atoms: C_13  and  N_15 
REMARK    7  A    between atoms: N_15  and  C_16 
ROOT
HETATM    1  N   UNL     1     -42.195 -48.571  10.224  1.00  0.00     0.089 N 
HETATM    2  H   UNL     1     -41.887 -48.846   9.289  1.00  0.00     0.316 HD
ENDROOT
BRANCH   1   3
HETATM    3  C   UNL     1     -42.698 -47.170  10.149  1.00  0.00     0.236 C 
HETATM    4  C   UNL     1     -41.474 -46.260  10.319  1.00  0.00     0.044 C 
BRANCH   3   5
HETATM    5  C   UNL     1     -43.449 -46.857   8.834  1.00  0.00     0.183 C 
BRANCH   5   6
HETATM    6  N   UNL     1     -44.720 -47.543   8.685  1.00  0.00    -0.302 N 
HETATM    7  C   UNL     1     -45.832 -47.372   9.461  1.00  0.00     0.111 A 
HETATM    8  C   UNL     1     -46.818 -48.142   8.888  1.00  0.00     0.037 A 
HETATM    9  C   UNL     1     -46.203 -48.735   7.772  1.00  0.00     0.108 A 
HETATM   10  N   UNL     1     -44.924 -48.373   7.642  1.00  0.00    -0.310 N 
ATOM     11  HN  UNL     1     -44.258 -48.659   6.924  1.00  0.00     0.186 HD
ENDBRANCH   5   6
ENDBRANCH   3   5
ENDBRANCH   1   3
BRANCH   1  12
HETATM   12  C   UNL     1     -41.065 -48.698  11.148  1.00  0.00     0.279 C 
BRANCH  12  13
HETATM   13  C   UNL     1     -40.820 -50.148  11.579  1.00  0.00     0.132 C 
BRANCH  13  14
HETATM   14  C   UNL     1     -41.875 -50.531  12.598  1.00  0.00     0.219 C 
HETATM   15  O   UNL     1     -42.067 -49.878  13.616  1.00  0.00    -0.274 OA
HETATM   16  N   UNL     1     -42.584 -51.672  12.285  1.00  0.00    -0.353 N 
HETATM   17  H   UNL     1     -42.412 -52.115  11.391  1.00  0.00     0.163 HD
BRANCH  16  18
HETATM   18  C   UNL     1     -43.649 -52.218  13.145  1.00  0.00     0.022 C 
HETATM   19  C   UNL     1     -44.787 -51.198  13.321  1.00  0.00     0.037 C 
HETATM   20  C   UNL     1     -44.231 -53.476  12.478  1.00  0.00     0.037 C 
HETATM   21  C   UNL     1     -43.084 -52.627  14.517  1.00  0.00     0.037 C 
ENDBRANCH  16  18
ENDBRANCH  13  14
ENDBRANCH  12  13
ENDBRANCH   1  12
TORSDOF 7
ENDMDL
MODEL 4
REMARK VINA RESULT:      -5.1      2.086      3.821
REMARK  7 active torsions:
REMARK  status: ('A' for Active; 'I' for Inactive)
REMARK    1  A    between atoms: C_2  and  C_3 
REMARK    2  A    between atoms: C_2  and  N_10 
REMARK    3  A    between atoms: C_3  and  N_4 
REMARK    4  A    between atoms: N_10  and  C_11 
REMARK    5  A    between atoms: C_11  and  C_12 
REMARK    6  A    between atoms: C_12  and  C_13 
REMARK       I    between atoms: C_13  and  N_15 
REMARK    7  A    between atoms: N_15  and  C_16 
ROOT
HETATM    1  N   UNL     1     -43.389 -50.628  12.463  1.00  0.00     0.089 N 
HETATM    2  H   UNL     1     -43.879 -50.263  13.283  1.00  0.00     0.316 HD
ENDROOT
BRANCH   1   3
HETATM    3  C   UNL     1     -42.846 -51.972  12.812  1.00  0.00     0.236 C 
HETATM    4  C   UNL     1     -43.945 -52.986  12.466  1.00  0.00     0.044 C 
BRANCH   3   5
HETATM    5  C   UNL     1     -41.525 -52.308  12.082  1.00  0.00     0.183 C 
BRANCH   5   6
HETATM    6  N   UNL     1     -40.519 -52.944  12.914  1.00  0.00    -0.302 N 
HETATM    7  C   UNL     1     -39.678 -52.321  13.792  1.00  0.00     0.111 A 
HETATM    8  C   UNL     1     -38.982 -53.323  14.429  1.00  0.00     0.037 A 
HETATM    9  C   UNL     1     -39.477 -54.512  13.867  1.00  0.00     0.108 A 
HETATM   10  N   UNL     1     -40.414 -54.288  12.943  1.00  0.00    -0.310 N 
ATOM     11  HN  UNL     1     -40.930 -54.972  12.389  1.00  0.00     0.186 HD
ENDBRANCH   5   6
ENDBRANCH   3   5
ENDBRANCH   1   3
BRANCH   1  12
HETATM   12  C   UNL     1     -42.327 -49.688  12.093  1.00  0.00     0.279 C 
BRANCH  12  13
HETATM   13  C   UNL     1     -42.765 -48.226  12.230  1.00  0.00     0.132 C 
BRANCH  13  14
HETATM   14  C   UNL     1     -42.968 -47.652  10.841  1.00  0.00     0.219 C 
HETATM   15  O   UNL     1     -42.095 -47.016  10.264  1.00  0.00    -0.274 OA
HETATM   16  N   UNL     1     -44.211 -47.900  10.297  1.00  0.00    -0.353 N 
HETATM   17  H   UNL     1     -44.851 -48.493  10.811  1.00  0.00     0.163 HD
BRANCH  16  18
HETATM   18  C   UNL     1     -44.612 -47.425   8.961  1.00  0.00     0.022 C 
HETATM   19  C   UNL     1     -43.621 -47.908   7.888  1.00  0.00     0.037 C 
HETATM   20  C   UNL     1     -46.000 -47.998   8.626  1.00  0.00     0.037 C 
HETATM   21  C   UNL     1     -44.715 -45.890   8.937  1.00  0.00     0.037 C 
ENDBRANCH  16  18
ENDBRANCH  13  14
ENDBRANCH  12  13
ENDBRANCH   1  12
TORSDOF 7
ENDMDL
MODEL 5
REMARK VINA RESULT:      -5.0      3.355      6.436
REMARK  7 active torsions:
REMARK  status: ('A' for Active; 'I' for Inactive)
REMARK    1  A    between atoms: C_2  and  C_3 
REMARK    2  A    between atoms: C_2  and  N_10 
REMARK    3  A    between atoms: C_3  and  N_4 
REMARK    4  A    between atoms: N_10  and  C_11 
REMARK    5  A    between atoms: C_11  and  C_12 
REMARK    6  A    between atoms: C_12  and  C_13 
REMARK       I    between atoms: C_13  and  N_15 
REMARK    7  A    between atoms: N_15  and  C_16 
ROOT
HETATM    1  N   UNL     1     -42.561 -52.745  11.998  1.00  0.00     0.089 N 
HETATM    2  H   UNL     1     -42.632 -52.996  11.009  1.00  0.00     0.316 HD
ENDROOT
BRANCH   1   3
HETATM    3  C   UNL     1     -41.699 -51.534  12.104  1.00  0.00     0.236 C 
HETATM    4  C   UNL     1     -42.503 -50.499  12.902  1.00  0.00     0.044 C 
BRANCH   3   5
HETATM    5  C   UNL     1     -40.331 -51.811  12.768  1.00  0.00     0.183 C 
BRANCH   5   6
HETATM    6  N   UNL     1     -39.345 -50.760  12.586  1.00  0.00    -0.302 N 
HETATM    7  C   UNL     1     -38.812 -49.967  13.562  1.00  0.00     0.111 A 
HETATM    8  C   UNL     1     -37.851 -49.198  12.947  1.00  0.00     0.037 A 
HETATM    9  C   UNL     1     -37.880 -49.604  11.601  1.00  0.00     0.108 A 
HETATM   10  N   UNL     1     -38.789 -50.555  11.374  1.00  0.00    -0.310 N 
ATOM     11  HN  UNL     1     -39.010 -51.019  10.493  1.00  0.00     0.186 HD
ENDBRANCH   5   6
ENDBRANCH   3   5
ENDBRANCH   1   3
BRANCH   1  12
HETATM   12  C   UNL     1     -42.002 -53.882  12.733  1.00  0.00     0.279 C 
BRANCH  12  13
HETATM   13  C   UNL     1     -42.842 -54.258  13.958  1.00  0.00     0.132 C 
BRANCH  13  14
HETATM   14  C   UNL     1     -44.271 -53.812  13.716  1.00  0.00     0.219 C 
HETATM   15  O   UNL     1     -44.955 -54.276  12.811  1.00  0.00    -0.274 OA
HETATM   16  N   UNL     1     -44.724 -52.845  14.588  1.00  0.00    -0.353 N 
HETATM   17  H   UNL     1     -44.120 -52.566  15.352  1.00  0.00     0.163 HD
BRANCH  16  18
HETATM   18  C   UNL     1     -46.079 -52.272  14.520  1.00  0.00     0.022 C 
HETATM   19  C   UNL     1     -46.279 -51.208  15.614  1.00  0.00     0.037 C 
HETATM   20  C   UNL     1     -46.264 -51.594  13.151  1.00  0.00     0.037 C 
HETATM   21  C   UNL     1     -47.144 -53.375  14.650  1.00  0.00     0.037 C 
ENDBRANCH  16  18
ENDBRANCH  13  14
ENDBRANCH  12  13
ENDBRANCH   1  12
TORSDOF 7
ENDMDL
MODEL 6
REMARK VINA RESULT:      -4.8      3.456      6.291
REMARK  7 active torsions:
REMARK  status: ('A' for Active; 'I' for Inactive)
REMARK    1  A    between atoms: C_2  and  C_3 
REMARK    2  A    between atoms: C_2  and  N_10 
REMARK    3  A    between atoms: C_3  and  N_4 
REMARK    4  A    between atoms: N_10  and  C_11 
REMARK    5  A    between atoms: C_11  and  C_12 
REMARK    6  A    between atoms: C_12  and  C_13 
REMARK       I    between atoms: C_13  and  N_15 
REMARK    7  A    between atoms: N_15  and  C_16 
ROOT
HETATM    1  N   UNL     1     -41.712 -53.188  14.699  1.00  0.00     0.089 N 
HETATM    2  H   UNL     1     -42.436 -52.772  14.110  1.00  0.00     0.316 HD
ENDROOT
BRANCH   1   3
HETATM    3  C   UNL     1     -40.399 -52.998  14.019  1.00  0.00     0.236 C 
HETATM    4  C   UNL     1     -39.848 -54.402  13.740  1.00  0.00     0.044 C 
BRANCH   3   5
HETATM    5  C   UNL     1     -40.498 -52.168  12.718  1.00  0.00     0.183 C 
BRANCH   5   6
HETATM    6  N   UNL     1     -39.409 -51.228  12.516  1.00  0.00    -0.302 N 
HETATM    7  C   UNL     1     -38.288 -51.105  13.287  1.00  0.00     0.111 A 
HETATM    8  C   UNL     1     -37.495 -50.171  12.660  1.00  0.00     0.037 A 
HETATM    9  C   UNL     1     -38.225 -49.794  11.519  1.00  0.00     0.108 A 
HETATM   10  N   UNL     1     -39.392 -50.435  11.425  1.00  0.00    -0.310 N 
ATOM     11  HN  UNL     1     -40.104 -50.345  10.700  1.00  0.00     0.186 HD
ENDBRANCH   5   6
ENDBRANCH   3   5
ENDBRANCH   1   3
BRANCH   1  12
HETATM   12  C   UNL     1     -42.025 -54.606  14.899  1.00  0.00     0.279 C 
BRANCH  12  13
HETATM   13  C   UNL     1     -43.494 -54.928  14.607  1.00  0.00     0.132 C 
BRANCH  13  14
HETATM   14  C   UNL     1     -44.064 -53.826  13.736  1.00  0.00     0.219 C 
HETATM   15  O   UNL     1     -43.707 -53.660  12.575  1.00  0.00    -0.274 OA
HETATM   16  N   UNL     1     -45.002 -53.031  14.361  1.00  0.00    -0.353 N 
HETATM   17  H   UNL     1     -45.292 -53.277  15.299  1.00  0.00     0.163 HD
BRANCH  16  18
HETATM   18  C   UNL     1     -45.671 -51.901  13.693  1.00  0.00     0.022 C 
HETATM   19  C   UNL     1     -46.347 -52.359  12.389  1.00  0.00     0.037 C 
HETATM   20  C   UNL     1     -46.759 -51.344  14.628  1.00  0.00     0.037 C 
HETATM   21  C   UNL     1     -44.670 -50.768  13.404  1.00  0.00     0.037 C 
ENDBRANCH  16  18
ENDBRANCH  13  14
ENDBRANCH  12  13
ENDBRANCH   1  12
TORSDOF 7
ENDMDL
MODEL 7
REMARK VINA RESULT:      -4.7      2.002      2.572
REMARK  7 active torsions:
REMARK  status: ('A' for Active; 'I' for Inactive)
REMARK    1  A    between atoms: C_2  and  C_3 
REMARK    2  A    between atoms: C_2  and  N_10 
REMARK    3  A    between atoms: C_3  and  N_4 
REMARK    4  A    between atoms: N_10  and  C_11 
REMARK    5  A    between atoms: C_11  and  C_12 
REMARK    6  A    between atoms: C_12  and  C_13 
REMARK       I    between atoms: C_13  and  N_15 
REMARK    7  A    between atoms: N_15  and  C_16 
ROOT
HETATM    1  N   UNL     1     -40.894 -51.443  11.384  1.00  0.00     0.089 N 
HETATM    2  H   UNL     1     -41.529 -50.666  11.187  1.00  0.00     0.316 HD
ENDROOT
BRANCH   1   3
HETATM    3  C   UNL     1     -41.680 -52.524  12.045  1.00  0.00     0.236 C 
HETATM    4  C   UNL     1     -40.685 -53.330  12.889  1.00  0.00     0.044 C 
BRANCH   3   5
HETATM    5  C   UNL     1     -42.846 -51.993  12.910  1.00  0.00     0.183 C 
BRANCH   5   6
HETATM    6  N   UNL     1     -43.719 -53.022  13.448  1.00  0.00    -0.302 N 
HETATM    7  C   UNL     1     -44.448 -53.926  12.728  1.00  0.00     0.111 A 
HETATM    8  C   UNL     1     -45.032 -54.764  13.650  1.00  0.00     0.037 A 
HETATM    9  C   UNL     1     -44.590 -54.285  14.896  1.00  0.00     0.108 A 
HETATM   10  N   UNL     1     -43.789 -53.223  14.779  1.00  0.00    -0.310 N 
ATOM     11  HN  UNL     1     -43.338 -52.689  15.522  1.00  0.00     0.186 HD
ENDBRANCH   5   6
ENDBRANCH   3   5
ENDBRANCH   1   3
BRANCH   1  12
HETATM   12  C   UNL     1     -39.806 -50.957  12.238  1.00  0.00     0.279 C 
BRANCH  12  13
HETATM   13  C   UNL     1     -39.114 -49.719  11.657  1.00  0.00     0.132 C 
BRANCH  13  14
HETATM   14  C   UNL     1     -40.060 -48.540  11.775  1.00  0.00     0.219 C 
HETATM   15  O   UNL     1     -41.100 -48.599  12.420  1.00  0.00    -0.274 OA
HETATM   16  N   UNL     1     -39.654 -47.412  11.094  1.00  0.00    -0.353 N 
HETATM   17  H   UNL     1     -38.748 -47.423  10.643  1.00  0.00     0.163 HD
BRANCH  16  18
HETATM   18  C   UNL     1     -40.433 -46.161  11.075  1.00  0.00     0.022 C 
HETATM   19  C   UNL     1     -40.622 -45.613  12.500  1.00  0.00     0.037 C 
HETATM   20  C   UNL     1     -39.665 -45.110  10.254  1.00  0.00     0.037 C 
HETATM   21  C   UNL     1     -41.800 -46.380  10.403  1.00  0.00     0.037 C 
ENDBRANCH  16  18
ENDBRANCH  13  14
ENDBRANCH  12  13
ENDBRANCH   1  12
TORSDOF 7
ENDMDL
MODEL 8
REMARK VINA RESULT:      -4.6      2.251      5.738
REMARK  7 active torsions:
REMARK  status: ('A' for Active; 'I' for Inactive)
REMARK    1  A    between atoms: C_2  and  C_3 
REMARK    2  A    between atoms: C_2  and  N_10 
REMARK    3  A    between atoms: C_3  and  N_4 
REMARK    4  A    between atoms: N_10  and  C_11 
REMARK    5  A    between atoms: C_11  and  C_12 
REMARK    6  A    between atoms: C_12  and  C_13 
REMARK       I    between atoms: C_13  and  N_15 
REMARK    7  A    between atoms: N_15  and  C_16 
ROOT
HETATM    1  N   UNL     1     -42.607 -49.329  11.837  1.00  0.00     0.089 N 
HETATM    2  H   UNL     1     -42.396 -50.320  11.976  1.00  0.00     0.316 HD
ENDROOT
BRANCH   1   3
HETATM    3  C   UNL     1     -41.433 -48.698  11.170  1.00  0.00     0.236 C 
HETATM    4  C   UNL     1     -40.987 -47.545  12.078  1.00  0.00     0.044 C 
BRANCH   3   5
HETATM    5  C   UNL     1     -40.272 -49.685  10.909  1.00  0.00     0.183 C 
BRANCH   5   6
HETATM    6  N   UNL     1     -40.286 -50.872  11.746  1.00  0.00    -0.302 N 
HETATM    7  C   UNL     1     -39.725 -50.999  12.985  1.00  0.00     0.111 A 
HETATM    8  C   UNL     1     -40.078 -52.249  13.438  1.00  0.00     0.037 A 
HETATM    9  C   UNL     1     -40.855 -52.795  12.401  1.00  0.00     0.108 A 
HETATM   10  N   UNL     1     -40.986 -51.960  11.367  1.00  0.00    -0.310 N 
ATOM     11  HN  UNL     1     -41.494 -52.111  10.496  1.00  0.00     0.186 HD
ENDBRANCH   5   6
ENDBRANCH   3   5
ENDBRANCH   1   3
BRANCH   1  12
HETATM   12  C   UNL     1     -42.889 -48.721  13.140  1.00  0.00     0.279 C 
BRANCH  12  13
HETATM   13  C   UNL     1     -42.889 -49.747  14.279  1.00  0.00     0.132 C 
BRANCH  13  14
HETATM   14  C   UNL     1     -43.888 -50.837  13.943  1.00  0.00     0.219 C 
HETATM   15  O   UNL     1     -43.694 -51.646  13.043  1.00  0.00    -0.274 OA
HETATM   16  N   UNL     1     -45.024 -50.832  14.724  1.00  0.00    -0.353 N 
HETATM   17  H   UNL     1     -45.076 -50.173  15.492  1.00  0.00     0.163 HD
BRANCH  16  18
HETATM   18  C   UNL     1     -46.120 -51.802  14.556  1.00  0.00     0.022 C 
HETATM   19  C   UNL     1     -45.627 -53.235  14.823  1.00  0.00     0.037 C 
HETATM   20  C   UNL     1     -47.230 -51.480  15.572  1.00  0.00     0.037 C 
HETATM   21  C   UNL     1     -46.726 -51.702  13.145  1.00  0.00     0.037 C 
ENDBRANCH  16  18
ENDBRANCH  13  14
ENDBRANCH  12  13
ENDBRANCH   1  12
TORSDOF 7
ENDMDL
MODEL 9
REMARK VINA RESULT:      -4.6      3.019      6.623
REMARK  7 active torsions:
REMARK  status: ('A' for Active; 'I' for Inactive)
REMARK    1  A    between atoms: C_2  and  C_3 
REMARK    2  A    between atoms: C_2  and  N_10 
REMARK    3  A    between atoms: C_3  and  N_4 
REMARK    4  A    between atoms: N_10  and  C_11 
REMARK    5  A    between atoms: C_11  and  C_12 
REMARK    6  A    between atoms: C_12  and  C_13 
REMARK       I    between atoms: C_13  and  N_15 
REMARK    7  A    between atoms: N_15  and  C_16 
ROOT
HETATM    1  N   UNL     1     -41.848 -49.431  11.206  1.00  0.00     0.089 N 
HETATM    2  H   UNL     1     -41.893 -49.533  10.190  1.00  0.00     0.316 HD
ENDROOT
BRANCH   1   3
HETATM    3  C   UNL     1     -41.580 -47.998  11.514  1.00  0.00     0.236 C 
HETATM    4  C   UNL     1     -40.106 -47.913  11.931  1.00  0.00     0.044 C 
BRANCH   3   5
HETATM    5  C   UNL     1     -41.882 -47.050  10.330  1.00  0.00     0.183 C 
BRANCH   5   6
HETATM    6  N   UNL     1     -43.013 -47.446   9.510  1.00  0.00    -0.302 N 
HETATM    7  C   UNL     1     -44.335 -47.300   9.823  1.00  0.00     0.111 A 
HETATM    8  C   UNL     1     -45.037 -47.713   8.714  1.00  0.00     0.037 A 
HETATM    9  C   UNL     1     -44.049 -48.086   7.787  1.00  0.00     0.108 A 
HETATM   10  N   UNL     1     -42.813 -47.926   8.266  1.00  0.00    -0.310 N 
ATOM     11  HN  UNL     1     -41.926 -48.121   7.801  1.00  0.00     0.186 HD
ENDBRANCH   5   6
ENDBRANCH   3   5
ENDBRANCH   1   3
BRANCH   1  12
HETATM   12  C   UNL     1     -40.793 -50.309  11.721  1.00  0.00     0.279 C 
BRANCH  12  13
HETATM   13  C   UNL     1     -41.299 -51.727  12.010  1.00  0.00     0.132 C 
BRANCH  13  14
HETATM   14  C   UNL     1     -40.361 -52.377  13.008  1.00  0.00     0.219 C 
HETATM   15  O   UNL     1     -39.154 -52.166  13.004  1.00  0.00    -0.274 OA
HETATM   16  N   UNL     1     -40.980 -53.223  13.905  1.00  0.00    -0.353 N 
HETATM   17  H   UNL     1     -41.990 -53.289  13.886  1.00  0.00     0.163 HD
BRANCH  16  18
HETATM   18  C   UNL     1     -40.248 -53.959  14.951  1.00  0.00     0.022 C 
HETATM   19  C   UNL     1     -39.594 -52.985  15.948  1.00  0.00     0.037 C 
HETATM   20  C   UNL     1     -41.242 -54.842  15.726  1.00  0.00     0.037 C 
HETATM   21  C   UNL     1     -39.183 -54.878  14.328  1.00  0.00     0.037 C 
ENDBRANCH  16  18
ENDBRANCH  13  14
ENDBRANCH  12  13
ENDBRANCH   1  12
TORSDOF 7
ENDMDL
