MODEL 1
REMARK VINA RESULT:      -6.5      0.000      0.000
REMARK  8 active torsions:
REMARK  status: ('A' for Active; 'I' for Inactive)
REMARK    1  A    between atoms: C_2  and  N_7 
REMARK    2  A    between atoms: N_3  and  C_16 
REMARK    3  A    between atoms: N_13  and  C_22 
REMARK    4  A    between atoms: C_15  and  C_16 
REMARK    5  A    between atoms: C_15  and  C_25 
REMARK    6  A    between atoms: C_22  and  C_29 
REMARK    7  A    between atoms: C_25  and  O_26 
REMARK    8  A    between atoms: O_27  and  C_29 
ROOT
HETATM    1  C   UNL     1     -42.599 -50.139  13.132  1.00  0.00     0.122 A 
HETATM    2  C   UNL     1     -41.727 -49.699  12.107  1.00  0.00     0.135 A 
HETATM    3  N   UNL     1     -43.586 -51.650  14.362  1.00  0.00    -0.326 N 
HETATM    4  C   UNL     1     -42.718 -51.506  13.318  1.00  0.00     0.140 A 
HETATM    5  N   UNL     1     -43.393 -49.471  14.052  1.00  0.00    -0.346 N 
ATOM      6  HN  UNL     1     -43.498 -48.462  14.159  1.00  0.00     0.167 HD
HETATM    7  C   UNL     1     -43.982 -50.411  14.758  1.00  0.00     0.185 A 
HETATM    8  N   UNL     1     -41.058 -50.684  11.427  1.00  0.00    -0.337 N 
ATOM      9  HN  UNL     1     -40.381 -50.436  10.706  1.00  0.00     0.168 HD
HETATM   10  N   UNL     1     -42.112 -52.490  12.637  1.00  0.00    -0.336 N 
ATOM     11  HN  UNL     1     -42.255 -53.487  12.802  1.00  0.00     0.168 HD
HETATM   12  C   UNL     1     -41.292 -51.980  11.710  1.00  0.00     0.183 A 
ENDROOT
BRANCH   2  13
HETATM   13  N   UNL     1     -41.483 -48.368  11.785  1.00  0.00    -0.358 N 
HETATM   14  C   UNL     1     -42.196 -47.793  10.629  1.00  0.00     0.110 C 
HETATM   15  C   UNL     1     -41.467 -46.489  10.177  1.00  0.00     0.297 C 
HETATM   16  C   UNL     1     -43.687 -47.578  10.918  1.00  0.00     0.034 C 
HETATM   17  N   UNL     1     -41.148 -45.482  11.214  1.00  0.00     0.094 N 
HETATM   18  C   UNL     1     -40.436 -46.169  12.315  1.00  0.00     0.292 C 
HETATM   19  C   UNL     1     -41.131 -47.435  12.870  1.00  0.00     0.155 C 
BRANCH  17  20
HETATM   20  C   UNL     1     -42.288 -44.709  11.723  1.00  0.00     0.303 C 
BRANCH  20  21
HETATM   21  C   UNL     1     -42.664 -43.448  10.915  1.00  0.00     0.142 C 
HETATM   22  C   UNL     1     -43.166 -42.323  11.808  1.00  0.00     0.041 C 
BRANCH  21  23
HETATM   23  O   UNL     1     -43.705 -43.769   9.986  1.00  0.00    -0.394 OA
HETATM   24  H   UNL     1     -43.939 -42.947   9.523  1.00  0.00     0.210 HD
ENDBRANCH  21  23
ENDBRANCH  20  21
ENDBRANCH  17  20
ENDBRANCH   2  13
BRANCH   3  25
HETATM   25  C   UNL     1     -44.020 -52.918  14.923  1.00  0.00     0.147 C 
BRANCH  25  26
HETATM   26  C   UNL     1     -45.257 -53.493  14.249  1.00  0.00     0.040 C 
HETATM   27  C   UNL     1     -46.221 -54.345  15.105  1.00  0.00     0.183 C 
HETATM   28  O   UNL     1     -46.148 -55.432  14.146  1.00  0.00    -0.389 OA
HETATM   29  C   UNL     1     -44.961 -54.840  13.560  1.00  0.00     0.183 C 
BRANCH  26  30
HETATM   30  C   UNL     1     -46.015 -52.508  13.365  1.00  0.00     0.179 C 
BRANCH  30  31
HETATM   31  O   UNL     1     -46.293 -53.115  12.109  1.00  0.00    -0.400 OA
HETATM   32  H   UNL     1     -46.549 -54.040  12.263  1.00  0.00     0.209 HD
ENDBRANCH  30  31
ENDBRANCH  26  30
ENDBRANCH  25  26
ENDBRANCH   3  25
TORSDOF 8
ENDMDL
MODEL 2
REMARK VINA RESULT:      -6.4      2.065      2.648
REMARK  8 active torsions:
REMARK  status: ('A' for Active; 'I' for Inactive)
REMARK    1  A    between atoms: C_2  and  N_7 
REMARK    2  A    between atoms: N_3  and  C_16 
REMARK    3  A    between atoms: N_13  and  C_22 
REMARK    4  A    between atoms: C_15  and  C_16 
REMARK    5  A    between atoms: C_15  and  C_25 
REMARK    6  A    between atoms: C_22  and  C_29 
REMARK    7  A    between atoms: C_25  and  O_26 
REMARK    8  A    between atoms: O_27  and  C_29 
ROOT
HETATM    1  C   UNL     1     -40.836 -49.137  13.143  1.00  0.00     0.122 A 
HETATM    2  C   UNL     1     -39.968 -48.305  12.395  1.00  0.00     0.135 A 
HETATM    3  N   UNL     1     -41.441 -51.018  14.073  1.00  0.00    -0.326 N 
HETATM    4  C   UNL     1     -40.456 -50.458  13.311  1.00  0.00     0.140 A 
HETATM    5  N   UNL     1     -42.039 -48.909  13.794  1.00  0.00    -0.346 N 
ATOM      6  HN  UNL     1     -42.553 -48.030  13.850  1.00  0.00     0.167 HD
HETATM    7  C   UNL     1     -42.379 -50.064  14.323  1.00  0.00     0.185 A 
HETATM    8  N   UNL     1     -38.815 -48.894  11.946  1.00  0.00    -0.337 N 
ATOM      9  HN  UNL     1     -38.124 -48.341  11.438  1.00  0.00     0.168 HD
HETATM   10  N   UNL     1     -39.358 -51.070  12.843  1.00  0.00    -0.336 N 
ATOM     11  HN  UNL     1     -39.139 -52.057  12.979  1.00  0.00     0.168 HD
HETATM   12  C   UNL     1     -38.590 -50.203  12.173  1.00  0.00     0.183 A 
ENDROOT
BRANCH   2  13
HETATM   13  N   UNL     1     -40.188 -46.957  12.131  1.00  0.00    -0.358 N 
HETATM   14  C   UNL     1     -40.744 -46.589  10.816  1.00  0.00     0.110 C 
HETATM   15  C   UNL     1     -40.490 -45.071  10.560  1.00  0.00     0.297 C 
HETATM   16  C   UNL     1     -42.220 -46.983  10.683  1.00  0.00     0.034 C 
HETATM   17  N   UNL     1     -40.867 -44.119  11.629  1.00  0.00     0.094 N 
HETATM   18  C   UNL     1     -40.253 -44.585  12.894  1.00  0.00     0.292 C 
HETATM   19  C   UNL     1     -40.519 -46.064  13.257  1.00  0.00     0.155 C 
BRANCH  17  20
HETATM   20  C   UNL     1     -42.307 -43.885  11.796  1.00  0.00     0.303 C 
BRANCH  20  21
HETATM   21  C   UNL     1     -42.949 -42.891  10.804  1.00  0.00     0.142 C 
HETATM   22  C   UNL     1     -43.703 -41.777  11.515  1.00  0.00     0.041 C 
BRANCH  21  23
HETATM   23  O   UNL     1     -43.879 -43.586   9.965  1.00  0.00    -0.394 OA
HETATM   24  H   UNL     1     -43.776 -43.228   9.067  1.00  0.00     0.210 HD
ENDBRANCH  21  23
ENDBRANCH  20  21
ENDBRANCH  17  20
ENDBRANCH   2  13
BRANCH   3  25
HETATM   25  C   UNL     1     -41.477 -52.402  14.512  1.00  0.00     0.147 C 
BRANCH  25  26
HETATM   26  C   UNL     1     -42.007 -53.364  13.459  1.00  0.00     0.040 C 
HETATM   27  C   UNL     1     -43.055 -52.836  12.454  1.00  0.00     0.183 C 
HETATM   28  O   UNL     1     -43.952 -53.929  12.781  1.00  0.00    -0.389 OA
HETATM   29  C   UNL     1     -43.191 -54.197  13.986  1.00  0.00     0.183 C 
BRANCH  26  30
HETATM   30  C   UNL     1     -40.934 -54.197  12.763  1.00  0.00     0.179 C 
BRANCH  30  31
HETATM   31  O   UNL     1     -40.552 -53.558  11.550  1.00  0.00    -0.400 OA
HETATM   32  H   UNL     1     -41.339 -53.146  11.156  1.00  0.00     0.209 HD
ENDBRANCH  30  31
ENDBRANCH  26  30
ENDBRANCH  25  26
ENDBRANCH   3  25
TORSDOF 8
ENDMDL
MODEL 3
REMARK VINA RESULT:      -6.3      1.788      7.905
REMARK  8 active torsions:
REMARK  status: ('A' for Active; 'I' for Inactive)
REMARK    1  A    between atoms: C_2  and  N_7 
REMARK    2  A    between atoms: N_3  and  C_16 
REMARK    3  A    between atoms: N_13  and  C_22 
REMARK    4  A    between atoms: C_15  and  C_16 
REMARK    5  A    between atoms: C_15  and  C_25 
REMARK    6  A    between atoms: C_22  and  C_29 
REMARK    7  A    between atoms: C_25  and  O_26 
REMARK    8  A    between atoms: O_27  and  C_29 
ROOT
HETATM    1  C   UNL     1     -42.011 -49.663  11.966  1.00  0.00     0.122 A 
HETATM    2  C   UNL     1     -41.302 -50.820  12.371  1.00  0.00     0.135 A 
HETATM    3  N   UNL     1     -42.208 -47.714  10.998  1.00  0.00    -0.326 N 
HETATM    4  C   UNL     1     -41.297 -48.691  11.283  1.00  0.00     0.140 A 
HETATM    5  N   UNL     1     -43.334 -49.268  12.095  1.00  0.00    -0.346 N 
ATOM      6  HN  UNL     1     -44.091 -49.785  12.542  1.00  0.00     0.167 HD
HETATM    7  C   UNL     1     -43.408 -48.088  11.519  1.00  0.00     0.185 A 
HETATM    8  N   UNL     1     -39.982 -50.872  12.005  1.00  0.00    -0.337 N 
ATOM      9  HN  UNL     1     -39.424 -51.697  12.226  1.00  0.00     0.168 HD
HETATM   10  N   UNL     1     -39.997 -48.697  10.954  1.00  0.00    -0.336 N 
ATOM     11  HN  UNL     1     -39.516 -47.940  10.468  1.00  0.00     0.168 HD
HETATM   12  C   UNL     1     -39.419 -49.836  11.354  1.00  0.00     0.183 A 
ENDROOT
BRANCH   2  13
HETATM   13  N   UNL     1     -41.858 -51.893  13.060  1.00  0.00    -0.358 N 
HETATM   14  C   UNL     1     -41.679 -51.945  14.523  1.00  0.00     0.110 C 
HETATM   15  C   UNL     1     -41.963 -53.397  15.021  1.00  0.00     0.297 C 
HETATM   16  C   UNL     1     -42.521 -50.886  15.246  1.00  0.00     0.034 C 
HETATM   17  N   UNL     1     -43.213 -54.048  14.572  1.00  0.00     0.094 N 
HETATM   18  C   UNL     1     -43.282 -53.938  13.097  1.00  0.00     0.292 C 
HETATM   19  C   UNL     1     -43.082 -52.515  12.526  1.00  0.00     0.155 C 
BRANCH  17  20
HETATM   20  C   UNL     1     -44.448 -53.556  15.197  1.00  0.00     0.303 C 
BRANCH  20  21
HETATM   21  C   UNL     1     -45.763 -53.923  14.475  1.00  0.00     0.142 C 
HETATM   22  C   UNL     1     -46.700 -52.731  14.350  1.00  0.00     0.041 C 
BRANCH  21  23
HETATM   23  O   UNL     1     -46.445 -54.943  15.213  1.00  0.00    -0.394 OA
HETATM   24  H   UNL     1     -47.113 -54.499  15.763  1.00  0.00     0.210 HD
ENDBRANCH  21  23
ENDBRANCH  20  21
ENDBRANCH  17  20
ENDBRANCH   2  13
BRANCH   3  25
HETATM   25  C   UNL     1     -41.920 -46.483  10.284  1.00  0.00     0.147 C 
BRANCH  25  26
HETATM   26  C   UNL     1     -41.413 -45.362  11.177  1.00  0.00     0.040 C 
HETATM   27  C   UNL     1     -41.686 -45.461  12.695  1.00  0.00     0.183 C 
HETATM   28  O   UNL     1     -42.284 -44.139  12.697  1.00  0.00    -0.389 OA
HETATM   29  C   UNL     1     -42.413 -44.191  11.253  1.00  0.00     0.183 C 
BRANCH  26  30
HETATM   30  C   UNL     1     -39.979 -44.924  10.894  1.00  0.00     0.179 C 
BRANCH  30  31
HETATM   31  O   UNL     1     -39.389 -45.815   9.954  1.00  0.00    -0.400 OA
HETATM   32  H   UNL     1     -38.437 -45.872  10.138  1.00  0.00     0.209 HD
ENDBRANCH  30  31
ENDBRANCH  26  30
ENDBRANCH  25  26
ENDBRANCH   3  25
TORSDOF 8
ENDMDL
MODEL 4
REMARK VINA RESULT:      -6.1      2.934      8.413
REMARK  8 active torsions:
REMARK  status: ('A' for Active; 'I' for Inactive)
REMARK    1  A    between atoms: C_2  and  N_7 
REMARK    2  A    between atoms: N_3  and  C_16 
REMARK    3  A    between atoms: N_13  and  C_22 
REMARK    4  A    between atoms: C_15  and  C_16 
REMARK    5  A    between atoms: C_15  and  C_25 
REMARK    6  A    between atoms: C_22  and  C_29 
REMARK    7  A    between atoms: C_25  and  O_26 
REMARK    8  A    between atoms: O_27  and  C_29 
ROOT
HETATM    1  C   UNL     1     -42.114 -47.777  12.869  1.00  0.00     0.122 A 
HETATM    2  C   UNL     1     -42.421 -48.880  12.037  1.00  0.00     0.135 A 
HETATM    3  N   UNL     1     -42.073 -45.655  13.388  1.00  0.00    -0.326 N 
HETATM    4  C   UNL     1     -42.454 -46.518  12.400  1.00  0.00     0.140 A 
HETATM    5  N   UNL     1     -41.529 -47.667  14.121  1.00  0.00    -0.346 N 
ATOM      6  HN  UNL     1     -41.188 -48.426  14.711  1.00  0.00     0.167 HD
HETATM    7  C   UNL     1     -41.505 -46.380  14.389  1.00  0.00     0.185 A 
HETATM    8  N   UNL     1     -43.065 -48.585  10.864  1.00  0.00    -0.337 N 
ATOM      9  HN  UNL     1     -43.355 -49.337  10.238  1.00  0.00     0.168 HD
HETATM   10  N   UNL     1     -43.041 -46.198  11.237  1.00  0.00    -0.336 N 
ATOM     11  HN  UNL     1     -43.249 -45.247  10.932  1.00  0.00     0.168 HD
HETATM   12  C   UNL     1     -43.315 -47.303  10.533  1.00  0.00     0.183 A 
ENDROOT
BRANCH   2  13
HETATM   13  N   UNL     1     -42.156 -50.211  12.349  1.00  0.00    -0.358 N 
HETATM   14  C   UNL     1     -40.960 -50.836  11.754  1.00  0.00     0.110 C 
HETATM   15  C   UNL     1     -41.093 -52.388  11.853  1.00  0.00     0.297 C 
HETATM   16  C   UNL     1     -39.662 -50.304  12.372  1.00  0.00     0.034 C 
HETATM   17  N   UNL     1     -41.451 -52.967  13.167  1.00  0.00     0.094 N 
HETATM   18  C   UNL     1     -42.659 -52.268  13.661  1.00  0.00     0.292 C 
HETATM   19  C   UNL     1     -42.581 -50.724  13.663  1.00  0.00     0.155 C 
BRANCH  17  20
HETATM   20  C   UNL     1     -40.386 -52.960  14.178  1.00  0.00     0.303 C 
BRANCH  20  21
HETATM   21  C   UNL     1     -39.686 -54.313  14.431  1.00  0.00     0.142 C 
HETATM   22  C   UNL     1     -38.934 -54.331  15.754  1.00  0.00     0.041 C 
BRANCH  21  23
HETATM   23  O   UNL     1     -38.740 -54.565  13.385  1.00  0.00    -0.394 OA
HETATM   24  H   UNL     1     -38.174 -53.777  13.317  1.00  0.00     0.210 HD
ENDBRANCH  21  23
ENDBRANCH  20  21
ENDBRANCH  17  20
ENDBRANCH   2  13
BRANCH   3  25
HETATM   25  C   UNL     1     -42.231 -44.212  13.347  1.00  0.00     0.147 C 
BRANCH  25  26
HETATM   26  C   UNL     1     -41.085 -43.490  12.655  1.00  0.00     0.040 C 
HETATM   27  C   UNL     1     -39.704 -44.182  12.624  1.00  0.00     0.183 C 
HETATM   28  O   UNL     1     -39.075 -43.002  13.189  1.00  0.00    -0.389 OA
HETATM   29  C   UNL     1     -40.373 -42.504  13.602  1.00  0.00     0.183 C 
BRANCH  26  30
HETATM   30  C   UNL     1     -41.439 -42.888  11.299  1.00  0.00     0.179 C 
BRANCH  30  31
HETATM   31  O   UNL     1     -40.396 -43.163  10.371  1.00  0.00    -0.400 OA
HETATM   32  H   UNL     1     -39.562 -42.819  10.733  1.00  0.00     0.209 HD
ENDBRANCH  30  31
ENDBRANCH  26  30
ENDBRANCH  25  26
ENDBRANCH   3  25
TORSDOF 8
ENDMDL
MODEL 5
REMARK VINA RESULT:      -6.0      2.417      3.310
REMARK  8 active torsions:
REMARK  status: ('A' for Active; 'I' for Inactive)
REMARK    1  A    between atoms: C_2  and  N_7 
REMARK    2  A    between atoms: N_3  and  C_16 
REMARK    3  A    between atoms: N_13  and  C_22 
REMARK    4  A    between atoms: C_15  and  C_16 
REMARK    5  A    between atoms: C_15  and  C_25 
REMARK    6  A    between atoms: C_22  and  C_29 
REMARK    7  A    between atoms: C_25  and  O_26 
REMARK    8  A    between atoms: O_27  and  C_29 
ROOT
HETATM    1  C   UNL     1     -42.061 -49.113  12.501  1.00  0.00     0.122 A 
HETATM    2  C   UNL     1     -41.210 -48.095  12.008  1.00  0.00     0.135 A 
HETATM    3  N   UNL     1     -42.732 -51.180  12.723  1.00  0.00    -0.326 N 
HETATM    4  C   UNL     1     -41.793 -50.411  12.096  1.00  0.00     0.140 A 
HETATM    5  N   UNL     1     -43.152 -49.105  13.356  1.00  0.00    -0.346 N 
ATOM      6  HN  UNL     1     -43.569 -48.296  13.816  1.00  0.00     0.167 HD
HETATM    7  C   UNL     1     -43.537 -50.359  13.449  1.00  0.00     0.185 A 
HETATM    8  N   UNL     1     -40.180 -48.512  11.206  1.00  0.00    -0.337 N 
ATOM      9  HN  UNL     1     -39.503 -47.835  10.852  1.00  0.00     0.168 HD
HETATM   10  N   UNL     1     -40.822 -50.840  11.277  1.00  0.00    -0.336 N 
ATOM     11  HN  UNL     1     -40.684 -51.810  10.994  1.00  0.00     0.168 HD
HETATM   12  C   UNL     1     -40.057 -49.814  10.883  1.00  0.00     0.183 A 
ENDROOT
BRANCH   2  13
HETATM   13  N   UNL     1     -41.328 -46.742  12.311  1.00  0.00    -0.358 N 
HETATM   14  C   UNL     1     -40.786 -46.271  13.599  1.00  0.00     0.110 C 
HETATM   15  C   UNL     1     -41.405 -44.878  13.935  1.00  0.00     0.297 C 
HETATM   16  C   UNL     1     -39.253 -46.266  13.613  1.00  0.00     0.034 C 
HETATM   17  N   UNL     1     -41.373 -43.837  12.883  1.00  0.00     0.094 N 
HETATM   18  C   UNL     1     -41.940 -44.420  11.645  1.00  0.00     0.292 C 
HETATM   19  C   UNL     1     -41.329 -45.770  11.204  1.00  0.00     0.155 C 
BRANCH  17  20
HETATM   20  C   UNL     1     -40.059 -43.231  12.627  1.00  0.00     0.303 C 
BRANCH  20  21
HETATM   21  C   UNL     1     -39.994 -41.691  12.736  1.00  0.00     0.142 C 
HETATM   22  C   UNL     1     -40.784 -41.167  13.926  1.00  0.00     0.041 C 
BRANCH  21  23
HETATM   23  O   UNL     1     -40.543 -41.104  11.551  1.00  0.00    -0.394 OA
HETATM   24  H   UNL     1     -40.187 -41.602  10.796  1.00  0.00     0.210 HD
ENDBRANCH  21  23
ENDBRANCH  20  21
ENDBRANCH  17  20
ENDBRANCH   2  13
BRANCH   3  25
HETATM   25  C   UNL     1     -42.849 -52.623  12.603  1.00  0.00     0.147 C 
BRANCH  25  26
HETATM   26  C   UNL     1     -41.988 -53.391  13.594  1.00  0.00     0.040 C 
HETATM   27  C   UNL     1     -42.680 -54.431  14.504  1.00  0.00     0.183 C 
HETATM   28  O   UNL     1     -42.112 -53.809  15.685  1.00  0.00    -0.389 OA
HETATM   29  C   UNL     1     -41.806 -52.618  14.915  1.00  0.00     0.183 C 
BRANCH  26  30
HETATM   30  C   UNL     1     -40.684 -53.932  13.017  1.00  0.00     0.179 C 
BRANCH  30  31
HETATM   31  O   UNL     1     -40.641 -53.670  11.618  1.00  0.00    -0.400 OA
HETATM   32  H   UNL     1     -41.552 -53.647  11.280  1.00  0.00     0.209 HD
ENDBRANCH  30  31
ENDBRANCH  26  30
ENDBRANCH  25  26
ENDBRANCH   3  25
TORSDOF 8
ENDMDL
MODEL 6
REMARK VINA RESULT:      -5.8      1.952      8.484
REMARK  8 active torsions:
REMARK  status: ('A' for Active; 'I' for Inactive)
REMARK    1  A    between atoms: C_2  and  N_7 
REMARK    2  A    between atoms: N_3  and  C_16 
REMARK    3  A    between atoms: N_13  and  C_22 
REMARK    4  A    between atoms: C_15  and  C_16 
REMARK    5  A    between atoms: C_15  and  C_25 
REMARK    6  A    between atoms: C_22  and  C_29 
REMARK    7  A    between atoms: C_25  and  O_26 
REMARK    8  A    between atoms: O_27  and  C_29 
ROOT
HETATM    1  C   UNL     1     -40.804 -47.907  12.279  1.00  0.00     0.122 A 
HETATM    2  C   UNL     1     -41.462 -49.102  11.898  1.00  0.00     0.135 A 
HETATM    3  N   UNL     1     -40.239 -45.811  12.042  1.00  0.00    -0.326 N 
HETATM    4  C   UNL     1     -40.941 -46.815  11.438  1.00  0.00     0.140 A 
HETATM    5  N   UNL     1     -40.023 -47.562  13.372  1.00  0.00    -0.346 N 
ATOM      6  HN  UNL     1     -39.763 -48.159  14.156  1.00  0.00     0.167 HD
HETATM    7  C   UNL     1     -39.688 -46.305  13.183  1.00  0.00     0.185 A 
HETATM    8  N   UNL     1     -42.203 -49.036  10.747  1.00  0.00    -0.337 N 
ATOM      9  HN  UNL     1     -42.738 -49.848  10.438  1.00  0.00     0.168 HD
HETATM   10  N   UNL     1     -41.620 -46.738  10.284  1.00  0.00    -0.336 N 
ATOM     11  HN  UNL     1     -41.668 -45.909   9.691  1.00  0.00     0.168 HD
HETATM   12  C   UNL     1     -42.226 -47.902  10.020  1.00  0.00     0.183 A 
ENDROOT
BRANCH   2  13
HETATM   13  N   UNL     1     -41.437 -50.290  12.622  1.00  0.00    -0.358 N 
HETATM   14  C   UNL     1     -42.202 -50.351  13.881  1.00  0.00     0.110 C 
HETATM   15  C   UNL     1     -41.690 -51.556  14.732  1.00  0.00     0.297 C 
HETATM   16  C   UNL     1     -43.715 -50.387  13.637  1.00  0.00     0.034 C 
HETATM   17  N   UNL     1     -41.577 -52.872  14.064  1.00  0.00     0.094 N 
HETATM   18  C   UNL     1     -40.792 -52.689  12.822  1.00  0.00     0.292 C 
HETATM   19  C   UNL     1     -41.280 -51.558  11.887  1.00  0.00     0.155 C 
BRANCH  17  20
HETATM   20  C   UNL     1     -42.846 -53.559  13.791  1.00  0.00     0.303 C 
BRANCH  20  21
HETATM   21  C   UNL     1     -43.428 -54.389  14.956  1.00  0.00     0.142 C 
HETATM   22  C   UNL     1     -42.361 -55.208  15.666  1.00  0.00     0.041 C 
BRANCH  21  23
HETATM   23  O   UNL     1     -44.414 -55.296  14.450  1.00  0.00    -0.394 OA
HETATM   24  H   UNL     1     -45.034 -55.478  15.177  1.00  0.00     0.210 HD
ENDBRANCH  21  23
ENDBRANCH  20  21
ENDBRANCH  17  20
ENDBRANCH   2  13
BRANCH   3  25
HETATM   25  C   UNL     1     -40.095 -44.461  11.525  1.00  0.00     0.147 C 
BRANCH  25  26
HETATM   26  C   UNL     1     -41.034 -43.455  12.173  1.00  0.00     0.040 C 
HETATM   27  C   UNL     1     -42.412 -43.955  12.659  1.00  0.00     0.183 C 
HETATM   28  O   UNL     1     -43.082 -42.916  11.899  1.00  0.00    -0.389 OA
HETATM   29  C   UNL     1     -41.874 -42.697  11.126  1.00  0.00     0.183 C 
BRANCH  26  30
HETATM   30  C   UNL     1     -40.374 -42.543  13.203  1.00  0.00     0.179 C 
BRANCH  30  31
HETATM   31  O   UNL     1     -38.976 -42.808  13.243  1.00  0.00    -0.400 OA
HETATM   32  H   UNL     1     -38.500 -41.963  13.174  1.00  0.00     0.209 HD
ENDBRANCH  30  31
ENDBRANCH  26  30
ENDBRANCH  25  26
ENDBRANCH   3  25
TORSDOF 8
ENDMDL
MODEL 7
REMARK VINA RESULT:      -5.8      2.853      7.865
REMARK  8 active torsions:
REMARK  status: ('A' for Active; 'I' for Inactive)
REMARK    1  A    between atoms: C_2  and  N_7 
REMARK    2  A    between atoms: N_3  and  C_16 
REMARK    3  A    between atoms: N_13  and  C_22 
REMARK    4  A    between atoms: C_15  and  C_16 
REMARK    5  A    between atoms: C_15  and  C_25 
REMARK    6  A    between atoms: C_22  and  C_29 
REMARK    7  A    between atoms: C_25  and  O_26 
REMARK    8  A    between atoms: O_27  and  C_29 
ROOT
HETATM    1  C   UNL     1     -41.886 -49.966  12.171  1.00  0.00     0.122 A 
HETATM    2  C   UNL     1     -40.852 -50.910  12.375  1.00  0.00     0.135 A 
HETATM    3  N   UNL     1     -42.742 -48.131  11.350  1.00  0.00    -0.326 N 
HETATM    4  C   UNL     1     -41.583 -48.852  11.405  1.00  0.00     0.140 A 
HETATM    5  N   UNL     1     -43.212 -49.909  12.575  1.00  0.00    -0.346 N 
ATOM      6  HN  UNL     1     -43.714 -50.594  13.140  1.00  0.00     0.167 HD
HETATM    7  C   UNL     1     -43.684 -48.787  12.080  1.00  0.00     0.185 A 
HETATM    8  N   UNL     1     -39.661 -50.637  11.754  1.00  0.00    -0.337 N 
ATOM      9  HN  UNL     1     -38.887 -51.298  11.823  1.00  0.00     0.168 HD
HETATM   10  N   UNL     1     -40.415 -48.538  10.826  1.00  0.00    -0.336 N 
ATOM     11  HN  UNL     1     -40.241 -47.688  10.289  1.00  0.00     0.168 HD
HETATM   12  C   UNL     1     -39.509 -49.497  11.052  1.00  0.00     0.183 A 
ENDROOT
BRANCH   2  13
HETATM   13  N   UNL     1     -40.979 -52.084  13.111  1.00  0.00    -0.358 N 
HETATM   14  C   UNL     1     -40.483 -52.089  14.500  1.00  0.00     0.110 C 
HETATM   15  C   UNL     1     -40.305 -53.565  14.973  1.00  0.00     0.297 C 
HETATM   16  C   UNL     1     -41.373 -51.261  15.434  1.00  0.00     0.034 C 
HETATM   17  N   UNL     1     -41.435 -54.498  14.764  1.00  0.00     0.094 N 
HETATM   18  C   UNL     1     -41.844 -54.410  13.344  1.00  0.00     0.292 C 
HETATM   19  C   UNL     1     -42.110 -52.982  12.815  1.00  0.00     0.155 C 
BRANCH  17  20
HETATM   20  C   UNL     1     -42.587 -54.314  15.657  1.00  0.00     0.303 C 
BRANCH  20  21
HETATM   21  C   UNL     1     -42.507 -55.037  17.020  1.00  0.00     0.142 C 
HETATM   22  C   UNL     1     -41.947 -56.446  16.888  1.00  0.00     0.041 C 
BRANCH  21  23
HETATM   23  O   UNL     1     -43.818 -55.136  17.586  1.00  0.00    -0.394 OA
HETATM   24  H   UNL     1     -43.813 -54.619  18.409  1.00  0.00     0.210 HD
ENDBRANCH  21  23
ENDBRANCH  20  21
ENDBRANCH  17  20
ENDBRANCH   2  13
BRANCH   3  25
HETATM   25  C   UNL     1     -42.912 -46.871  10.649  1.00  0.00     0.147 C 
BRANCH  25  26
HETATM   26  C   UNL     1     -43.764 -46.980   9.393  1.00  0.00     0.040 C 
HETATM   27  C   UNL     1     -44.447 -45.699   8.865  1.00  0.00     0.183 C 
HETATM   28  O   UNL     1     -45.737 -46.363   8.856  1.00  0.00    -0.389 OA
HETATM   29  C   UNL     1     -45.210 -47.406   9.715  1.00  0.00     0.183 C 
BRANCH  26  30
HETATM   30  C   UNL     1     -43.127 -47.781   8.262  1.00  0.00     0.179 C 
BRANCH  30  31
HETATM   31  O   UNL     1     -44.131 -48.162   7.328  1.00  0.00    -0.400 OA
HETATM   32  H   UNL     1     -44.189 -49.133   7.316  1.00  0.00     0.209 HD
ENDBRANCH  30  31
ENDBRANCH  26  30
ENDBRANCH  25  26
ENDBRANCH   3  25
TORSDOF 8
ENDMDL
MODEL 8
REMARK VINA RESULT:      -5.7      3.072      8.598
REMARK  8 active torsions:
REMARK  status: ('A' for Active; 'I' for Inactive)
REMARK    1  A    between atoms: C_2  and  N_7 
REMARK    2  A    between atoms: N_3  and  C_16 
REMARK    3  A    between atoms: N_13  and  C_22 
REMARK    4  A    between atoms: C_15  and  C_16 
REMARK    5  A    between atoms: C_15  and  C_25 
REMARK    6  A    between atoms: C_22  and  C_29 
REMARK    7  A    between atoms: C_25  and  O_26 
REMARK    8  A    between atoms: O_27  and  C_29 
ROOT
HETATM    1  C   UNL     1     -40.078 -46.065  12.951  1.00  0.00     0.122 A 
HETATM    2  C   UNL     1     -39.965 -47.183  12.091  1.00  0.00     0.135 A 
HETATM    3  N   UNL     1     -40.241 -43.932  13.395  1.00  0.00    -0.326 N 
HETATM    4  C   UNL     1     -40.109 -44.813  12.360  1.00  0.00     0.140 A 
HETATM    5  N   UNL     1     -40.183 -45.935  14.328  1.00  0.00    -0.346 N 
ATOM      6  HN  UNL     1     -40.198 -46.685  15.019  1.00  0.00     0.167 HD
HETATM    7  C   UNL     1     -40.260 -44.642  14.556  1.00  0.00     0.185 A 
HETATM    8  N   UNL     1     -39.939 -46.905  10.749  1.00  0.00    -0.337 N 
ATOM      9  HN  UNL     1     -39.904 -47.668  10.071  1.00  0.00     0.168 HD
HETATM   10  N   UNL     1     -40.038 -44.512  11.055  1.00  0.00    -0.336 N 
ATOM     11  HN  UNL     1     -40.044 -43.565  10.674  1.00  0.00     0.168 HD
HETATM   12  C   UNL     1     -39.960 -45.628  10.321  1.00  0.00     0.183 A 
ENDROOT
BRANCH   2  13
HETATM   13  N   UNL     1     -39.923 -48.510  12.510  1.00  0.00    -0.358 N 
HETATM   14  C   UNL     1     -41.105 -49.055  13.204  1.00  0.00     0.110 C 
HETATM   15  C   UNL     1     -40.695 -50.355  13.965  1.00  0.00     0.297 C 
HETATM   16  C   UNL     1     -42.288 -49.265  12.252  1.00  0.00     0.034 C 
HETATM   17  N   UNL     1     -39.942 -51.385  13.215  1.00  0.00     0.094 N 
HETATM   18  C   UNL     1     -38.785 -50.726  12.568  1.00  0.00     0.292 C 
HETATM   19  C   UNL     1     -39.118 -49.468  11.732  1.00  0.00     0.155 C 
BRANCH  17  20
HETATM   20  C   UNL     1     -40.722 -52.161  12.242  1.00  0.00     0.303 C 
BRANCH  20  21
HETATM   21  C   UNL     1     -40.914 -53.658  12.569  1.00  0.00     0.142 C 
HETATM   22  C   UNL     1     -41.978 -53.879  13.633  1.00  0.00     0.041 C 
BRANCH  21  23
HETATM   23  O   UNL     1     -39.683 -54.201  13.059  1.00  0.00    -0.394 OA
HETATM   24  H   UNL     1     -39.912 -54.934  13.655  1.00  0.00     0.210 HD
ENDBRANCH  21  23
ENDBRANCH  20  21
ENDBRANCH  17  20
ENDBRANCH   2  13
BRANCH   3  25
HETATM   25  C   UNL     1     -40.320 -42.488  13.263  1.00  0.00     0.147 C 
BRANCH  25  26
HETATM   26  C   UNL     1     -41.670 -41.993  12.765  1.00  0.00     0.040 C 
HETATM   27  C   UNL     1     -42.496 -41.077  13.695  1.00  0.00     0.183 C 
HETATM   28  O   UNL     1     -43.647 -41.952  13.572  1.00  0.00    -0.389 OA
HETATM   29  C   UNL     1     -42.795 -43.006  13.054  1.00  0.00     0.183 C 
BRANCH  26  30
HETATM   30  C   UNL     1     -41.667 -41.476  11.330  1.00  0.00     0.179 C 
BRANCH  30  31
HETATM   31  O   UNL     1     -42.348 -42.402  10.491  1.00  0.00    -0.400 OA
HETATM   32  H   UNL     1     -43.294 -42.181  10.492  1.00  0.00     0.209 HD
ENDBRANCH  30  31
ENDBRANCH  26  30
ENDBRANCH  25  26
ENDBRANCH   3  25
TORSDOF 8
ENDMDL
MODEL 9
REMARK VINA RESULT:      -5.6      2.467      3.279
REMARK  8 active torsions:
REMARK  status: ('A' for Active; 'I' for Inactive)
REMARK    1  A    between atoms: C_2  and  N_7 
REMARK    2  A    between atoms: N_3  and  C_16 
REMARK    3  A    between atoms: N_13  and  C_22 
REMARK    4  A    between atoms: C_15  and  C_16 
REMARK    5  A    between atoms: C_15  and  C_25 
REMARK    6  A    between atoms: C_22  and  C_29 
REMARK    7  A    between atoms: C_25  and  O_26 
REMARK    8  A    between atoms: O_27  and  C_29 
ROOT
HETATM    1  C   UNL     1     -42.374 -51.301  13.357  1.00  0.00     0.122 A 
HETATM    2  C   UNL     1     -41.673 -50.648  12.315  1.00  0.00     0.135 A 
HETATM    3  N   UNL     1     -43.061 -53.048  14.473  1.00  0.00    -0.326 N 
HETATM    4  C   UNL     1     -42.336 -52.685  13.374  1.00  0.00     0.140 A 
HETATM    5  N   UNL     1     -43.120 -50.840  14.431  1.00  0.00    -0.346 N 
ATOM      6  HN  UNL     1     -43.311 -49.869  14.678  1.00  0.00     0.167 HD
HETATM    7  C   UNL     1     -43.530 -51.917  15.065  1.00  0.00     0.185 A 
HETATM    8  N   UNL     1     -40.992 -51.464  11.449  1.00  0.00    -0.337 N 
ATOM      9  HN  UNL     1     -40.430 -51.057  10.701  1.00  0.00     0.168 HD
HETATM   10  N   UNL     1     -41.718 -53.507  12.513  1.00  0.00    -0.336 N 
ATOM     11  HN  UNL     1     -41.742 -54.526  12.561  1.00  0.00     0.168 HD
HETATM   12  C   UNL     1     -41.064 -52.803  11.582  1.00  0.00     0.183 A 
ENDROOT
BRANCH   2  13
HETATM   13  N   UNL     1     -41.600 -49.269  12.146  1.00  0.00    -0.358 N 
HETATM   14  C   UNL     1     -40.934 -48.476  13.196  1.00  0.00     0.110 C 
HETATM   15  C   UNL     1     -41.350 -46.979  13.047  1.00  0.00     0.297 C 
HETATM   16  C   UNL     1     -39.414 -48.680  13.198  1.00  0.00     0.034 C 
HETATM   17  N   UNL     1     -41.240 -46.363  11.705  1.00  0.00     0.094 N 
HETATM   18  C   UNL     1     -41.943 -47.239  10.740  1.00  0.00     0.292 C 
HETATM   19  C   UNL     1     -41.534 -48.730  10.775  1.00  0.00     0.155 C 
BRANCH  17  20
HETATM   20  C   UNL     1     -39.876 -46.065  11.251  1.00  0.00     0.303 C 
BRANCH  20  21
HETATM   21  C   UNL     1     -39.660 -44.664  10.637  1.00  0.00     0.142 C 
HETATM   22  C   UNL     1     -40.696 -43.661  11.120  1.00  0.00     0.041 C 
BRANCH  21  23
HETATM   23  O   UNL     1     -39.759 -44.748   9.211  1.00  0.00    -0.394 OA
HETATM   24  H   UNL     1     -40.668 -44.497   8.973  1.00  0.00     0.210 HD
ENDBRANCH  21  23
ENDBRANCH  20  21
ENDBRANCH  17  20
ENDBRANCH   2  13
BRANCH   3  25
HETATM   25  C   UNL     1     -43.301 -54.414  14.905  1.00  0.00     0.147 C 
BRANCH  25  26
HETATM   26  C   UNL     1     -42.464 -54.832  16.105  1.00  0.00     0.040 C 
HETATM   27  C   UNL     1     -42.369 -56.338  16.435  1.00  0.00     0.183 C 
HETATM   28  O   UNL     1     -42.791 -56.088  17.801  1.00  0.00    -0.389 OA
HETATM   29  C   UNL     1     -43.273 -54.776  17.416  1.00  0.00     0.183 C 
BRANCH  26  30
HETATM   30  C   UNL     1     -41.102 -54.151  16.197  1.00  0.00     0.179 C 
BRANCH  30  31
HETATM   31  O   UNL     1     -40.156 -55.059  16.749  1.00  0.00    -0.400 OA
HETATM   32  H   UNL     1     -39.934 -55.722  16.075  1.00  0.00     0.209 HD
ENDBRANCH  30  31
ENDBRANCH  26  30
ENDBRANCH  25  26
ENDBRANCH   3  25
TORSDOF 8
ENDMDL
