MODEL 1
REMARK VINA RESULT:      -5.7      0.000      0.000
REMARK  7 active torsions:
REMARK  status: ('A' for Active; 'I' for Inactive)
REMARK    1  A    between atoms: C_2  and  C_4 
REMARK    2  A    between atoms: C_7  and  O_8 
REMARK    3  A    between atoms: O_8  and  C_9 
REMARK    4  A    between atoms: C_9  and  C_10 
REMARK    5  A    between atoms: C_10  and  O_11 
REMARK    6  A    between atoms: C_10  and  C_12 
REMARK    7  A    between atoms: C_12  and  N_13 
ROOT
HETATM    1  C   UNL     1     -41.920 -52.640  12.184  1.00  0.00     0.160 C 
ENDROOT
BRANCH   1   2
HETATM    2  C   UNL     1     -41.851 -51.263  12.872  1.00  0.00     0.209 C 
BRANCH   2   3
HETATM    3  O   UNL     1     -43.119 -50.622  12.682  1.00  0.00    -0.349 OA
BRANCH   3   4
HETATM    4  C   UNL     1     -44.011 -50.661  13.716  1.00  0.00     0.068 A 
HETATM    5  C   UNL     1     -45.284 -51.116  13.365  1.00  0.00     0.037 A 
HETATM    6  C   UNL     1     -46.291 -51.249  14.325  1.00  0.00     0.018 A 
HETATM    7  C   UNL     1     -46.024 -50.944  15.663  1.00  0.00     0.009 A 
HETATM    8  C   UNL     1     -44.744 -50.495  16.016  1.00  0.00     0.018 A 
HETATM    9  C   UNL     1     -43.740 -50.351  15.047  1.00  0.00     0.037 A 
BRANCH   7  10
HETATM   10  C   UNL     1     -47.058 -51.094  16.731  1.00  0.00     0.155 C 
HETATM   11  C   UNL     1     -46.768 -50.552  18.107  1.00  0.00     0.096 C 
HETATM   12  O   UNL     1     -48.121 -51.656  16.478  1.00  0.00    -0.293 OA
ENDBRANCH   7  10
ENDBRANCH   3   4
ENDBRANCH   2   3
ENDBRANCH   1   2
BRANCH   1  13
HETATM   13  O   UNL     1     -41.094 -52.585  11.012  1.00  0.00    -0.392 OA
HETATM   14  H   UNL     1     -40.805 -51.658  10.908  1.00  0.00     0.210 HD
ENDBRANCH   1  13
BRANCH   1  15
HETATM   15  C   UNL     1     -41.449 -53.771  13.111  1.00  0.00     0.164 C 
BRANCH  15  16
HETATM   16  N   UNL     1     -42.191 -53.836  14.364  1.00  0.00    -0.332 N 
HETATM   17  C   UNL     1     -41.730 -53.490  15.620  1.00  0.00     0.080 A 
HETATM   18  C   UNL     1     -40.346 -53.062  15.949  1.00  0.00     0.089 C 
HETATM   19  N   UNL     1     -42.696 -53.571  16.512  1.00  0.00    -0.344 N 
HETATM   20  C   UNL     1     -43.806 -53.987  15.830  1.00  0.00     0.060 A 
ATOM     21  HN  UNL     1     -42.630 -53.365  17.508  1.00  0.00     0.167 HD
HETATM   22  C   UNL     1     -45.099 -54.231  16.311  1.00  0.00     0.032 A 
HETATM   23  C   UNL     1     -43.524 -54.172  14.480  1.00  0.00     0.062 A 
HETATM   24  C   UNL     1     -46.084 -54.656  15.414  1.00  0.00     0.002 A 
HETATM   25  C   UNL     1     -45.783 -54.836  14.064  1.00  0.00     0.002 A 
HETATM   26  C   UNL     1     -44.496 -54.598  13.565  1.00  0.00     0.032 A 
ENDBRANCH  15  16
ENDBRANCH   1  15
TORSDOF 7
ENDMDL
MODEL 2
REMARK VINA RESULT:      -5.6      4.698      7.512
REMARK  7 active torsions:
REMARK  status: ('A' for Active; 'I' for Inactive)
REMARK    1  A    between atoms: C_2  and  C_4 
REMARK    2  A    between atoms: C_7  and  O_8 
REMARK    3  A    between atoms: O_8  and  C_9 
REMARK    4  A    between atoms: C_9  and  C_10 
REMARK    5  A    between atoms: C_10  and  O_11 
REMARK    6  A    between atoms: C_10  and  C_12 
REMARK    7  A    between atoms: C_12  and  N_13 
ROOT
HETATM    1  C   UNL     1     -39.922 -49.531  11.597  1.00  0.00     0.160 C 
ENDROOT
BRANCH   1   2
HETATM    2  C   UNL     1     -39.601 -50.687  12.563  1.00  0.00     0.209 C 
BRANCH   2   3
HETATM    3  O   UNL     1     -39.973 -51.908  11.912  1.00  0.00    -0.349 OA
BRANCH   3   4
HETATM    4  C   UNL     1     -41.012 -52.618  12.441  1.00  0.00     0.068 A 
HETATM    5  C   UNL     1     -40.636 -53.584  13.377  1.00  0.00     0.037 A 
HETATM    6  C   UNL     1     -41.594 -54.361  14.034  1.00  0.00     0.018 A 
HETATM    7  C   UNL     1     -42.953 -54.163  13.773  1.00  0.00     0.009 A 
HETATM    8  C   UNL     1     -43.331 -53.188  12.840  1.00  0.00     0.018 A 
HETATM    9  C   UNL     1     -42.365 -52.418  12.173  1.00  0.00     0.037 A 
BRANCH   7  10
HETATM   10  C   UNL     1     -44.017 -54.949  14.467  1.00  0.00     0.155 C 
HETATM   11  C   UNL     1     -45.368 -55.084  13.813  1.00  0.00     0.096 C 
HETATM   12  O   UNL     1     -43.781 -55.467  15.556  1.00  0.00    -0.293 OA
ENDBRANCH   7  10
ENDBRANCH   3   4
ENDBRANCH   2   3
ENDBRANCH   1   2
BRANCH   1  13
HETATM   13  O   UNL     1     -40.244 -50.103  10.321  1.00  0.00    -0.392 OA
HETATM   14  H   UNL     1     -39.495 -50.676  10.066  1.00  0.00     0.210 HD
ENDBRANCH   1  13
BRANCH   1  15
HETATM   15  C   UNL     1     -41.091 -48.669  12.099  1.00  0.00     0.164 C 
BRANCH  15  16
HETATM   16  N   UNL     1     -41.065 -47.305  11.584  1.00  0.00    -0.332 N 
HETATM   17  C   UNL     1     -41.797 -46.805  10.524  1.00  0.00     0.080 A 
HETATM   18  C   UNL     1     -42.697 -47.592   9.642  1.00  0.00     0.089 C 
HETATM   19  N   UNL     1     -41.609 -45.507  10.396  1.00  0.00    -0.344 N 
HETATM   20  C   UNL     1     -40.731 -45.154  11.382  1.00  0.00     0.060 A 
ATOM     21  HN  UNL     1     -42.033 -44.891   9.703  1.00  0.00     0.167 HD
HETATM   22  C   UNL     1     -40.203 -43.892  11.685  1.00  0.00     0.032 A 
HETATM   23  C   UNL     1     -40.361 -46.259  12.143  1.00  0.00     0.062 A 
HETATM   24  C   UNL     1     -39.309 -43.773  12.755  1.00  0.00     0.002 A 
HETATM   25  C   UNL     1     -38.950 -44.891  13.506  1.00  0.00     0.002 A 
HETATM   26  C   UNL     1     -39.467 -46.161  13.218  1.00  0.00     0.032 A 
ENDBRANCH  15  16
ENDBRANCH   1  15
TORSDOF 7
ENDMDL
MODEL 3
REMARK VINA RESULT:      -5.6      4.417      6.883
REMARK  7 active torsions:
REMARK  status: ('A' for Active; 'I' for Inactive)
REMARK    1  A    between atoms: C_2  and  C_4 
REMARK    2  A    between atoms: C_7  and  O_8 
REMARK    3  A    between atoms: O_8  and  C_9 
REMARK    4  A    between atoms: C_9  and  C_10 
REMARK    5  A    between atoms: C_10  and  O_11 
REMARK    6  A    between atoms: C_10  and  C_12 
REMARK    7  A    between atoms: C_12  and  N_13 
ROOT
HETATM    1  C   UNL     1     -40.227 -49.350  11.559  1.00  0.00     0.160 C 
ENDROOT
BRANCH   1   2
HETATM    2  C   UNL     1     -39.763 -50.482  12.494  1.00  0.00     0.209 C 
BRANCH   2   3
HETATM    3  O   UNL     1     -40.063 -51.726  11.848  1.00  0.00    -0.349 OA
BRANCH   3   4
HETATM    4  C   UNL     1     -41.057 -52.495  12.382  1.00  0.00     0.068 A 
HETATM    5  C   UNL     1     -40.615 -53.463  13.288  1.00  0.00     0.037 A 
HETATM    6  C   UNL     1     -41.521 -54.298  13.948  1.00  0.00     0.018 A 
HETATM    7  C   UNL     1     -42.893 -54.157  13.720  1.00  0.00     0.009 A 
HETATM    8  C   UNL     1     -43.337 -53.181  12.818  1.00  0.00     0.018 A 
HETATM    9  C   UNL     1     -42.423 -52.353  12.149  1.00  0.00     0.037 A 
BRANCH   7  10
HETATM   10  C   UNL     1     -43.903 -55.007  14.420  1.00  0.00     0.155 C 
HETATM   11  C   UNL     1     -45.304 -55.077  13.868  1.00  0.00     0.096 C 
HETATM   12  O   UNL     1     -43.584 -55.629  15.430  1.00  0.00    -0.293 OA
ENDBRANCH   7  10
ENDBRANCH   3   4
ENDBRANCH   2   3
ENDBRANCH   1   2
BRANCH   1  13
HETATM   13  O   UNL     1     -40.570 -49.938  10.296  1.00  0.00    -0.392 OA
HETATM   14  H   UNL     1     -41.313 -49.419   9.930  1.00  0.00     0.210 HD
ENDBRANCH   1  13
BRANCH   1  15
HETATM   15  C   UNL     1     -41.431 -48.587  12.132  1.00  0.00     0.164 C 
BRANCH  15  16
HETATM   16  N   UNL     1     -41.764 -47.385  11.378  1.00  0.00    -0.332 N 
HETATM   17  C   UNL     1     -40.973 -46.264  11.212  1.00  0.00     0.080 A 
HETATM   18  C   UNL     1     -39.651 -46.033  11.848  1.00  0.00     0.089 C 
HETATM   19  N   UNL     1     -41.540 -45.410  10.384  1.00  0.00    -0.344 N 
HETATM   20  C   UNL     1     -42.727 -45.976  10.011  1.00  0.00     0.060 A 
ATOM     21  HN  UNL     1     -41.168 -44.510  10.083  1.00  0.00     0.167 HD
HETATM   22  C   UNL     1     -43.709 -45.479   9.145  1.00  0.00     0.032 A 
HETATM   23  C   UNL     1     -42.906 -47.213  10.622  1.00  0.00     0.062 A 
HETATM   24  C   UNL     1     -44.856 -46.246   8.912  1.00  0.00     0.002 A 
HETATM   25  C   UNL     1     -45.018 -47.484   9.534  1.00  0.00     0.002 A 
HETATM   26  C   UNL     1     -44.047 -47.997  10.403  1.00  0.00     0.032 A 
ENDBRANCH  15  16
ENDBRANCH   1  15
TORSDOF 7
ENDMDL
MODEL 4
REMARK VINA RESULT:      -5.3      3.097      5.419
REMARK  7 active torsions:
REMARK  status: ('A' for Active; 'I' for Inactive)
REMARK    1  A    between atoms: C_2  and  C_4 
REMARK    2  A    between atoms: C_7  and  O_8 
REMARK    3  A    between atoms: O_8  and  C_9 
REMARK    4  A    between atoms: C_9  and  C_10 
REMARK    5  A    between atoms: C_10  and  O_11 
REMARK    6  A    between atoms: C_10  and  C_12 
REMARK    7  A    between atoms: C_12  and  N_13 
ROOT
HETATM    1  C   UNL     1     -39.256 -51.771  14.840  1.00  0.00     0.160 C 
ENDROOT
BRANCH   1   2
HETATM    2  C   UNL     1     -38.988 -53.024  13.985  1.00  0.00     0.209 C 
BRANCH   2   3
HETATM    3  O   UNL     1     -39.973 -53.054  12.944  1.00  0.00    -0.349 OA
BRANCH   3   4
HETATM    4  C   UNL     1     -41.242 -53.424  13.282  1.00  0.00     0.068 A 
HETATM    5  C   UNL     1     -42.245 -52.798  12.537  1.00  0.00     0.037 A 
HETATM    6  C   UNL     1     -43.593 -53.108  12.742  1.00  0.00     0.018 A 
HETATM    7  C   UNL     1     -43.952 -54.070  13.689  1.00  0.00     0.009 A 
HETATM    8  C   UNL     1     -42.945 -54.704  14.431  1.00  0.00     0.018 A 
HETATM    9  C   UNL     1     -41.595 -54.382  14.231  1.00  0.00     0.037 A 
BRANCH   7  10
HETATM   10  C   UNL     1     -45.376 -54.455  13.927  1.00  0.00     0.155 C 
HETATM   11  C   UNL     1     -46.381 -53.375  14.233  1.00  0.00     0.096 C 
HETATM   12  O   UNL     1     -45.706 -55.637  13.875  1.00  0.00    -0.293 OA
ENDBRANCH   7  10
ENDBRANCH   3   4
ENDBRANCH   2   3
ENDBRANCH   1   2
BRANCH   1  13
HETATM   13  O   UNL     1     -38.758 -52.029  16.161  1.00  0.00    -0.392 OA
HETATM   14  H   UNL     1     -39.420 -51.682  16.790  1.00  0.00     0.210 HD
ENDBRANCH   1  13
BRANCH   1  15
HETATM   15  C   UNL     1     -38.582 -50.520  14.256  1.00  0.00     0.164 C 
BRANCH  15  16
HETATM   16  N   UNL     1     -39.272 -49.986  13.088  1.00  0.00    -0.332 N 
HETATM   17  C   UNL     1     -38.774 -49.888  11.803  1.00  0.00     0.080 A 
HETATM   18  C   UNL     1     -37.393 -50.232  11.378  1.00  0.00     0.089 C 
HETATM   19  N   UNL     1     -39.702 -49.456  10.973  1.00  0.00    -0.344 N 
HETATM   20  C   UNL     1     -40.823 -49.259  11.729  1.00  0.00     0.060 A 
ATOM     21  HN  UNL     1     -39.604 -49.301   9.970  1.00  0.00     0.167 HD
HETATM   22  C   UNL     1     -42.089 -48.806  11.333  1.00  0.00     0.032 A 
HETATM   23  C   UNL     1     -40.589 -49.573  13.065  1.00  0.00     0.062 A 
HETATM   24  C   UNL     1     -43.094 -48.681  12.298  1.00  0.00     0.002 A 
HETATM   25  C   UNL     1     -42.840 -49.001  13.631  1.00  0.00     0.002 A 
HETATM   26  C   UNL     1     -41.582 -49.455  14.046  1.00  0.00     0.032 A 
ENDBRANCH  15  16
ENDBRANCH   1  15
TORSDOF 7
ENDMDL
MODEL 5
REMARK VINA RESULT:      -5.3      2.809      5.190
REMARK  7 active torsions:
REMARK  status: ('A' for Active; 'I' for Inactive)
REMARK    1  A    between atoms: C_2  and  C_4 
REMARK    2  A    between atoms: C_7  and  O_8 
REMARK    3  A    between atoms: O_8  and  C_9 
REMARK    4  A    between atoms: C_9  and  C_10 
REMARK    5  A    between atoms: C_10  and  O_11 
REMARK    6  A    between atoms: C_10  and  C_12 
REMARK    7  A    between atoms: C_12  and  N_13 
ROOT
HETATM    1  C   UNL     1     -39.205 -49.657  13.639  1.00  0.00     0.160 C 
ENDROOT
BRANCH   1   2
HETATM    2  C   UNL     1     -39.178 -50.611  12.429  1.00  0.00     0.209 C 
BRANCH   2   3
HETATM    3  O   UNL     1     -38.973 -51.938  12.931  1.00  0.00    -0.349 OA
BRANCH   3   4
HETATM    4  C   UNL     1     -40.078 -52.678  13.239  1.00  0.00     0.068 A 
HETATM    5  C   UNL     1     -40.076 -53.211  14.530  1.00  0.00     0.037 A 
HETATM    6  C   UNL     1     -41.159 -53.957  15.003  1.00  0.00     0.018 A 
HETATM    7  C   UNL     1     -42.275 -54.161  14.186  1.00  0.00     0.009 A 
HETATM    8  C   UNL     1     -42.281 -53.619  12.894  1.00  0.00     0.018 A 
HETATM    9  C   UNL     1     -41.186 -52.882  12.419  1.00  0.00     0.037 A 
BRANCH   7  10
HETATM   10  C   UNL     1     -43.469 -54.928  14.653  1.00  0.00     0.155 C 
HETATM   11  C   UNL     1     -44.791 -54.709  13.963  1.00  0.00     0.096 C 
HETATM   12  O   UNL     1     -43.361 -55.718  15.588  1.00  0.00    -0.293 OA
ENDBRANCH   7  10
ENDBRANCH   3   4
ENDBRANCH   2   3
ENDBRANCH   1   2
BRANCH   1  13
HETATM   13  O   UNL     1     -37.894 -49.090  13.778  1.00  0.00    -0.392 OA
HETATM   14  H   UNL     1     -37.254 -49.824  13.706  1.00  0.00     0.210 HD
ENDBRANCH   1  13
BRANCH   1  15
HETATM   15  C   UNL     1     -40.248 -48.542  13.470  1.00  0.00     0.164 C 
BRANCH  15  16
HETATM   16  N   UNL     1     -41.594 -49.045  13.222  1.00  0.00    -0.332 N 
HETATM   17  C   UNL     1     -42.301 -48.976  12.036  1.00  0.00     0.080 A 
HETATM   18  C   UNL     1     -41.851 -48.291  10.797  1.00  0.00     0.089 C 
HETATM   19  N   UNL     1     -43.444 -49.623  12.134  1.00  0.00    -0.344 N 
HETATM   20  C   UNL     1     -43.492 -50.115  13.409  1.00  0.00     0.060 A 
ATOM     21  HN  UNL     1     -44.150 -49.735  11.407  1.00  0.00     0.167 HD
HETATM   22  C   UNL     1     -44.494 -50.876  14.026  1.00  0.00     0.032 A 
HETATM   23  C   UNL     1     -42.351 -49.765  14.124  1.00  0.00     0.062 A 
HETATM   24  C   UNL     1     -44.320 -51.269  15.357  1.00  0.00     0.002 A 
HETATM   25  C   UNL     1     -43.170 -50.909  16.058  1.00  0.00     0.002 A 
HETATM   26  C   UNL     1     -42.157 -50.148  15.458  1.00  0.00     0.032 A 
ENDBRANCH  15  16
ENDBRANCH   1  15
TORSDOF 7
ENDMDL
MODEL 6
REMARK VINA RESULT:      -5.3      2.005      3.284
REMARK  7 active torsions:
REMARK  status: ('A' for Active; 'I' for Inactive)
REMARK    1  A    between atoms: C_2  and  C_4 
REMARK    2  A    between atoms: C_7  and  O_8 
REMARK    3  A    between atoms: O_8  and  C_9 
REMARK    4  A    between atoms: C_9  and  C_10 
REMARK    5  A    between atoms: C_10  and  O_11 
REMARK    6  A    between atoms: C_10  and  C_12 
REMARK    7  A    between atoms: C_12  and  N_13 
ROOT
HETATM    1  C   UNL     1     -40.066 -53.803  13.744  1.00  0.00     0.160 C 
ENDROOT
BRANCH   1   2
HETATM    2  C   UNL     1     -40.727 -54.479  14.960  1.00  0.00     0.209 C 
BRANCH   2   3
HETATM    3  O   UNL     1     -40.968 -53.461  15.940  1.00  0.00    -0.349 OA
BRANCH   3   4
HETATM    4  C   UNL     1     -42.256 -53.267  16.348  1.00  0.00     0.068 A 
HETATM    5  C   UNL     1     -42.679 -51.935  16.315  1.00  0.00     0.037 A 
HETATM    6  C   UNL     1     -43.986 -51.586  16.666  1.00  0.00     0.018 A 
HETATM    7  C   UNL     1     -44.898 -52.579  17.037  1.00  0.00     0.009 A 
HETATM    8  C   UNL     1     -44.477 -53.915  17.061  1.00  0.00     0.018 A 
HETATM    9  C   UNL     1     -43.160 -54.260  16.721  1.00  0.00     0.037 A 
BRANCH   7  10
HETATM   10  C   UNL     1     -46.313 -52.261  17.394  1.00  0.00     0.155 C 
HETATM   11  C   UNL     1     -47.074 -51.271  16.549  1.00  0.00     0.096 C 
HETATM   12  O   UNL     1     -46.835 -52.802  18.366  1.00  0.00    -0.293 OA
ENDBRANCH   7  10
ENDBRANCH   3   4
ENDBRANCH   2   3
ENDBRANCH   1   2
BRANCH   1  13
HETATM   13  O   UNL     1     -38.902 -54.566  13.398  1.00  0.00    -0.392 OA
HETATM   14  H   UNL     1     -38.347 -54.000  12.827  1.00  0.00     0.210 HD
ENDBRANCH   1  13
BRANCH   1  15
HETATM   15  C   UNL     1     -41.021 -53.723  12.542  1.00  0.00     0.164 C 
BRANCH  15  16
HETATM   16  N   UNL     1     -42.064 -52.717  12.701  1.00  0.00    -0.332 N 
HETATM   17  C   UNL     1     -41.937 -51.353  12.516  1.00  0.00     0.080 A 
HETATM   18  C   UNL     1     -40.676 -50.635  12.198  1.00  0.00     0.089 C 
HETATM   19  N   UNL     1     -43.103 -50.753  12.640  1.00  0.00    -0.344 N 
HETATM   20  C   UNL     1     -44.007 -51.738  12.923  1.00  0.00     0.060 A 
ATOM     21  HN  UNL     1     -43.292 -49.756  12.545  1.00  0.00     0.167 HD
HETATM   22  C   UNL     1     -45.386 -51.635  13.148  1.00  0.00     0.032 A 
HETATM   23  C   UNL     1     -43.390 -52.985  12.978  1.00  0.00     0.062 A 
HETATM   24  C   UNL     1     -46.115 -52.797  13.423  1.00  0.00     0.002 A 
HETATM   25  C   UNL     1     -45.479 -54.037  13.474  1.00  0.00     0.002 A 
HETATM   26  C   UNL     1     -44.101 -54.160  13.252  1.00  0.00     0.032 A 
ENDBRANCH  15  16
ENDBRANCH   1  15
TORSDOF 7
ENDMDL
MODEL 7
REMARK VINA RESULT:      -5.3      3.265      5.363
REMARK  7 active torsions:
REMARK  status: ('A' for Active; 'I' for Inactive)
REMARK    1  A    between atoms: C_2  and  C_4 
REMARK    2  A    between atoms: C_7  and  O_8 
REMARK    3  A    between atoms: O_8  and  C_9 
REMARK    4  A    between atoms: C_9  and  C_10 
REMARK    5  A    between atoms: C_10  and  O_11 
REMARK    6  A    between atoms: C_10  and  C_12 
REMARK    7  A    between atoms: C_12  and  N_13 
ROOT
HETATM    1  C   UNL     1     -41.475 -52.603  12.265  1.00  0.00     0.160 C 
ENDROOT
BRANCH   1   2
HETATM    2  C   UNL     1     -40.662 -51.478  12.934  1.00  0.00     0.209 C 
BRANCH   2   3
HETATM    3  O   UNL     1     -39.939 -50.795  11.901  1.00  0.00    -0.349 OA
BRANCH   3   4
HETATM    4  C   UNL     1     -40.308 -49.513  11.610  1.00  0.00     0.068 A 
HETATM    5  C   UNL     1     -39.417 -48.538  12.062  1.00  0.00     0.037 A 
HETATM    6  C   UNL     1     -39.640 -47.183  11.803  1.00  0.00     0.018 A 
HETATM    7  C   UNL     1     -40.758 -46.788  11.063  1.00  0.00     0.009 A 
HETATM    8  C   UNL     1     -41.648 -47.768  10.601  1.00  0.00     0.018 A 
HETATM    9  C   UNL     1     -41.427 -49.126  10.874  1.00  0.00     0.037 A 
BRANCH   7  10
HETATM   10  C   UNL     1     -41.028 -45.356  10.736  1.00  0.00     0.155 C 
HETATM   11  C   UNL     1     -42.169 -44.653  11.426  1.00  0.00     0.096 C 
HETATM   12  O   UNL     1     -40.324 -44.774   9.914  1.00  0.00    -0.293 OA
ENDBRANCH   7  10
ENDBRANCH   3   4
ENDBRANCH   2   3
ENDBRANCH   1   2
BRANCH   1  13
HETATM   13  O   UNL     1     -40.608 -53.282  11.345  1.00  0.00    -0.392 OA
HETATM   14  H   UNL     1     -40.554 -54.213  11.636  1.00  0.00     0.210 HD
ENDBRANCH   1  13
BRANCH   1  15
HETATM   15  C   UNL     1     -42.036 -53.596  13.294  1.00  0.00     0.164 C 
BRANCH  15  16
HETATM   16  N   UNL     1     -42.936 -52.978  14.260  1.00  0.00    -0.332 N 
HETATM   17  C   UNL     1     -42.644 -52.642  15.569  1.00  0.00     0.080 A 
HETATM   18  C   UNL     1     -41.369 -52.929  16.275  1.00  0.00     0.089 C 
HETATM   19  N   UNL     1     -43.654 -52.004  16.124  1.00  0.00    -0.344 N 
HETATM   20  C   UNL     1     -44.627 -51.930  15.168  1.00  0.00     0.060 A 
ATOM     21  HN  UNL     1     -43.700 -51.639  17.075  1.00  0.00     0.167 HD
HETATM   22  C   UNL     1     -45.901 -51.352  15.245  1.00  0.00     0.032 A 
HETATM   23  C   UNL     1     -44.215 -52.539  13.986  1.00  0.00     0.062 A 
HETATM   24  C   UNL     1     -46.734 -51.399  14.122  1.00  0.00     0.002 A 
HETATM   25  C   UNL     1     -46.303 -52.014  12.946  1.00  0.00     0.002 A 
HETATM   26  C   UNL     1     -45.034 -52.598  12.850  1.00  0.00     0.032 A 
ENDBRANCH  15  16
ENDBRANCH   1  15
TORSDOF 7
ENDMDL
MODEL 8
REMARK VINA RESULT:      -5.2      2.616      5.774
REMARK  7 active torsions:
REMARK  status: ('A' for Active; 'I' for Inactive)
REMARK    1  A    between atoms: C_2  and  C_4 
REMARK    2  A    between atoms: C_7  and  O_8 
REMARK    3  A    between atoms: O_8  and  C_9 
REMARK    4  A    between atoms: C_9  and  C_10 
REMARK    5  A    between atoms: C_10  and  O_11 
REMARK    6  A    between atoms: C_10  and  C_12 
REMARK    7  A    between atoms: C_12  and  N_13 
ROOT
HETATM    1  C   UNL     1     -42.409 -55.366  15.804  1.00  0.00     0.160 C 
ENDROOT
BRANCH   1   2
HETATM    2  C   UNL     1     -40.996 -54.784  15.996  1.00  0.00     0.209 C 
BRANCH   2   3
HETATM    3  O   UNL     1     -40.324 -54.855  14.732  1.00  0.00    -0.349 OA
BRANCH   3   4
HETATM    4  C   UNL     1     -40.114 -53.686  14.059  1.00  0.00     0.068 A 
HETATM    5  C   UNL     1     -40.879 -53.540  12.899  1.00  0.00     0.037 A 
HETATM    6  C   UNL     1     -40.802 -52.378  12.128  1.00  0.00     0.018 A 
HETATM    7  C   UNL     1     -39.965 -51.330  12.524  1.00  0.00     0.009 A 
HETATM    8  C   UNL     1     -39.204 -51.473  13.692  1.00  0.00     0.018 A 
HETATM    9  C   UNL     1     -39.274 -52.647  14.457  1.00  0.00     0.037 A 
BRANCH   7  10
HETATM   10  C   UNL     1     -39.867 -50.057  11.749  1.00  0.00     0.155 C 
HETATM   11  C   UNL     1     -38.579 -49.275  11.792  1.00  0.00     0.096 C 
HETATM   12  O   UNL     1     -40.829 -49.665  11.094  1.00  0.00    -0.293 OA
ENDBRANCH   7  10
ENDBRANCH   3   4
ENDBRANCH   2   3
ENDBRANCH   1   2
BRANCH   1  13
HETATM   13  O   UNL     1     -42.531 -56.511  16.659  1.00  0.00    -0.392 OA
HETATM   14  H   UNL     1     -42.457 -56.192  17.579  1.00  0.00     0.210 HD
ENDBRANCH   1  13
BRANCH   1  15
HETATM   15  C   UNL     1     -43.504 -54.339  16.136  1.00  0.00     0.164 C 
BRANCH  15  16
HETATM   16  N   UNL     1     -43.852 -53.484  15.008  1.00  0.00    -0.332 N 
HETATM   17  C   UNL     1     -44.717 -53.786  13.974  1.00  0.00     0.080 A 
HETATM   18  C   UNL     1     -45.399 -55.089  13.765  1.00  0.00     0.089 C 
HETATM   19  N   UNL     1     -44.883 -52.746  13.183  1.00  0.00    -0.344 N 
HETATM   20  C   UNL     1     -44.105 -51.749  13.702  1.00  0.00     0.060 A 
ATOM     21  HN  UNL     1     -45.472 -52.694  12.352  1.00  0.00     0.167 HD
HETATM   22  C   UNL     1     -43.922 -50.439  13.240  1.00  0.00     0.032 A 
HETATM   23  C   UNL     1     -43.436 -52.178  14.844  1.00  0.00     0.062 A 
HETATM   24  C   UNL     1     -43.065 -49.587  13.945  1.00  0.00     0.002 A 
HETATM   25  C   UNL     1     -42.403 -50.036  15.087  1.00  0.00     0.002 A 
HETATM   26  C   UNL     1     -42.573 -51.342  15.565  1.00  0.00     0.032 A 
ENDBRANCH  15  16
ENDBRANCH   1  15
TORSDOF 7
ENDMDL
MODEL 9
REMARK VINA RESULT:      -5.2      3.482      5.837
REMARK  7 active torsions:
REMARK  status: ('A' for Active; 'I' for Inactive)
REMARK    1  A    between atoms: C_2  and  C_4 
REMARK    2  A    between atoms: C_7  and  O_8 
REMARK    3  A    between atoms: O_8  and  C_9 
REMARK    4  A    between atoms: C_9  and  C_10 
REMARK    5  A    between atoms: C_10  and  O_11 
REMARK    6  A    between atoms: C_10  and  C_12 
REMARK    7  A    between atoms: C_12  and  N_13 
ROOT
HETATM    1  C   UNL     1     -41.470 -52.711  12.145  1.00  0.00     0.160 C 
ENDROOT
BRANCH   1   2
HETATM    2  C   UNL     1     -40.886 -51.352  12.576  1.00  0.00     0.209 C 
BRANCH   2   3
HETATM    3  O   UNL     1     -39.460 -51.436  12.450  1.00  0.00    -0.349 OA
BRANCH   3   4
HETATM    4  C   UNL     1     -38.703 -50.686  13.303  1.00  0.00     0.068 A 
HETATM    5  C   UNL     1     -38.536 -51.246  14.572  1.00  0.00     0.037 A 
HETATM    6  C   UNL     1     -37.752 -50.612  15.540  1.00  0.00     0.018 A 
HETATM    7  C   UNL     1     -37.103 -49.412  15.237  1.00  0.00     0.009 A 
HETATM    8  C   UNL     1     -37.263 -48.855  13.961  1.00  0.00     0.018 A 
HETATM    9  C   UNL     1     -38.062 -49.487  12.996  1.00  0.00     0.037 A 
BRANCH   7  10
HETATM   10  C   UNL     1     -36.232 -48.710  16.228  1.00  0.00     0.155 C 
HETATM   11  C   UNL     1     -36.856 -47.708  17.165  1.00  0.00     0.096 C 
HETATM   12  O   UNL     1     -35.028 -48.952  16.263  1.00  0.00    -0.293 OA
ENDBRANCH   7  10
ENDBRANCH   3   4
ENDBRANCH   2   3
ENDBRANCH   1   2
BRANCH   1  13
HETATM   13  O   UNL     1     -40.454 -53.412  11.414  1.00  0.00    -0.392 OA
HETATM   14  H   UNL     1     -40.196 -52.843  10.663  1.00  0.00     0.210 HD
ENDBRANCH   1  13
BRANCH   1  15
HETATM   15  C   UNL     1     -41.928 -53.548  13.350  1.00  0.00     0.164 C 
BRANCH  15  16
HETATM   16  N   UNL     1     -42.934 -52.880  14.166  1.00  0.00    -0.332 N 
HETATM   17  C   UNL     1     -42.765 -52.373  15.441  1.00  0.00     0.080 A 
HETATM   18  C   UNL     1     -41.535 -52.489  16.265  1.00  0.00     0.089 C 
HETATM   19  N   UNL     1     -43.850 -51.742  15.840  1.00  0.00    -0.344 N 
HETATM   20  C   UNL     1     -44.748 -51.847  14.815  1.00  0.00     0.060 A 
ATOM     21  HN  UNL     1     -43.991 -51.270  16.734  1.00  0.00     0.167 HD
HETATM   22  C   UNL     1     -46.055 -51.348  14.730  1.00  0.00     0.032 A 
HETATM   23  C   UNL     1     -44.211 -52.562  13.750  1.00  0.00     0.062 A 
HETATM   24  C   UNL     1     -46.793 -51.584  13.565  1.00  0.00     0.002 A 
HETATM   25  C   UNL     1     -46.238 -52.303  12.508  1.00  0.00     0.002 A 
HETATM   26  C   UNL     1     -44.933 -52.810  12.575  1.00  0.00     0.032 A 
ENDBRANCH  15  16
ENDBRANCH   1  15
TORSDOF 7
ENDMDL
