MODEL 1
REMARK VINA RESULT:      -5.2      0.000      0.000
REMARK  1 active torsions:
REMARK  status: ('A' for Active; 'I' for Inactive)
REMARK    1  A    between atoms: N_1  and  C_7 
ROOT
HETATM    1  N   UNL     1     -43.580 -53.332  13.402  1.00  0.00    -0.279 N 
HETATM    2  C   UNL     1     -43.102 -54.359  14.207  1.00  0.00     0.331 A 
HETATM    3  N   UNL     1     -41.759 -54.625  14.104  1.00  0.00    -0.273 N 
HETATM    4  C   UNL     1     -42.729 -52.575  12.614  1.00  0.00     0.146 A 
HETATM    5  C   UNL     1     -41.420 -52.818  12.564  1.00  0.00     0.199 A 
HETATM    6  C   UNL     1     -40.847 -53.917  13.365  1.00  0.00     0.289 A 
HETATM    7  O   UNL     1     -43.800 -55.010  14.983  1.00  0.00    -0.246 OA
HETATM    8  O   UNL     1     -39.648 -54.174  13.383  1.00  0.00    -0.265 OA
HETATM    9  F   UNL     1     -40.577 -52.091  11.810  1.00  0.00    -0.199 F 
HETATM   10  H   UNL     1     -41.400 -55.374  14.675  1.00  0.00     0.173 HD
ENDROOT
BRANCH   1  11
HETATM   11  C   UNL     1     -45.004 -53.049  13.462  1.00  0.00     0.232 C 
HETATM   12  O   UNL     1     -45.579 -52.984  12.146  1.00  0.00    -0.366 OA
HETATM   13  C   UNL     1     -46.670 -52.050  12.188  1.00  0.00     0.170 C 
HETATM   14  C   UNL     1     -46.750 -51.503  13.602  1.00  0.00     0.031 C 
HETATM   15  C   UNL     1     -45.347 -51.719  14.116  1.00  0.00     0.056 C 
ENDBRANCH   1  11
TORSDOF 1
ENDMDL
MODEL 2
REMARK VINA RESULT:      -5.0      2.366      5.151
REMARK  1 active torsions:
REMARK  status: ('A' for Active; 'I' for Inactive)
REMARK    1  A    between atoms: N_1  and  C_7 
ROOT
HETATM    1  N   UNL     1     -42.321 -53.336  13.636  1.00  0.00    -0.279 N 
HETATM    2  C   UNL     1     -42.637 -52.156  12.972  1.00  0.00     0.331 A 
HETATM    3  N   UNL     1     -43.884 -52.105  12.403  1.00  0.00    -0.273 N 
HETATM    4  C   UNL     1     -43.248 -54.354  13.780  1.00  0.00     0.146 A 
HETATM    5  C   UNL     1     -44.472 -54.265  13.262  1.00  0.00     0.199 A 
HETATM    6  C   UNL     1     -44.865 -53.057  12.512  1.00  0.00     0.289 A 
HETATM    7  O   UNL     1     -41.880 -51.191  12.882  1.00  0.00    -0.246 OA
HETATM    8  O   UNL     1     -45.984 -52.903  12.034  1.00  0.00    -0.265 OA
HETATM    9  F   UNL     1     -45.388 -55.241  13.397  1.00  0.00    -0.199 F 
HETATM   10  H   UNL     1     -44.123 -51.258  11.910  1.00  0.00     0.173 HD
ENDROOT
BRANCH   1  11
HETATM   11  C   UNL     1     -40.994 -53.435  14.219  1.00  0.00     0.232 C 
HETATM   12  O   UNL     1     -40.042 -53.939  13.267  1.00  0.00    -0.366 OA
HETATM   13  C   UNL     1     -39.044 -54.677  13.991  1.00  0.00     0.170 C 
HETATM   14  C   UNL     1     -39.420 -54.635  15.460  1.00  0.00     0.031 C 
HETATM   15  C   UNL     1     -40.906 -54.377  15.410  1.00  0.00     0.056 C 
ENDBRANCH   1  11
TORSDOF 1
ENDMDL
MODEL 3
REMARK VINA RESULT:      -4.7      2.723      3.673
REMARK  1 active torsions:
REMARK  status: ('A' for Active; 'I' for Inactive)
REMARK    1  A    between atoms: N_1  and  C_7 
ROOT
HETATM    1  N   UNL     1     -42.522 -52.320  12.601  1.00  0.00    -0.279 N 
HETATM    2  C   UNL     1     -41.287 -52.312  11.963  1.00  0.00     0.331 A 
HETATM    3  N   UNL     1     -40.827 -51.081  11.567  1.00  0.00    -0.273 N 
HETATM    4  C   UNL     1     -43.196 -51.145  12.889  1.00  0.00     0.146 A 
HETATM    5  C   UNL     1     -42.708 -49.956  12.538  1.00  0.00     0.199 A 
HETATM    6  C   UNL     1     -41.419 -49.872  11.825  1.00  0.00     0.289 A 
HETATM    7  O   UNL     1     -40.612 -53.318  11.753  1.00  0.00    -0.246 OA
HETATM    8  O   UNL     1     -40.905 -48.808  11.499  1.00  0.00    -0.265 OA
HETATM    9  F   UNL     1     -43.344 -48.803  12.814  1.00  0.00    -0.199 F 
HETATM   10  H   UNL     1     -39.937 -51.061  11.093  1.00  0.00     0.173 HD
ENDROOT
BRANCH   1  11
HETATM   11  C   UNL     1     -43.054 -53.612  13.002  1.00  0.00     0.232 C 
HETATM   12  O   UNL     1     -44.372 -53.823  12.467  1.00  0.00    -0.366 OA
HETATM   13  C   UNL     1     -45.097 -54.645  13.396  1.00  0.00     0.170 C 
HETATM   14  C   UNL     1     -44.176 -54.934  14.567  1.00  0.00     0.031 C 
HETATM   15  C   UNL     1     -43.200 -53.785  14.506  1.00  0.00     0.056 C 
ENDBRANCH   1  11
TORSDOF 1
ENDMDL
MODEL 4
REMARK VINA RESULT:      -4.7      2.657      4.139
REMARK  1 active torsions:
REMARK  status: ('A' for Active; 'I' for Inactive)
REMARK    1  A    between atoms: N_1  and  C_7 
ROOT
HETATM    1  N   UNL     1     -44.362 -52.065  13.455  1.00  0.00    -0.279 N 
HETATM    2  C   UNL     1     -45.702 -52.307  13.176  1.00  0.00     0.331 A 
HETATM    3  N   UNL     1     -46.111 -53.612  13.291  1.00  0.00    -0.273 N 
HETATM    4  C   UNL     1     -43.523 -53.072  13.902  1.00  0.00     0.146 A 
HETATM    5  C   UNL     1     -43.952 -54.324  14.053  1.00  0.00     0.199 A 
HETATM    6  C   UNL     1     -45.354 -54.662  13.741  1.00  0.00     0.289 A 
HETATM    7  O   UNL     1     -46.508 -51.436  12.852  1.00  0.00    -0.246 OA
HETATM    8  O   UNL     1     -45.816 -55.789  13.885  1.00  0.00    -0.265 OA
HETATM    9  F   UNL     1     -43.155 -55.315  14.492  1.00  0.00    -0.199 F 
HETATM   10  H   UNL     1     -47.079 -53.804  13.082  1.00  0.00     0.173 HD
ENDROOT
BRANCH   1  11
HETATM   11  C   UNL     1     -43.890 -50.698  13.309  1.00  0.00     0.232 C 
HETATM   12  O   UNL     1     -42.610 -50.656  12.653  1.00  0.00    -0.366 OA
HETATM   13  C   UNL     1     -41.895 -49.518  13.158  1.00  0.00     0.170 C 
HETATM   14  C   UNL     1     -42.779 -48.843  14.191  1.00  0.00     0.031 C 
HETATM   15  C   UNL     1     -43.689 -49.965  14.626  1.00  0.00     0.056 C 
ENDBRANCH   1  11
TORSDOF 1
ENDMDL
MODEL 5
REMARK VINA RESULT:      -4.6      6.152      7.732
REMARK  1 active torsions:
REMARK  status: ('A' for Active; 'I' for Inactive)
REMARK    1  A    between atoms: N_1  and  C_7 
ROOT
HETATM    1  N   UNL     1     -41.246 -47.760  10.991  1.00  0.00    -0.279 N 
HETATM    2  C   UNL     1     -40.779 -46.501  10.633  1.00  0.00     0.331 A 
HETATM    3  N   UNL     1     -41.631 -45.740   9.872  1.00  0.00    -0.273 N 
HETATM    4  C   UNL     1     -42.526 -48.175  10.666  1.00  0.00     0.146 A 
HETATM    5  C   UNL     1     -43.357 -47.402   9.968  1.00  0.00     0.199 A 
HETATM    6  C   UNL     1     -42.916 -46.067   9.522  1.00  0.00     0.289 A 
HETATM    7  O   UNL     1     -39.682 -46.053  10.961  1.00  0.00    -0.246 OA
HETATM    8  O   UNL     1     -43.641 -45.298   8.900  1.00  0.00    -0.265 OA
HETATM    9  F   UNL     1     -44.606 -47.785   9.649  1.00  0.00    -0.199 F 
HETATM   10  H   UNL     1     -41.301 -44.828   9.596  1.00  0.00     0.173 HD
ENDROOT
BRANCH   1  11
HETATM   11  C   UNL     1     -40.353 -48.603  11.768  1.00  0.00     0.232 C 
HETATM   12  O   UNL     1     -40.203 -49.900  11.163  1.00  0.00    -0.366 OA
HETATM   13  C   UNL     1     -39.980 -50.852  12.216  1.00  0.00     0.170 C 
HETATM   14  C   UNL     1     -40.014 -50.096  13.532  1.00  0.00     0.031 C 
HETATM   15  C   UNL     1     -40.830 -48.875  13.186  1.00  0.00     0.056 C 
ENDBRANCH   1  11
TORSDOF 1
ENDMDL
MODEL 6
REMARK VINA RESULT:      -4.5      1.839      2.141
REMARK  1 active torsions:
REMARK  status: ('A' for Active; 'I' for Inactive)
REMARK    1  A    between atoms: N_1  and  C_7 
ROOT
HETATM    1  N   UNL     1     -43.967 -52.900  14.007  1.00  0.00    -0.279 N 
HETATM    2  C   UNL     1     -43.812 -53.671  12.860  1.00  0.00     0.331 A 
HETATM    3  N   UNL     1     -42.567 -53.643  12.285  1.00  0.00    -0.273 N 
HETATM    4  C   UNL     1     -42.901 -52.220  14.570  1.00  0.00     0.146 A 
HETATM    5  C   UNL     1     -41.687 -52.245  14.023  1.00  0.00     0.199 A 
HETATM    6  C   UNL     1     -41.457 -53.012  12.783  1.00  0.00     0.289 A 
HETATM    7  O   UNL     1     -44.705 -54.355  12.364  1.00  0.00    -0.246 OA
HETATM    8  O   UNL     1     -40.358 -53.096  12.245  1.00  0.00    -0.265 OA
HETATM    9  F   UNL     1     -40.637 -51.596  14.558  1.00  0.00    -0.199 F 
HETATM   10  H   UNL     1     -42.443 -54.190  11.446  1.00  0.00     0.173 HD
ENDROOT
BRANCH   1  11
HETATM   11  C   UNL     1     -45.284 -52.881  14.621  1.00  0.00     0.232 C 
HETATM   12  O   UNL     1     -46.098 -51.827  14.077  1.00  0.00    -0.366 OA
HETATM   13  C   UNL     1     -46.991 -51.383  15.111  1.00  0.00     0.170 C 
HETATM   14  C   UNL     1     -46.691 -52.198  16.356  1.00  0.00     0.031 C 
HETATM   15  C   UNL     1     -45.267 -52.639  16.123  1.00  0.00     0.056 C 
ENDBRANCH   1  11
TORSDOF 1
ENDMDL
MODEL 7
REMARK VINA RESULT:      -4.5      9.051      9.860
REMARK  1 active torsions:
REMARK  status: ('A' for Active; 'I' for Inactive)
REMARK    1  A    between atoms: N_1  and  C_7 
ROOT
HETATM    1  N   UNL     1     -40.863 -44.425  11.267  1.00  0.00    -0.279 N 
HETATM    2  C   UNL     1     -40.191 -45.204  10.332  1.00  0.00     0.331 A 
HETATM    3  N   UNL     1     -40.577 -46.519  10.262  1.00  0.00    -0.273 N 
HETATM    4  C   UNL     1     -41.911 -44.935  12.015  1.00  0.00     0.146 A 
HETATM    5  C   UNL     1     -42.302 -46.203  11.897  1.00  0.00     0.199 A 
HETATM    6  C   UNL     1     -41.611 -47.099  10.951  1.00  0.00     0.289 A 
HETATM    7  O   UNL     1     -39.308 -44.781   9.589  1.00  0.00    -0.246 OA
HETATM    8  O   UNL     1     -41.940 -48.268  10.777  1.00  0.00    -0.265 OA
HETATM    9  F   UNL     1     -43.321 -46.715  12.610  1.00  0.00    -0.199 F 
HETATM   10  H   UNL     1     -40.091 -47.099   9.595  1.00  0.00     0.173 HD
ENDROOT
BRANCH   1  11
HETATM   11  C   UNL     1     -40.454 -43.035  11.390  1.00  0.00     0.232 C 
HETATM   12  O   UNL     1     -39.763 -42.803  12.629  1.00  0.00    -0.366 OA
HETATM   13  C   UNL     1     -40.029 -41.450  13.034  1.00  0.00     0.170 C 
HETATM   14  C   UNL     1     -40.947 -40.833  11.994  1.00  0.00     0.031 C 
HETATM   15  C   UNL     1     -41.608 -42.044  11.382  1.00  0.00     0.056 C 
ENDBRANCH   1  11
TORSDOF 1
ENDMDL
MODEL 8
REMARK VINA RESULT:      -4.4      2.422      3.294
REMARK  1 active torsions:
REMARK  status: ('A' for Active; 'I' for Inactive)
REMARK    1  A    between atoms: N_1  and  C_7 
ROOT
HETATM    1  N   UNL     1     -41.712 -53.717  13.967  1.00  0.00    -0.279 N 
HETATM    2  C   UNL     1     -40.580 -53.781  13.163  1.00  0.00     0.331 A 
HETATM    3  N   UNL     1     -39.494 -54.418  13.709  1.00  0.00    -0.273 N 
HETATM    4  C   UNL     1     -41.756 -54.335  15.205  1.00  0.00     0.146 A 
HETATM    5  C   UNL     1     -40.706 -54.990  15.697  1.00  0.00     0.199 A 
HETATM    6  C   UNL     1     -39.457 -55.068  14.915  1.00  0.00     0.289 A 
HETATM    7  O   UNL     1     -40.514 -53.318  12.026  1.00  0.00    -0.246 OA
HETATM    8  O   UNL     1     -38.466 -55.678  15.301  1.00  0.00    -0.265 OA
HETATM    9  F   UNL     1     -40.731 -55.602  16.895  1.00  0.00    -0.199 F 
HETATM   10  H   UNL     1     -38.662 -54.463  13.141  1.00  0.00     0.173 HD
ENDROOT
BRANCH   1  11
HETATM   11  C   UNL     1     -42.869 -53.019  13.430  1.00  0.00     0.232 C 
HETATM   12  O   UNL     1     -43.581 -52.318  14.465  1.00  0.00    -0.366 OA
HETATM   13  C   UNL     1     -44.970 -52.292  14.101  1.00  0.00     0.170 C 
HETATM   14  C   UNL     1     -45.113 -53.033  12.784  1.00  0.00     0.031 C 
HETATM   15  C   UNL     1     -43.899 -53.929  12.781  1.00  0.00     0.056 C 
ENDBRANCH   1  11
TORSDOF 1
ENDMDL
MODEL 9
REMARK VINA RESULT:      -4.4      2.550      4.899
REMARK  1 active torsions:
REMARK  status: ('A' for Active; 'I' for Inactive)
REMARK    1  A    between atoms: N_1  and  C_7 
ROOT
HETATM    1  N   UNL     1     -44.250 -53.268  13.987  1.00  0.00    -0.279 N 
HETATM    2  C   UNL     1     -45.391 -54.058  13.916  1.00  0.00     0.331 A 
HETATM    3  N   UNL     1     -46.482 -53.597  14.610  1.00  0.00    -0.273 N 
HETATM    4  C   UNL     1     -44.251 -52.053  14.649  1.00  0.00     0.146 A 
HETATM    5  C   UNL     1     -45.336 -51.599  15.276  1.00  0.00     0.199 A 
HETATM    6  C   UNL     1     -46.574 -52.402  15.274  1.00  0.00     0.289 A 
HETATM    7  O   UNL     1     -45.467 -55.106  13.277  1.00  0.00    -0.246 OA
HETATM    8  O   UNL     1     -47.612 -52.028  15.810  1.00  0.00    -0.265 OA
HETATM    9  F   UNL     1     -45.359 -50.418  15.919  1.00  0.00    -0.199 F 
HETATM   10  H   UNL     1     -47.314 -54.165  14.575  1.00  0.00     0.173 HD
ENDROOT
BRANCH   1  11
HETATM   11  C   UNL     1     -43.067 -53.748  13.291  1.00  0.00     0.232 C 
HETATM   12  O   UNL     1     -42.144 -54.372  14.200  1.00  0.00    -0.366 OA
HETATM   13  C   UNL     1     -40.817 -54.158  13.694  1.00  0.00     0.170 C 
HETATM   14  C   UNL     1     -40.938 -53.344  12.419  1.00  0.00     0.031 C 
HETATM   15  C   UNL     1     -42.268 -52.655  12.597  1.00  0.00     0.056 C 
ENDBRANCH   1  11
TORSDOF 1
ENDMDL
