MODEL 1
REMARK VINA RESULT:      -5.2      0.000      0.000
REMARK  7 active torsions:
REMARK  status: ('A' for Active; 'I' for Inactive)
REMARK    1  A    between atoms: C_2  and  N_3 
REMARK       I    between atoms: N_3  and  C_4 
REMARK    2  A    between atoms: C_4  and  C_6 
REMARK    3  A    between atoms: C_6  and  C_7 
REMARK    4  A    between atoms: C_7  and  N_8 
REMARK    5  A    between atoms: N_8  and  C_9 
REMARK    6  A    between atoms: C_9  and  C_11 
REMARK    7  A    between atoms: C_11  and  N_13 
ROOT
HETATM    1  N   UNL     1     -40.760 -46.597  10.340  1.00  0.00     0.090 N 
HETATM    2  H   UNL     1     -40.261 -46.704   9.444  1.00  0.00     0.316 HD
ENDROOT
BRANCH   1   3
HETATM    3  C   UNL     1     -41.212 -45.212  10.497  1.00  0.00     0.279 C 
BRANCH   3   4
HETATM    4  C   UNL     1     -42.731 -45.114  10.617  1.00  0.00     0.132 C 
BRANCH   4   5
HETATM    5  C   UNL     1     -43.381 -45.922   9.509  1.00  0.00     0.219 C 
HETATM    6  N   UNL     1     -44.452 -46.680   9.926  1.00  0.00    -0.361 N 
HETATM    7  H   UNL     1     -44.795 -46.574  10.872  1.00  0.00     0.162 HD
HETATM    8  O   UNL     1     -42.985 -45.911   8.348  1.00  0.00    -0.274 OA
BRANCH   6   9
HETATM    9  C   UNL     1     -45.206 -47.491   8.993  1.00  0.00     0.118 C 
HETATM   10  C   UNL     1     -46.703 -47.324   9.178  1.00  0.00     0.026 C 
ENDBRANCH   6   9
ENDBRANCH   4   5
ENDBRANCH   3   4
ENDBRANCH   1   3
BRANCH   1  11
HETATM   11  C   UNL     1     -39.826 -47.014  11.411  1.00  0.00     0.240 C 
HETATM   12  C   UNL     1     -39.755 -45.942  12.509  1.00  0.00     0.045 C 
BRANCH  11  13
HETATM   13  C   UNL     1     -40.206 -48.395  12.035  1.00  0.00     0.136 C 
HETATM   14  C   UNL     1     -41.386 -49.092  11.351  1.00  0.00     0.036 C 
BRANCH  13  15
HETATM   15  N   UNL     1     -39.057 -49.299  12.130  1.00  0.00    -0.297 N 
HETATM   16  C   UNL     1     -38.755 -50.126  13.179  1.00  0.00     0.112 A 
HETATM   17  C   UNL     1     -37.653 -50.851  12.790  1.00  0.00     0.037 A 
HETATM   18  C   UNL     1     -37.357 -50.386  11.497  1.00  0.00     0.108 A 
HETATM   19  N   UNL     1     -38.194 -49.427  11.097  1.00  0.00    -0.310 N 
ATOM     20  HN  UNL     1     -38.185 -48.911  10.216  1.00  0.00     0.186 HD
ENDBRANCH  13  15
ENDBRANCH  11  13
ENDBRANCH   1  11
TORSDOF 7
ENDMDL
MODEL 2
REMARK VINA RESULT:      -4.9      3.922      5.504
REMARK  7 active torsions:
REMARK  status: ('A' for Active; 'I' for Inactive)
REMARK    1  A    between atoms: C_2  and  N_3 
REMARK       I    between atoms: N_3  and  C_4 
REMARK    2  A    between atoms: C_4  and  C_6 
REMARK    3  A    between atoms: C_6  and  C_7 
REMARK    4  A    between atoms: C_7  and  N_8 
REMARK    5  A    between atoms: N_8  and  C_9 
REMARK    6  A    between atoms: C_9  and  C_11 
REMARK    7  A    between atoms: C_11  and  N_13 
ROOT
HETATM    1  N   UNL     1     -41.585 -50.620  11.545  1.00  0.00     0.090 N 
HETATM    2  H   UNL     1     -41.963 -50.928  10.636  1.00  0.00     0.316 HD
ENDROOT
BRANCH   1   3
HETATM    3  C   UNL     1     -42.358 -51.221  12.636  1.00  0.00     0.279 C 
BRANCH   3   4
HETATM    4  C   UNL     1     -42.712 -52.679  12.352  1.00  0.00     0.132 C 
BRANCH   4   5
HETATM    5  C   UNL     1     -44.208 -52.879  12.509  1.00  0.00     0.219 C 
HETATM    6  N   UNL     1     -44.904 -51.715  12.744  1.00  0.00    -0.361 N 
HETATM    7  H   UNL     1     -44.420 -50.828  12.689  1.00  0.00     0.162 HD
HETATM    8  O   UNL     1     -44.750 -53.978  12.444  1.00  0.00    -0.274 OA
BRANCH   6   9
HETATM    9  C   UNL     1     -46.345 -51.719  12.893  1.00  0.00     0.118 C 
HETATM   10  C   UNL     1     -46.768 -51.436  14.322  1.00  0.00     0.026 C 
ENDBRANCH   6   9
ENDBRANCH   4   5
ENDBRANCH   3   4
ENDBRANCH   1   3
BRANCH   1  11
HETATM   11  C   UNL     1     -41.640 -49.140  11.559  1.00  0.00     0.240 C 
HETATM   12  C   UNL     1     -42.882 -48.656  12.324  1.00  0.00     0.045 C 
BRANCH  11  13
HETATM   13  C   UNL     1     -40.353 -48.496  12.167  1.00  0.00     0.136 C 
HETATM   14  C   UNL     1     -39.067 -49.281  11.891  1.00  0.00     0.036 C 
BRANCH  13  15
HETATM   15  N   UNL     1     -40.194 -47.093  11.778  1.00  0.00    -0.297 N 
HETATM   16  C   UNL     1     -39.899 -46.045  12.609  1.00  0.00     0.112 A 
HETATM   17  C   UNL     1     -39.753 -44.943  11.799  1.00  0.00     0.037 A 
HETATM   18  C   UNL     1     -39.989 -45.421  10.499  1.00  0.00     0.108 A 
HETATM   19  N   UNL     1     -40.279 -46.724  10.480  1.00  0.00    -0.310 N 
ATOM     20  HN  UNL     1     -40.509 -47.306   9.674  1.00  0.00     0.186 HD
ENDBRANCH  13  15
ENDBRANCH  11  13
ENDBRANCH   1  11
TORSDOF 7
ENDMDL
MODEL 3
REMARK VINA RESULT:      -4.9      5.412      6.599
REMARK  7 active torsions:
REMARK  status: ('A' for Active; 'I' for Inactive)
REMARK    1  A    between atoms: C_2  and  N_3 
REMARK       I    between atoms: N_3  and  C_4 
REMARK    2  A    between atoms: C_4  and  C_6 
REMARK    3  A    between atoms: C_6  and  C_7 
REMARK    4  A    between atoms: C_7  and  N_8 
REMARK    5  A    between atoms: N_8  and  C_9 
REMARK    6  A    between atoms: C_9  and  C_11 
REMARK    7  A    between atoms: C_11  and  N_13 
ROOT
HETATM    1  N   UNL     1     -42.732 -52.752  11.699  1.00  0.00     0.090 N 
HETATM    2  H   UNL     1     -42.820 -52.491  10.704  1.00  0.00     0.316 HD
ENDROOT
BRANCH   1   3
HETATM    3  C   UNL     1     -44.063 -52.940  12.284  1.00  0.00     0.279 C 
BRANCH   3   4
HETATM    4  C   UNL     1     -44.244 -54.345  12.856  1.00  0.00     0.132 C 
BRANCH   4   5
HETATM    5  C   UNL     1     -45.375 -54.340  13.867  1.00  0.00     0.219 C 
HETATM    6  N   UNL     1     -45.646 -53.098  14.394  1.00  0.00    -0.361 N 
HETATM    7  H   UNL     1     -45.177 -52.285  14.015  1.00  0.00     0.162 HD
HETATM    8  O   UNL     1     -45.988 -55.351  14.194  1.00  0.00    -0.274 OA
BRANCH   6   9
HETATM    9  C   UNL     1     -46.714 -52.906  15.354  1.00  0.00     0.118 C 
HETATM   10  C   UNL     1     -47.122 -51.448  15.464  1.00  0.00     0.026 C 
ENDBRANCH   6   9
ENDBRANCH   4   5
ENDBRANCH   3   4
ENDBRANCH   1   3
BRANCH   1  11
HETATM   11  C   UNL     1     -41.966 -51.674  12.366  1.00  0.00     0.240 C 
HETATM   12  C   UNL     1     -42.890 -50.835  13.262  1.00  0.00     0.045 C 
BRANCH  11  13
HETATM   13  C   UNL     1     -40.763 -52.221  13.199  1.00  0.00     0.136 C 
HETATM   14  C   UNL     1     -40.553 -53.733  13.084  1.00  0.00     0.036 C 
BRANCH  13  15
HETATM   15  N   UNL     1     -39.517 -51.504  12.916  1.00  0.00    -0.297 N 
HETATM   16  C   UNL     1     -38.382 -51.509  13.681  1.00  0.00     0.112 A 
HETATM   17  C   UNL     1     -37.446 -50.782  12.982  1.00  0.00     0.037 A 
HETATM   18  C   UNL     1     -38.111 -50.371  11.815  1.00  0.00     0.108 A 
HETATM   19  N   UNL     1     -39.378 -50.788  11.776  1.00  0.00    -0.310 N 
ATOM     20  HN  UNL     1     -40.078 -50.610  11.056  1.00  0.00     0.186 HD
ENDBRANCH  13  15
ENDBRANCH  11  13
ENDBRANCH   1  11
TORSDOF 7
ENDMDL
MODEL 4
REMARK VINA RESULT:      -4.8      3.957      4.977
REMARK  7 active torsions:
REMARK  status: ('A' for Active; 'I' for Inactive)
REMARK    1  A    between atoms: C_2  and  N_3 
REMARK       I    between atoms: N_3  and  C_4 
REMARK    2  A    between atoms: C_4  and  C_6 
REMARK    3  A    between atoms: C_6  and  C_7 
REMARK    4  A    between atoms: C_7  and  N_8 
REMARK    5  A    between atoms: N_8  and  C_9 
REMARK    6  A    between atoms: C_9  and  C_11 
REMARK    7  A    between atoms: C_11  and  N_13 
ROOT
HETATM    1  N   UNL     1     -41.640 -50.731  11.652  1.00  0.00     0.090 N 
HETATM    2  H   UNL     1     -41.939 -51.114  10.741  1.00  0.00     0.316 HD
ENDROOT
BRANCH   1   3
HETATM    3  C   UNL     1     -42.327 -51.436  12.738  1.00  0.00     0.279 C 
BRANCH   3   4
HETATM    4  C   UNL     1     -42.754 -52.844  12.328  1.00  0.00     0.132 C 
BRANCH   4   5
HETATM    5  C   UNL     1     -44.252 -52.995  12.514  1.00  0.00     0.219 C 
HETATM    6  N   UNL     1     -44.914 -51.802  12.694  1.00  0.00    -0.361 N 
HETATM    7  H   UNL     1     -44.409 -50.933  12.585  1.00  0.00     0.162 HD
HETATM    8  O   UNL     1     -44.823 -54.082  12.515  1.00  0.00    -0.274 OA
BRANCH   6   9
HETATM    9  C   UNL     1     -46.353 -51.761  12.859  1.00  0.00     0.118 C 
HETATM   10  C   UNL     1     -46.750 -51.423  14.285  1.00  0.00     0.026 C 
ENDBRANCH   6   9
ENDBRANCH   4   5
ENDBRANCH   3   4
ENDBRANCH   1   3
BRANCH   1  11
HETATM   11  C   UNL     1     -41.944 -49.282  11.634  1.00  0.00     0.240 C 
HETATM   12  C   UNL     1     -42.543 -48.843  12.979  1.00  0.00     0.045 C 
BRANCH  11  13
HETATM   13  C   UNL     1     -40.692 -48.410  11.296  1.00  0.00     0.136 C 
HETATM   14  C   UNL     1     -40.774 -46.967  11.804  1.00  0.00     0.036 C 
BRANCH  13  15
HETATM   15  N   UNL     1     -39.442 -49.039  11.730  1.00  0.00    -0.297 N 
HETATM   16  C   UNL     1     -38.948 -49.075  13.006  1.00  0.00     0.112 A 
HETATM   17  C   UNL     1     -37.810 -49.847  12.956  1.00  0.00     0.037 A 
HETATM   18  C   UNL     1     -37.693 -50.223  11.607  1.00  0.00     0.108 A 
HETATM   19  N   UNL     1     -38.671 -49.718  10.851  1.00  0.00    -0.310 N 
ATOM     20  HN  UNL     1     -38.805 -49.821   9.845  1.00  0.00     0.186 HD
ENDBRANCH  13  15
ENDBRANCH  11  13
ENDBRANCH   1  11
TORSDOF 7
ENDMDL
MODEL 5
REMARK VINA RESULT:      -4.8      5.994      8.338
REMARK  7 active torsions:
REMARK  status: ('A' for Active; 'I' for Inactive)
REMARK    1  A    between atoms: C_2  and  N_3 
REMARK       I    between atoms: N_3  and  C_4 
REMARK    2  A    between atoms: C_4  and  C_6 
REMARK    3  A    between atoms: C_6  and  C_7 
REMARK    4  A    between atoms: C_7  and  N_8 
REMARK    5  A    between atoms: N_8  and  C_9 
REMARK    6  A    between atoms: C_9  and  C_11 
REMARK    7  A    between atoms: C_11  and  N_13 
ROOT
HETATM    1  N   UNL     1     -46.427 -53.633  13.355  1.00  0.00     0.090 N 
HETATM    2  H   UNL     1     -46.846 -53.461  14.282  1.00  0.00     0.316 HD
ENDROOT
BRANCH   1   3
HETATM    3  C   UNL     1     -45.279 -54.535  13.487  1.00  0.00     0.279 C 
BRANCH   3   4
HETATM    4  C   UNL     1     -44.081 -54.062  12.668  1.00  0.00     0.132 C 
BRANCH   4   5
HETATM    5  C   UNL     1     -42.836 -54.075  13.535  1.00  0.00     0.219 C 
HETATM    6  N   UNL     1     -41.660 -54.111  12.820  1.00  0.00    -0.361 N 
HETATM    7  H   UNL     1     -41.688 -54.017  11.814  1.00  0.00     0.162 HD
HETATM    8  O   UNL     1     -42.870 -54.065  14.762  1.00  0.00    -0.274 OA
BRANCH   6   9
HETATM    9  C   UNL     1     -40.375 -54.100  13.490  1.00  0.00     0.118 C 
HETATM   10  C   UNL     1     -39.843 -52.690  13.672  1.00  0.00     0.026 C 
ENDBRANCH   6   9
ENDBRANCH   4   5
ENDBRANCH   3   4
ENDBRANCH   1   3
BRANCH   1  11
HETATM   11  C   UNL     1     -46.050 -52.313  12.797  1.00  0.00     0.240 C 
HETATM   12  C   UNL     1     -47.034 -51.898  11.692  1.00  0.00     0.045 C 
BRANCH  11  13
HETATM   13  C   UNL     1     -45.971 -51.200  13.890  1.00  0.00     0.136 C 
HETATM   14  C   UNL     1     -46.854 -51.456  15.115  1.00  0.00     0.036 C 
BRANCH  13  15
HETATM   15  N   UNL     1     -44.593 -50.916  14.298  1.00  0.00    -0.297 N 
HETATM   16  C   UNL     1     -43.640 -50.271  13.557  1.00  0.00     0.112 A 
HETATM   17  C   UNL     1     -42.539 -50.147  14.372  1.00  0.00     0.037 A 
HETATM   18  C   UNL     1     -42.918 -50.756  15.580  1.00  0.00     0.108 A 
HETATM   19  N   UNL     1     -44.159 -51.245  15.537  1.00  0.00    -0.310 N 
ATOM     20  HN  UNL     1     -44.663 -51.748  16.267  1.00  0.00     0.186 HD
ENDBRANCH  13  15
ENDBRANCH  11  13
ENDBRANCH   1  11
TORSDOF 7
ENDMDL
MODEL 6
REMARK VINA RESULT:      -4.8      4.520      5.817
REMARK  7 active torsions:
REMARK  status: ('A' for Active; 'I' for Inactive)
REMARK    1  A    between atoms: C_2  and  N_3 
REMARK       I    between atoms: N_3  and  C_4 
REMARK    2  A    between atoms: C_4  and  C_6 
REMARK    3  A    between atoms: C_6  and  C_7 
REMARK    4  A    between atoms: C_7  and  N_8 
REMARK    5  A    between atoms: N_8  and  C_9 
REMARK    6  A    between atoms: C_9  and  C_11 
REMARK    7  A    between atoms: C_11  and  N_13 
ROOT
HETATM    1  N   UNL     1     -42.110 -50.796  11.781  1.00  0.00     0.090 N 
HETATM    2  H   UNL     1     -42.559 -50.923  10.861  1.00  0.00     0.316 HD
ENDROOT
BRANCH   1   3
HETATM    3  C   UNL     1     -40.693 -50.465  11.602  1.00  0.00     0.279 C 
BRANCH   3   4
HETATM    4  C   UNL     1     -40.486 -48.985  11.286  1.00  0.00     0.132 C 
BRANCH   4   5
HETATM    5  C   UNL     1     -41.816 -48.352  10.923  1.00  0.00     0.219 C 
HETATM    6  N   UNL     1     -42.006 -48.194   9.569  1.00  0.00    -0.361 N 
HETATM    7  H   UNL     1     -41.335 -48.590   8.924  1.00  0.00     0.162 HD
HETATM    8  O   UNL     1     -42.645 -48.002  11.758  1.00  0.00    -0.274 OA
BRANCH   6   9
HETATM    9  C   UNL     1     -43.234 -47.631   9.044  1.00  0.00     0.118 C 
HETATM   10  C   UNL     1     -43.429 -47.967   7.577  1.00  0.00     0.026 C 
ENDBRANCH   6   9
ENDBRANCH   4   5
ENDBRANCH   3   4
ENDBRANCH   1   3
BRANCH   1  11
HETATM   11  C   UNL     1     -42.309 -52.053  12.539  1.00  0.00     0.240 C 
HETATM   12  C   UNL     1     -40.958 -52.610  13.015  1.00  0.00     0.045 C 
BRANCH  11  13
HETATM   13  C   UNL     1     -43.273 -51.874  13.755  1.00  0.00     0.136 C 
HETATM   14  C   UNL     1     -44.051 -50.555  13.753  1.00  0.00     0.036 C 
BRANCH  13  15
HETATM   15  N   UNL     1     -44.184 -53.011  13.915  1.00  0.00    -0.297 N 
HETATM   16  C   UNL     1     -44.402 -54.014  13.010  1.00  0.00     0.112 A 
HETATM   17  C   UNL     1     -45.255 -54.903  13.620  1.00  0.00     0.037 A 
HETATM   18  C   UNL     1     -45.506 -54.346  14.886  1.00  0.00     0.108 A 
HETATM   19  N   UNL     1     -44.874 -53.184  15.065  1.00  0.00    -0.310 N 
ATOM     20  HN  UNL     1     -44.905 -52.570  15.879  1.00  0.00     0.186 HD
ENDBRANCH  13  15
ENDBRANCH  11  13
ENDBRANCH   1  11
TORSDOF 7
ENDMDL
MODEL 7
REMARK VINA RESULT:      -4.8      3.967      5.122
REMARK  7 active torsions:
REMARK  status: ('A' for Active; 'I' for Inactive)
REMARK    1  A    between atoms: C_2  and  N_3 
REMARK       I    between atoms: N_3  and  C_4 
REMARK    2  A    between atoms: C_4  and  C_6 
REMARK    3  A    between atoms: C_6  and  C_7 
REMARK    4  A    between atoms: C_7  and  N_8 
REMARK    5  A    between atoms: N_8  and  C_9 
REMARK    6  A    between atoms: C_9  and  C_11 
REMARK    7  A    between atoms: C_11  and  N_13 
ROOT
HETATM    1  N   UNL     1     -41.518 -50.801  11.590  1.00  0.00     0.090 N 
HETATM    2  H   UNL     1     -41.763 -51.498  10.870  1.00  0.00     0.316 HD
ENDROOT
BRANCH   1   3
HETATM    3  C   UNL     1     -40.481 -49.900  11.079  1.00  0.00     0.279 C 
BRANCH   3   4
HETATM    4  C   UNL     1     -40.845 -48.431  11.288  1.00  0.00     0.132 C 
BRANCH   4   5
HETATM    5  C   UNL     1     -42.254 -48.180  10.783  1.00  0.00     0.219 C 
HETATM    6  N   UNL     1     -42.320 -47.875   9.443  1.00  0.00    -0.361 N 
HETATM    7  H   UNL     1     -41.484 -47.942   8.877  1.00  0.00     0.162 HD
HETATM    8  O   UNL     1     -43.246 -48.234  11.504  1.00  0.00    -0.274 OA
BRANCH   6   9
HETATM    9  C   UNL     1     -43.591 -47.633   8.790  1.00  0.00     0.118 C 
HETATM   10  C   UNL     1     -43.927 -46.153   8.737  1.00  0.00     0.026 C 
ENDBRANCH   6   9
ENDBRANCH   4   5
ENDBRANCH   3   4
ENDBRANCH   1   3
BRANCH   1  11
HETATM   11  C   UNL     1     -41.077 -51.552  12.788  1.00  0.00     0.240 C 
HETATM   12  C   UNL     1     -41.839 -51.071  14.033  1.00  0.00     0.045 C 
BRANCH  11  13
HETATM   13  C   UNL     1     -41.241 -53.097  12.623  1.00  0.00     0.136 C 
HETATM   14  C   UNL     1     -40.250 -53.926  13.445  1.00  0.00     0.036 C 
BRANCH  13  15
HETATM   15  N   UNL     1     -42.615 -53.541  12.872  1.00  0.00    -0.297 N 
HETATM   16  C   UNL     1     -43.054 -54.272  13.942  1.00  0.00     0.112 A 
HETATM   17  C   UNL     1     -44.419 -54.370  13.806  1.00  0.00     0.037 A 
HETATM   18  C   UNL     1     -44.711 -53.675  12.619  1.00  0.00     0.108 A 
HETATM   19  N   UNL     1     -43.616 -53.186  12.034  1.00  0.00    -0.310 N 
ATOM     20  HN  UNL     1     -43.550 -52.665  11.159  1.00  0.00     0.186 HD
ENDBRANCH  13  15
ENDBRANCH  11  13
ENDBRANCH   1  11
TORSDOF 7
ENDMDL
MODEL 8
REMARK VINA RESULT:      -4.8      4.081      5.520
REMARK  7 active torsions:
REMARK  status: ('A' for Active; 'I' for Inactive)
REMARK    1  A    between atoms: C_2  and  N_3 
REMARK       I    between atoms: N_3  and  C_4 
REMARK    2  A    between atoms: C_4  and  C_6 
REMARK    3  A    between atoms: C_6  and  C_7 
REMARK    4  A    between atoms: C_7  and  N_8 
REMARK    5  A    between atoms: N_8  and  C_9 
REMARK    6  A    between atoms: C_9  and  C_11 
REMARK    7  A    between atoms: C_11  and  N_13 
ROOT
HETATM    1  N   UNL     1     -42.642 -50.692  12.019  1.00  0.00     0.090 N 
HETATM    2  H   UNL     1     -42.460 -50.596  11.008  1.00  0.00     0.316 HD
ENDROOT
BRANCH   1   3
HETATM    3  C   UNL     1     -42.036 -49.570  12.742  1.00  0.00     0.279 C 
BRANCH   3   4
HETATM    4  C   UNL     1     -42.764 -48.255  12.474  1.00  0.00     0.132 C 
BRANCH   4   5
HETATM    5  C   UNL     1     -42.935 -48.065  10.978  1.00  0.00     0.219 C 
HETATM    6  N   UNL     1     -44.226 -47.776  10.598  1.00  0.00    -0.361 N 
HETATM    7  H   UNL     1     -44.925 -47.605  11.308  1.00  0.00     0.162 HD
HETATM    8  O   UNL     1     -42.011 -48.170  10.177  1.00  0.00    -0.274 OA
BRANCH   6   9
HETATM    9  C   UNL     1     -44.563 -47.538   9.209  1.00  0.00     0.118 C 
HETATM   10  C   UNL     1     -46.052 -47.313   9.018  1.00  0.00     0.026 C 
ENDBRANCH   6   9
ENDBRANCH   4   5
ENDBRANCH   3   4
ENDBRANCH   1   3
BRANCH   1  11
HETATM   11  C   UNL     1     -42.093 -52.001  12.438  1.00  0.00     0.240 C 
HETATM   12  C   UNL     1     -41.242 -51.844  13.708  1.00  0.00     0.045 C 
BRANCH  11  13
HETATM   13  C   UNL     1     -43.206 -53.073  12.669  1.00  0.00     0.136 C 
HETATM   14  C   UNL     1     -42.841 -54.148  13.698  1.00  0.00     0.036 C 
BRANCH  13  15
HETATM   15  N   UNL     1     -44.502 -52.471  12.991  1.00  0.00    -0.297 N 
HETATM   16  C   UNL     1     -44.862 -51.898  14.181  1.00  0.00     0.112 A 
HETATM   17  C   UNL     1     -46.124 -51.385  13.994  1.00  0.00     0.037 A 
HETATM   18  C   UNL     1     -46.447 -51.706  12.664  1.00  0.00     0.108 A 
HETATM   19  N   UNL     1     -45.473 -52.384  12.053  1.00  0.00    -0.310 N 
ATOM     20  HN  UNL     1     -45.464 -52.752  11.102  1.00  0.00     0.186 HD
ENDBRANCH  13  15
ENDBRANCH  11  13
ENDBRANCH   1  11
TORSDOF 7
ENDMDL
MODEL 9
REMARK VINA RESULT:      -4.7      2.059      2.738
REMARK  7 active torsions:
REMARK  status: ('A' for Active; 'I' for Inactive)
REMARK    1  A    between atoms: C_2  and  N_3 
REMARK       I    between atoms: N_3  and  C_4 
REMARK    2  A    between atoms: C_4  and  C_6 
REMARK    3  A    between atoms: C_6  and  C_7 
REMARK    4  A    between atoms: C_7  and  N_8 
REMARK    5  A    between atoms: N_8  and  C_9 
REMARK    6  A    between atoms: C_9  and  C_11 
REMARK    7  A    between atoms: C_11  and  N_13 
ROOT
HETATM    1  N   UNL     1     -40.547 -48.302  13.186  1.00  0.00     0.090 N 
HETATM    2  H   UNL     1     -41.070 -49.070  12.738  1.00  0.00     0.316 HD
ENDROOT
BRANCH   1   3
HETATM    3  C   UNL     1     -41.246 -47.031  12.970  1.00  0.00     0.279 C 
BRANCH   3   4
HETATM    4  C   UNL     1     -42.739 -47.232  12.724  1.00  0.00     0.132 C 
BRANCH   4   5
HETATM    5  C   UNL     1     -42.969 -47.597  11.269  1.00  0.00     0.219 C 
HETATM    6  N   UNL     1     -44.014 -46.919  10.683  1.00  0.00    -0.361 N 
HETATM    7  H   UNL     1     -44.472 -46.176  11.195  1.00  0.00     0.162 HD
HETATM    8  O   UNL     1     -42.293 -48.427  10.669  1.00  0.00    -0.274 OA
BRANCH   6   9
HETATM    9  C   UNL     1     -44.355 -47.125   9.290  1.00  0.00     0.118 C 
HETATM   10  C   UNL     1     -45.744 -47.716   9.129  1.00  0.00     0.026 C 
ENDBRANCH   6   9
ENDBRANCH   4   5
ENDBRANCH   3   4
ENDBRANCH   1   3
BRANCH   1  11
HETATM   11  C   UNL     1     -39.185 -48.307  12.606  1.00  0.00     0.240 C 
HETATM   12  C   UNL     1     -38.127 -48.311  13.721  1.00  0.00     0.045 C 
BRANCH  11  13
HETATM   13  C   UNL     1     -38.948 -49.511  11.640  1.00  0.00     0.136 C 
HETATM   14  C   UNL     1     -37.476 -49.898  11.466  1.00  0.00     0.036 C 
BRANCH  13  15
HETATM   15  N   UNL     1     -39.750 -50.683  12.002  1.00  0.00    -0.297 N 
HETATM   16  C   UNL     1     -39.540 -51.516  13.068  1.00  0.00     0.112 A 
HETATM   17  C   UNL     1     -40.585 -52.409  13.068  1.00  0.00     0.037 A 
HETATM   18  C   UNL     1     -41.368 -52.043  11.959  1.00  0.00     0.108 A 
HETATM   19  N   UNL     1     -40.855 -51.006  11.294  1.00  0.00    -0.310 N 
ATOM     20  HN  UNL     1     -41.214 -50.562  10.449  1.00  0.00     0.186 HD
ENDBRANCH  13  15
ENDBRANCH  11  13
ENDBRANCH   1  11
TORSDOF 7
ENDMDL
