MODEL 1
REMARK VINA RESULT:      -6.0      0.000      0.000
REMARK  5 active torsions:
REMARK  status: ('A' for Active; 'I' for Inactive)
REMARK    1  A    between atoms: C_2  and  C_3 
REMARK    2  A    between atoms: C_3  and  C_4 
REMARK    3  A    between atoms: C_3  and  C_6 
REMARK    4  A    between atoms: C_8  and  N_12 
REMARK       I    between atoms: N_12  and  C_13 
REMARK       I    between atoms: C_13  and  N_15 
REMARK    5  A    between atoms: N_15  and  C_16 
ROOT
HETATM    1  N   UNL     1     -42.150 -49.666  11.466  1.00  0.00    -0.338 N 
HETATM    2  C   UNL     1     -42.314 -50.565  12.505  1.00  0.00     0.321 C 
HETATM    3  O   UNL     1     -42.277 -50.203  13.676  1.00  0.00    -0.247 OA
HETATM    4  N   UNL     1     -42.545 -51.854  12.086  1.00  0.00    -0.304 N 
HETATM    5  H   UNL     1     -41.851 -50.049  10.579  1.00  0.00     0.164 HD
HETATM    6  H   UNL     1     -43.080 -51.933  11.226  1.00  0.00     0.171 HD
ENDROOT
BRANCH   1   7
HETATM    7  C   UNL     1     -41.743 -48.296  11.798  1.00  0.00     0.090 C 
HETATM    8  C   UNL     1     -42.844 -47.259  11.583  1.00  0.00     0.057 C 
HETATM    9  C   UNL     1     -42.353 -45.851  11.987  1.00  0.00     0.127 C 
HETATM   10  O   UNL     1     -41.150 -45.545  11.260  1.00  0.00    -0.385 OA
HETATM   11  C   UNL     1     -40.081 -46.474  11.425  1.00  0.00     0.170 C 
HETATM   12  C   UNL     1     -40.497 -47.879  11.014  1.00  0.00     0.051 C 
BRANCH   9  13
HETATM   13  C   UNL     1     -42.194 -45.596  13.524  1.00  0.00     0.014 C 
BRANCH  13  14
HETATM   14  C   UNL     1     -41.889 -44.101  13.813  1.00  0.00     0.002 C 
HETATM   15  C   UNL     1     -42.820 -43.127  13.095  1.00  0.00     0.005 C 
ENDBRANCH  13  14
BRANCH  13  16
HETATM   16  C   UNL     1     -43.391 -46.123  14.351  1.00  0.00     0.002 C 
HETATM   17  C   UNL     1     -43.032 -47.144  15.422  1.00  0.00     0.005 C 
ENDBRANCH  13  16
ENDBRANCH   9  13
ENDBRANCH   1   7
BRANCH   4  18
HETATM   18  C   UNL     1     -42.712 -52.947  12.938  1.00  0.00     0.111 C 
HETATM   19  C   UNL     1     -41.766 -53.545  13.698  1.00  0.00    -0.028 C 
HETATM   20  C   UNL     1     -40.285 -53.273  13.665  1.00  0.00     0.050 C 
HETATM   21  C   UNL     1     -42.137 -54.594  14.638  1.00  0.00     0.026 C 
HETATM   22  C   UNL     1     -43.386 -55.058  14.699  1.00  0.00     0.094 C 
HETATM   23  N   UNL     1     -44.369 -54.559  13.874  1.00  0.00    -0.327 N 
HETATM   24  C   UNL     1     -45.692 -55.149  13.921  1.00  0.00     0.159 C 
HETATM   25  C   UNL     1     -44.120 -53.530  12.963  1.00  0.00     0.274 C 
HETATM   26  O   UNL     1     -44.968 -53.076  12.191  1.00  0.00    -0.265 OA
ENDBRANCH   4  18
TORSDOF 5
ENDMDL
MODEL 2
REMARK VINA RESULT:      -5.9      1.369      2.016
REMARK  5 active torsions:
REMARK  status: ('A' for Active; 'I' for Inactive)
REMARK    1  A    between atoms: C_2  and  C_3 
REMARK    2  A    between atoms: C_3  and  C_4 
REMARK    3  A    between atoms: C_3  and  C_6 
REMARK    4  A    between atoms: C_8  and  N_12 
REMARK       I    between atoms: N_12  and  C_13 
REMARK       I    between atoms: C_13  and  N_15 
REMARK    5  A    between atoms: N_15  and  C_16 
ROOT
HETATM    1  N   UNL     1     -41.494 -50.557  11.381  1.00  0.00    -0.338 N 
HETATM    2  C   UNL     1     -42.022 -51.282  12.434  1.00  0.00     0.321 C 
HETATM    3  O   UNL     1     -42.507 -50.727  13.415  1.00  0.00    -0.247 OA
HETATM    4  N   UNL     1     -41.971 -52.643  12.246  1.00  0.00    -0.304 N 
HETATM    5  H   UNL     1     -40.824 -51.035  10.794  1.00  0.00     0.164 HD
HETATM    6  H   UNL     1     -42.087 -52.944  11.283  1.00  0.00     0.171 HD
ENDROOT
BRANCH   1   7
HETATM    7  C   UNL     1     -41.354 -49.105  11.547  1.00  0.00     0.090 C 
HETATM    8  C   UNL     1     -41.420 -48.328  10.232  1.00  0.00     0.057 C 
HETATM    9  C   UNL     1     -41.301 -46.810  10.490  1.00  0.00     0.127 C 
HETATM   10  O   UNL     1     -40.095 -46.550  11.231  1.00  0.00    -0.385 OA
HETATM   11  C   UNL     1     -39.978 -47.242  12.472  1.00  0.00     0.170 C 
HETATM   12  C   UNL     1     -40.058 -48.749  12.278  1.00  0.00     0.051 C 
BRANCH   9  13
HETATM   13  C   UNL     1     -42.551 -46.126  11.140  1.00  0.00     0.014 C 
BRANCH  13  14
HETATM   14  C   UNL     1     -42.319 -44.602  11.327  1.00  0.00     0.002 C 
HETATM   15  C   UNL     1     -42.438 -44.128  12.774  1.00  0.00     0.005 C 
ENDBRANCH  13  14
BRANCH  13  16
HETATM   16  C   UNL     1     -43.868 -46.433  10.387  1.00  0.00     0.002 C 
HETATM   17  C   UNL     1     -43.931 -45.900   8.962  1.00  0.00     0.005 C 
ENDBRANCH  13  16
ENDBRANCH   9  13
ENDBRANCH   1   7
BRANCH   4  18
HETATM   18  C   UNL     1     -42.410 -53.590  13.173  1.00  0.00     0.111 C 
HETATM   19  C   UNL     1     -41.668 -54.227  14.107  1.00  0.00    -0.028 C 
HETATM   20  C   UNL     1     -40.169 -54.187  14.242  1.00  0.00     0.050 C 
HETATM   21  C   UNL     1     -42.311 -55.090  15.088  1.00  0.00     0.026 C 
HETATM   22  C   UNL     1     -43.618 -55.351  15.030  1.00  0.00     0.094 C 
HETATM   23  N   UNL     1     -44.405 -54.812  14.037  1.00  0.00    -0.327 N 
HETATM   24  C   UNL     1     -45.803 -55.187  13.968  1.00  0.00     0.159 C 
HETATM   25  C   UNL     1     -43.888 -53.948  13.070  1.00  0.00     0.274 C 
HETATM   26  O   UNL     1     -44.556 -53.466  12.152  1.00  0.00    -0.265 OA
ENDBRANCH   4  18
TORSDOF 5
ENDMDL
MODEL 3
REMARK VINA RESULT:      -5.8      2.304      7.758
REMARK  5 active torsions:
REMARK  status: ('A' for Active; 'I' for Inactive)
REMARK    1  A    between atoms: C_2  and  C_3 
REMARK    2  A    between atoms: C_3  and  C_4 
REMARK    3  A    between atoms: C_3  and  C_6 
REMARK    4  A    between atoms: C_8  and  N_12 
REMARK       I    between atoms: N_12  and  C_13 
REMARK       I    between atoms: C_13  and  N_15 
REMARK    5  A    between atoms: N_15  and  C_16 
ROOT
HETATM    1  N   UNL     1     -42.248 -51.909  11.910  1.00  0.00    -0.338 N 
HETATM    2  C   UNL     1     -41.916 -50.597  12.197  1.00  0.00     0.321 C 
HETATM    3  O   UNL     1     -41.961 -50.161  13.342  1.00  0.00    -0.247 OA
HETATM    4  N   UNL     1     -41.515 -49.877  11.096  1.00  0.00    -0.304 N 
HETATM    5  H   UNL     1     -42.521 -52.109  10.957  1.00  0.00     0.164 HD
HETATM    6  H   UNL     1     -41.007 -50.413  10.399  1.00  0.00     0.171 HD
ENDROOT
BRANCH   1   7
HETATM    7  C   UNL     1     -42.838 -52.721  12.982  1.00  0.00     0.090 C 
HETATM    8  C   UNL     1     -42.000 -53.941  13.360  1.00  0.00     0.057 C 
HETATM    9  C   UNL     1     -42.666 -54.722  14.514  1.00  0.00     0.127 C 
HETATM   10  O   UNL     1     -44.011 -55.066  14.137  1.00  0.00    -0.385 OA
HETATM   11  C   UNL     1     -44.846 -53.967  13.777  1.00  0.00     0.170 C 
HETATM   12  C   UNL     1     -44.254 -53.173  12.622  1.00  0.00     0.051 C 
BRANCH   9  13
HETATM   13  C   UNL     1     -42.605 -54.044  15.925  1.00  0.00     0.014 C 
BRANCH  13  14
HETATM   14  C   UNL     1     -42.749 -55.097  17.057  1.00  0.00     0.002 C 
HETATM   15  C   UNL     1     -41.999 -56.401  16.792  1.00  0.00     0.005 C 
ENDBRANCH  13  14
BRANCH  13  16
HETATM   16  C   UNL     1     -41.357 -53.148  16.111  1.00  0.00     0.002 C 
HETATM   17  C   UNL     1     -41.652 -51.718  16.544  1.00  0.00     0.005 C 
ENDBRANCH  13  16
ENDBRANCH   9  13
ENDBRANCH   1   7
BRANCH   4  18
HETATM   18  C   UNL     1     -41.160 -48.528  11.117  1.00  0.00     0.111 C 
HETATM   19  C   UNL     1     -39.986 -47.997  11.529  1.00  0.00    -0.028 C 
HETATM   20  C   UNL     1     -38.865 -48.726  12.219  1.00  0.00     0.050 C 
HETATM   21  C   UNL     1     -39.727 -46.574  11.358  1.00  0.00     0.026 C 
HETATM   22  C   UNL     1     -40.666 -45.750  10.890  1.00  0.00     0.094 C 
HETATM   23  N   UNL     1     -41.915 -46.219  10.553  1.00  0.00    -0.327 N 
HETATM   24  C   UNL     1     -42.928 -45.274  10.124  1.00  0.00     0.159 C 
HETATM   25  C   UNL     1     -42.251 -47.571  10.649  1.00  0.00     0.274 C 
HETATM   26  O   UNL     1     -43.366 -48.023  10.380  1.00  0.00    -0.265 OA
ENDBRANCH   4  18
TORSDOF 5
ENDMDL
MODEL 4
REMARK VINA RESULT:      -5.8      1.957      2.763
REMARK  5 active torsions:
REMARK  status: ('A' for Active; 'I' for Inactive)
REMARK    1  A    between atoms: C_2  and  C_3 
REMARK    2  A    between atoms: C_3  and  C_4 
REMARK    3  A    between atoms: C_3  and  C_6 
REMARK    4  A    between atoms: C_8  and  N_12 
REMARK       I    between atoms: N_12  and  C_13 
REMARK       I    between atoms: C_13  and  N_15 
REMARK    5  A    between atoms: N_15  and  C_16 
ROOT
HETATM    1  N   UNL     1     -40.383 -48.026  10.920  1.00  0.00    -0.338 N 
HETATM    2  C   UNL     1     -40.345 -48.925  11.971  1.00  0.00     0.321 C 
HETATM    3  O   UNL     1     -40.689 -48.601  13.103  1.00  0.00    -0.247 OA
HETATM    4  N   UNL     1     -39.923 -50.182  11.606  1.00  0.00    -0.304 N 
HETATM    5  H   UNL     1     -39.786 -48.230  10.129  1.00  0.00     0.164 HD
HETATM    6  H   UNL     1     -40.200 -50.469  10.672  1.00  0.00     0.171 HD
ENDROOT
BRANCH   1   7
HETATM    7  C   UNL     1     -40.665 -46.619  11.227  1.00  0.00     0.090 C 
HETATM    8  C   UNL     1     -42.125 -46.224  11.005  1.00  0.00     0.057 C 
HETATM    9  C   UNL     1     -42.351 -44.743  11.382  1.00  0.00     0.127 C 
HETATM   10  O   UNL     1     -41.433 -43.922  10.639  1.00  0.00    -0.385 OA
HETATM   11  C   UNL     1     -40.053 -44.238  10.809  1.00  0.00     0.170 C 
HETATM   12  C   UNL     1     -39.761 -45.681  10.424  1.00  0.00     0.051 C 
BRANCH   9  13
HETATM   13  C   UNL     1     -42.329 -44.415  12.913  1.00  0.00     0.014 C 
BRANCH  13  14
HETATM   14  C   UNL     1     -42.807 -42.961  13.179  1.00  0.00     0.002 C 
HETATM   15  C   UNL     1     -41.710 -42.030  13.692  1.00  0.00     0.005 C 
ENDBRANCH  13  14
BRANCH  13  16
HETATM   16  C   UNL     1     -43.100 -45.452  13.764  1.00  0.00     0.002 C 
HETATM   17  C   UNL     1     -42.330 -46.003  14.957  1.00  0.00     0.005 C 
ENDBRANCH  13  16
ENDBRANCH   9  13
ENDBRANCH   1   7
BRANCH   4  18
HETATM   18  C   UNL     1     -39.770 -51.254  12.486  1.00  0.00     0.111 C 
HETATM   19  C   UNL     1     -38.703 -51.521  13.273  1.00  0.00    -0.028 C 
HETATM   20  C   UNL     1     -37.372 -50.818  13.249  1.00  0.00     0.050 C 
HETATM   21  C   UNL     1     -38.760 -52.611  14.237  1.00  0.00     0.026 C 
HETATM   22  C   UNL     1     -39.813 -53.428  14.298  1.00  0.00     0.094 C 
HETATM   23  N   UNL     1     -40.884 -53.267  13.449  1.00  0.00    -0.327 N 
HETATM   24  C   UNL     1     -41.970 -54.226  13.498  1.00  0.00     0.159 C 
HETATM   25  C   UNL     1     -40.939 -52.232  12.513  1.00  0.00     0.274 C 
HETATM   26  O   UNL     1     -41.869 -52.072  11.719  1.00  0.00    -0.265 OA
ENDBRANCH   4  18
TORSDOF 5
ENDMDL
MODEL 5
REMARK VINA RESULT:      -5.7      2.391      7.881
REMARK  5 active torsions:
REMARK  status: ('A' for Active; 'I' for Inactive)
REMARK    1  A    between atoms: C_2  and  C_3 
REMARK    2  A    between atoms: C_3  and  C_4 
REMARK    3  A    between atoms: C_3  and  C_6 
REMARK    4  A    between atoms: C_8  and  N_12 
REMARK       I    between atoms: N_12  and  C_13 
REMARK       I    between atoms: C_13  and  N_15 
REMARK    5  A    between atoms: N_15  and  C_16 
ROOT
HETATM    1  N   UNL     1     -41.134 -50.595  11.646  1.00  0.00    -0.338 N 
HETATM    2  C   UNL     1     -41.726 -49.345  11.679  1.00  0.00     0.321 C 
HETATM    3  O   UNL     1     -42.713 -49.122  12.373  1.00  0.00    -0.247 OA
HETATM    4  N   UNL     1     -41.086 -48.411  10.898  1.00  0.00    -0.304 N 
HETATM    5  H   UNL     1     -40.571 -50.807  10.833  1.00  0.00     0.164 HD
HETATM    6  H   UNL     1     -40.078 -48.519  10.846  1.00  0.00     0.171 HD
ENDROOT
BRANCH   1   7
HETATM    7  C   UNL     1     -41.825 -51.703  12.317  1.00  0.00     0.090 C 
HETATM    8  C   UNL     1     -42.190 -51.407  13.771  1.00  0.00     0.057 C 
HETATM    9  C   UNL     1     -42.944 -52.602  14.396  1.00  0.00     0.127 C 
HETATM   10  O   UNL     1     -42.145 -53.790  14.253  1.00  0.00    -0.385 OA
HETATM   11  C   UNL     1     -41.777 -54.123  12.916  1.00  0.00     0.170 C 
HETATM   12  C   UNL     1     -41.004 -52.991  12.254  1.00  0.00     0.051 C 
BRANCH   9  13
HETATM   13  C   UNL     1     -44.415 -52.817  13.904  1.00  0.00     0.014 C 
BRANCH  13  14
HETATM   14  C   UNL     1     -45.102 -53.967  14.688  1.00  0.00     0.002 C 
HETATM   15  C   UNL     1     -45.465 -55.177  13.828  1.00  0.00     0.005 C 
ENDBRANCH  13  14
BRANCH  13  16
HETATM   16  C   UNL     1     -45.252 -51.515  13.915  1.00  0.00     0.002 C 
HETATM   17  C   UNL     1     -46.659 -51.662  14.478  1.00  0.00     0.005 C 
ENDBRANCH  13  16
ENDBRANCH   9  13
ENDBRANCH   1   7
BRANCH   4  18
HETATM   18  C   UNL     1     -41.505 -47.090  10.737  1.00  0.00     0.111 C 
HETATM   19  C   UNL     1     -42.529 -46.642   9.975  1.00  0.00    -0.028 C 
HETATM   20  C   UNL     1     -43.338 -47.449   8.995  1.00  0.00     0.050 C 
HETATM   21  C   UNL     1     -42.919 -45.240  10.025  1.00  0.00     0.026 C 
HETATM   22  C   UNL     1     -42.222 -44.352  10.736  1.00  0.00     0.094 C 
HETATM   23  N   UNL     1     -41.108 -44.732  11.448  1.00  0.00    -0.327 N 
HETATM   24  C   UNL     1     -40.337 -43.719  12.141  1.00  0.00     0.159 C 
HETATM   25  C   UNL     1     -40.672 -46.059  11.490  1.00  0.00     0.274 C 
HETATM   26  O   UNL     1     -39.665 -46.432  12.096  1.00  0.00    -0.265 OA
ENDBRANCH   4  18
TORSDOF 5
ENDMDL
MODEL 6
REMARK VINA RESULT:      -5.6      2.300      8.124
REMARK  5 active torsions:
REMARK  status: ('A' for Active; 'I' for Inactive)
REMARK    1  A    between atoms: C_2  and  C_3 
REMARK    2  A    between atoms: C_3  and  C_4 
REMARK    3  A    between atoms: C_3  and  C_6 
REMARK    4  A    between atoms: C_8  and  N_12 
REMARK       I    between atoms: N_12  and  C_13 
REMARK       I    between atoms: C_13  and  N_15 
REMARK    5  A    between atoms: N_15  and  C_16 
ROOT
HETATM    1  N   UNL     1     -41.750 -51.224  11.701  1.00  0.00    -0.338 N 
HETATM    2  C   UNL     1     -41.897 -49.865  11.916  1.00  0.00     0.321 C 
HETATM    3  O   UNL     1     -42.172 -49.418  13.024  1.00  0.00    -0.247 OA
HETATM    4  N   UNL     1     -41.677 -49.104  10.791  1.00  0.00    -0.304 N 
HETATM    5  H   UNL     1     -41.867 -51.548  10.750  1.00  0.00     0.164 HD
HETATM    6  H   UNL     1     -40.967 -49.469  10.163  1.00  0.00     0.171 HD
ENDROOT
BRANCH   1   7
HETATM    7  C   UNL     1     -42.116 -52.137  12.791  1.00  0.00     0.090 C 
HETATM    8  C   UNL     1     -41.377 -53.473  12.747  1.00  0.00     0.057 C 
HETATM    9  C   UNL     1     -41.787 -54.362  13.941  1.00  0.00     0.127 C 
HETATM   10  O   UNL     1     -43.218 -54.517  13.945  1.00  0.00    -0.385 OA
HETATM   11  C   UNL     1     -43.965 -53.303  13.992  1.00  0.00     0.170 C 
HETATM   12  C   UNL     1     -43.624 -52.394  12.820  1.00  0.00     0.051 C 
BRANCH   9  13
HETATM   13  C   UNL     1     -41.239 -53.924  15.341  1.00  0.00     0.014 C 
BRANCH  13  14
HETATM   14  C   UNL     1     -41.693 -54.910  16.452  1.00  0.00     0.002 C 
HETATM   15  C   UNL     1     -41.640 -54.326  17.862  1.00  0.00     0.005 C 
ENDBRANCH  13  14
BRANCH  13  16
HETATM   16  C   UNL     1     -39.708 -53.698  15.346  1.00  0.00     0.002 C 
HETATM   17  C   UNL     1     -38.872 -54.964  15.217  1.00  0.00     0.005 C 
ENDBRANCH  13  16
ENDBRANCH   9  13
ENDBRANCH   1   7
BRANCH   4  18
HETATM   18  C   UNL     1     -41.793 -47.714  10.739  1.00  0.00     0.111 C 
HETATM   19  C   UNL     1     -42.849 -46.997  10.291  1.00  0.00    -0.028 C 
HETATM   20  C   UNL     1     -44.067 -47.537   9.589  1.00  0.00     0.050 C 
HETATM   21  C   UNL     1     -42.862 -45.548  10.432  1.00  0.00     0.026 C 
HETATM   22  C   UNL     1     -41.804 -44.889  10.906  1.00  0.00     0.094 C 
HETATM   23  N   UNL     1     -40.661 -45.559  11.279  1.00  0.00    -0.327 N 
HETATM   24  C   UNL     1     -39.508 -44.794  11.714  1.00  0.00     0.159 C 
HETATM   25  C   UNL     1     -40.562 -46.950  11.214  1.00  0.00     0.274 C 
HETATM   26  O   UNL     1     -39.548 -47.583  11.515  1.00  0.00    -0.265 OA
ENDBRANCH   4  18
TORSDOF 5
ENDMDL
MODEL 7
REMARK VINA RESULT:      -5.5      1.674      2.414
REMARK  5 active torsions:
REMARK  status: ('A' for Active; 'I' for Inactive)
REMARK    1  A    between atoms: C_2  and  C_3 
REMARK    2  A    between atoms: C_3  and  C_4 
REMARK    3  A    between atoms: C_3  and  C_6 
REMARK    4  A    between atoms: C_8  and  N_12 
REMARK       I    between atoms: N_12  and  C_13 
REMARK       I    between atoms: C_13  and  N_15 
REMARK    5  A    between atoms: N_15  and  C_16 
ROOT
HETATM    1  N   UNL     1     -41.730 -48.771  11.255  1.00  0.00    -0.338 N 
HETATM    2  C   UNL     1     -41.795 -49.728  12.252  1.00  0.00     0.321 C 
HETATM    3  O   UNL     1     -41.787 -49.419  13.439  1.00  0.00    -0.247 OA
HETATM    4  N   UNL     1     -41.897 -51.014  11.775  1.00  0.00    -0.304 N 
HETATM    5  H   UNL     1     -41.399 -49.081  10.351  1.00  0.00     0.164 HD
HETATM    6  H   UNL     1     -42.428 -51.107  10.913  1.00  0.00     0.171 HD
ENDROOT
BRANCH   1   7
HETATM    7  C   UNL     1     -41.460 -47.383  11.650  1.00  0.00     0.090 C 
HETATM    8  C   UNL     1     -42.660 -46.452  11.479  1.00  0.00     0.057 C 
HETATM    9  C   UNL     1     -42.311 -45.023  11.947  1.00  0.00     0.127 C 
HETATM   10  O   UNL     1     -41.145 -44.566  11.238  1.00  0.00    -0.385 OA
HETATM   11  C   UNL     1     -39.989 -45.390  11.364  1.00  0.00     0.170 C 
HETATM   12  C   UNL     1     -40.263 -46.810  10.889  1.00  0.00     0.051 C 
BRANCH   9  13
HETATM   13  C   UNL     1     -42.175 -44.822  13.494  1.00  0.00     0.014 C 
BRANCH  13  14
HETATM   14  C   UNL     1     -41.990 -43.322  13.848  1.00  0.00     0.002 C 
HETATM   15  C   UNL     1     -43.026 -42.399  13.209  1.00  0.00     0.005 C 
ENDBRANCH  13  14
BRANCH  13  16
HETATM   16  C   UNL     1     -43.329 -45.476  14.291  1.00  0.00     0.002 C 
HETATM   17  C   UNL     1     -42.887 -46.380  15.435  1.00  0.00     0.005 C 
ENDBRANCH  13  16
ENDBRANCH   9  13
ENDBRANCH   1   7
BRANCH   4  18
HETATM   18  C   UNL     1     -41.947 -52.156  12.575  1.00  0.00     0.111 C 
HETATM   19  C   UNL     1     -43.050 -52.758  13.076  1.00  0.00    -0.028 C 
HETATM   20  C   UNL     1     -44.460 -52.232  13.025  1.00  0.00     0.050 C 
HETATM   21  C   UNL     1     -42.935 -54.025  13.784  1.00  0.00     0.026 C 
HETATM   22  C   UNL     1     -41.744 -54.567  14.044  1.00  0.00     0.094 C 
HETATM   23  N   UNL     1     -40.581 -53.945  13.649  1.00  0.00    -0.327 N 
HETATM   24  C   UNL     1     -39.309 -54.532  14.023  1.00  0.00     0.159 C 
HETATM   25  C   UNL     1     -40.588 -52.745  12.936  1.00  0.00     0.274 C 
HETATM   26  O   UNL     1     -39.568 -52.146  12.588  1.00  0.00    -0.265 OA
ENDBRANCH   4  18
TORSDOF 5
ENDMDL
MODEL 8
REMARK VINA RESULT:      -5.4      1.853      8.131
REMARK  5 active torsions:
REMARK  status: ('A' for Active; 'I' for Inactive)
REMARK    1  A    between atoms: C_2  and  C_3 
REMARK    2  A    between atoms: C_3  and  C_4 
REMARK    3  A    between atoms: C_3  and  C_6 
REMARK    4  A    between atoms: C_8  and  N_12 
REMARK       I    between atoms: N_12  and  C_13 
REMARK       I    between atoms: C_13  and  N_15 
REMARK    5  A    between atoms: N_15  and  C_16 
ROOT
HETATM    1  N   UNL     1     -43.941 -50.121  12.650  1.00  0.00    -0.338 N 
HETATM    2  C   UNL     1     -43.011 -49.135  12.927  1.00  0.00     0.321 C 
HETATM    3  O   UNL     1     -42.091 -49.324  13.715  1.00  0.00    -0.247 OA
HETATM    4  N   UNL     1     -43.214 -47.973  12.219  1.00  0.00    -0.304 N 
HETATM    5  H   UNL     1     -44.833 -49.814  12.286  1.00  0.00     0.164 HD
HETATM    6  H   UNL     1     -43.587 -48.105  11.283  1.00  0.00     0.171 HD
ENDROOT
BRANCH   1   7
HETATM    7  C   UNL     1     -43.912 -51.342  13.465  1.00  0.00     0.090 C 
HETATM    8  C   UNL     1     -43.850 -52.628  12.641  1.00  0.00     0.057 C 
HETATM    9  C   UNL     1     -43.787 -53.864  13.565  1.00  0.00     0.127 C 
HETATM   10  O   UNL     1     -44.907 -53.834  14.469  1.00  0.00    -0.385 OA
HETATM   11  C   UNL     1     -45.016 -52.661  15.271  1.00  0.00     0.170 C 
HETATM   12  C   UNL     1     -45.111 -51.408  14.413  1.00  0.00     0.051 C 
BRANCH   9  13
HETATM   13  C   UNL     1     -42.431 -54.090  14.314  1.00  0.00     0.014 C 
BRANCH  13  14
HETATM   14  C   UNL     1     -42.495 -55.355  15.214  1.00  0.00     0.002 C 
HETATM   15  C   UNL     1     -42.406 -55.059  16.710  1.00  0.00     0.005 C 
ENDBRANCH  13  14
BRANCH  13  16
HETATM   16  C   UNL     1     -41.211 -54.106  13.363  1.00  0.00     0.002 C 
HETATM   17  C   UNL     1     -39.868 -54.333  14.045  1.00  0.00     0.005 C 
ENDBRANCH  13  16
ENDBRANCH   9  13
ENDBRANCH   1   7
BRANCH   4  18
HETATM   18  C   UNL     1     -42.434 -46.822  12.342  1.00  0.00     0.111 C 
HETATM   19  C   UNL     1     -42.482 -45.903  13.333  1.00  0.00    -0.028 C 
HETATM   20  C   UNL     1     -43.504 -45.824  14.435  1.00  0.00     0.050 C 
HETATM   21  C   UNL     1     -41.501 -44.827  13.381  1.00  0.00     0.026 C 
HETATM   22  C   UNL     1     -40.606 -44.663  12.405  1.00  0.00     0.094 C 
HETATM   23  N   UNL     1     -40.578 -45.507  11.319  1.00  0.00    -0.327 N 
HETATM   24  C   UNL     1     -39.640 -45.242  10.246  1.00  0.00     0.159 C 
HETATM   25  C   UNL     1     -41.455 -46.587  11.197  1.00  0.00     0.274 C 
HETATM   26  O   UNL     1     -41.477 -47.349  10.228  1.00  0.00    -0.265 OA
ENDBRANCH   4  18
TORSDOF 5
ENDMDL
MODEL 9
REMARK VINA RESULT:      -5.4      2.524      7.636
REMARK  5 active torsions:
REMARK  status: ('A' for Active; 'I' for Inactive)
REMARK    1  A    between atoms: C_2  and  C_3 
REMARK    2  A    between atoms: C_3  and  C_4 
REMARK    3  A    between atoms: C_3  and  C_6 
REMARK    4  A    between atoms: C_8  and  N_12 
REMARK       I    between atoms: N_12  and  C_13 
REMARK       I    between atoms: C_13  and  N_15 
REMARK    5  A    between atoms: N_15  and  C_16 
ROOT
HETATM    1  N   UNL     1     -43.673 -51.660  12.757  1.00  0.00    -0.338 N 
HETATM    2  C   UNL     1     -42.983 -50.469  12.892  1.00  0.00     0.321 C 
HETATM    3  O   UNL     1     -42.976 -49.850  13.951  1.00  0.00    -0.247 OA
HETATM    4  N   UNL     1     -42.308 -50.091  11.755  1.00  0.00    -0.304 N 
HETATM    5  H   UNL     1     -43.926 -51.932  11.816  1.00  0.00     0.164 HD
HETATM    6  H   UNL     1     -41.937 -50.860  11.205  1.00  0.00     0.171 HD
ENDROOT
BRANCH   1   7
HETATM    7  C   UNL     1     -44.554 -52.074  13.856  1.00  0.00     0.090 C 
HETATM    8  C   UNL     1     -44.661 -53.590  14.018  1.00  0.00     0.057 C 
HETATM    9  C   UNL     1     -45.573 -53.946  15.212  1.00  0.00     0.127 C 
HETATM   10  O   UNL     1     -46.853 -53.314  15.033  1.00  0.00    -0.385 OA
HETATM   11  C   UNL     1     -46.820 -51.896  14.882  1.00  0.00     0.170 C 
HETATM   12  C   UNL     1     -45.957 -51.484  13.699  1.00  0.00     0.051 C 
BRANCH   9  13
HETATM   13  C   UNL     1     -44.977 -53.676  16.635  1.00  0.00     0.014 C 
BRANCH  13  14
HETATM   14  C   UNL     1     -45.957 -54.137  17.748  1.00  0.00     0.002 C 
HETATM   15  C   UNL     1     -46.527 -52.994  18.586  1.00  0.00     0.005 C 
ENDBRANCH  13  14
BRANCH  13  16
HETATM   16  C   UNL     1     -43.559 -54.269  16.818  1.00  0.00     0.002 C 
HETATM   17  C   UNL     1     -42.937 -54.033  18.187  1.00  0.00     0.005 C 
ENDBRANCH  13  16
ENDBRANCH   9  13
ENDBRANCH   1   7
BRANCH   4  18
HETATM   18  C   UNL     1     -41.565 -48.916  11.626  1.00  0.00     0.111 C 
HETATM   19  C   UNL     1     -40.261 -48.735  11.932  1.00  0.00    -0.028 C 
HETATM   20  C   UNL     1     -39.362 -49.713  12.641  1.00  0.00     0.050 C 
HETATM   21  C   UNL     1     -39.601 -47.477  11.610  1.00  0.00     0.026 C 
HETATM   22  C   UNL     1     -40.283 -46.448  11.104  1.00  0.00     0.094 C 
HETATM   23  N   UNL     1     -41.636 -46.541  10.870  1.00  0.00    -0.327 N 
HETATM   24  C   UNL     1     -42.349 -45.371  10.394  1.00  0.00     0.159 C 
HETATM   25  C   UNL     1     -42.352 -47.715  11.115  1.00  0.00     0.274 C 
HETATM   26  O   UNL     1     -43.567 -47.827  10.941  1.00  0.00    -0.265 OA
ENDBRANCH   4  18
TORSDOF 5
ENDMDL
