MODEL 1
REMARK VINA RESULT:      -6.2      0.000      0.000
REMARK  4 active torsions:
REMARK  status: ('A' for Active; 'I' for Inactive)
REMARK    1  A    between atoms: C_2  and  C_4 
REMARK    2  A    between atoms: C_2  and  C_15 
REMARK    3  A    between atoms: C_4  and  N_5 
REMARK       I    between atoms: N_5  and  C_6 
REMARK    4  A    between atoms: C_6  and  C_8 
ROOT
HETATM    1  C   UNL     1     -45.648 -52.552  13.446  1.00  0.00     0.129 C 
HETATM    2  C   UNL     1     -45.367 -51.252  14.229  1.00  0.00     0.034 C 
HETATM    3  C   UNL     1     -46.392 -51.181  15.364  1.00  0.00     0.002 C 
HETATM    4  C   UNL     1     -47.282 -52.404  15.219  1.00  0.00     0.002 C 
HETATM    5  C   UNL     1     -46.431 -53.408  14.452  1.00  0.00     0.034 C 
HETATM    6  C   UNL     1     -46.468 -52.265  12.251  1.00  0.00     0.079 C 
HETATM    7  N   UNL     1     -47.136 -52.074  11.321  1.00  0.00    -0.196 NA
ENDROOT
BRANCH   1   8
HETATM    8  C   UNL     1     -44.359 -53.253  12.997  1.00  0.00     0.240 C 
HETATM    9  N   UNL     1     -43.179 -52.668  13.417  1.00  0.00    -0.359 N 
HETATM   10  H   UNL     1     -43.194 -51.728  13.793  1.00  0.00     0.162 HD
HETATM   11  O   UNL     1     -44.365 -54.276  12.314  1.00  0.00    -0.272 OA
BRANCH   9  12
HETATM   12  C   UNL     1     -41.881 -53.221  13.052  1.00  0.00     0.136 C 
BRANCH  12  13
HETATM   13  C   UNL     1     -40.671 -52.544  13.761  1.00  0.00    -0.004 C 
HETATM   14  C   UNL     1     -41.126 -51.943  15.114  1.00  0.00     0.021 C 
HETATM   15  C   UNL     1     -39.660 -53.665  14.120  1.00  0.00     0.021 C 
BRANCH  13  16
HETATM   16  C   UNL     1     -40.044 -51.486  12.833  1.00  0.00    -0.046 A 
HETATM   17  C   UNL     1     -38.664 -51.228  12.833  1.00  0.00     0.025 A 
HETATM   18  C   UNL     1     -38.140 -50.285  11.958  1.00  0.00     0.088 A 
HETATM   19  N   UNL     1     -38.878 -49.590  11.071  1.00  0.00    -0.375 N 
HETATM   20  C   UNL     1     -40.201 -49.841  11.071  1.00  0.00     0.088 A 
ATOM     21  HN  UNL     1     -38.458 -48.913  10.434  1.00  0.00     0.164 HD
HETATM   22  C   UNL     1     -40.816 -50.758  11.915  1.00  0.00     0.025 A 
ENDBRANCH  13  16
ENDBRANCH  12  13
ENDBRANCH   9  12
ENDBRANCH   1   8
TORSDOF 4
ENDMDL
MODEL 2
REMARK VINA RESULT:      -6.1      1.879      2.744
REMARK  4 active torsions:
REMARK  status: ('A' for Active; 'I' for Inactive)
REMARK    1  A    between atoms: C_2  and  C_4 
REMARK    2  A    between atoms: C_2  and  C_15 
REMARK    3  A    between atoms: C_4  and  N_5 
REMARK       I    between atoms: N_5  and  C_6 
REMARK    4  A    between atoms: C_6  and  C_8 
ROOT
HETATM    1  C   UNL     1     -44.854 -52.964  13.355  1.00  0.00     0.129 C 
HETATM    2  C   UNL     1     -45.808 -52.412  12.274  1.00  0.00     0.034 C 
HETATM    3  C   UNL     1     -46.875 -51.584  12.996  1.00  0.00     0.002 C 
HETATM    4  C   UNL     1     -46.568 -51.685  14.481  1.00  0.00     0.002 C 
HETATM    5  C   UNL     1     -45.082 -52.017  14.544  1.00  0.00     0.034 C 
HETATM    6  C   UNL     1     -45.226 -54.349  13.709  1.00  0.00     0.079 C 
HETATM    7  N   UNL     1     -45.513 -55.428  14.029  1.00  0.00    -0.196 NA
ENDROOT
BRANCH   1   8
HETATM    8  C   UNL     1     -43.388 -52.952  12.902  1.00  0.00     0.240 C 
HETATM    9  N   UNL     1     -42.894 -51.726  12.499  1.00  0.00    -0.359 N 
HETATM   10  H   UNL     1     -43.536 -50.965  12.312  1.00  0.00     0.162 HD
HETATM   11  O   UNL     1     -42.688 -53.962  12.900  1.00  0.00    -0.272 OA
BRANCH   9  12
HETATM   12  C   UNL     1     -41.523 -51.573  12.031  1.00  0.00     0.136 C 
BRANCH  12  13
HETATM   13  C   UNL     1     -40.713 -50.462  12.764  1.00  0.00    -0.004 C 
HETATM   14  C   UNL     1     -41.277 -50.259  14.192  1.00  0.00     0.021 C 
HETATM   15  C   UNL     1     -39.268 -50.996  12.957  1.00  0.00     0.021 C 
BRANCH  13  16
HETATM   16  C   UNL     1     -40.735 -49.163  11.937  1.00  0.00    -0.046 A 
HETATM   17  C   UNL     1     -41.808 -48.843  11.091  1.00  0.00     0.025 A 
HETATM   18  C   UNL     1     -41.797 -47.645  10.387  1.00  0.00     0.088 A 
HETATM   19  N   UNL     1     -40.811 -46.733  10.472  1.00  0.00    -0.375 N 
HETATM   20  C   UNL     1     -39.783 -47.040  11.286  1.00  0.00     0.088 A 
ATOM     21  HN  UNL     1     -40.841 -45.857   9.949  1.00  0.00     0.164 HD
HETATM   22  C   UNL     1     -39.702 -48.216  12.021  1.00  0.00     0.025 A 
ENDBRANCH  13  16
ENDBRANCH  12  13
ENDBRANCH   9  12
ENDBRANCH   1   8
TORSDOF 4
ENDMDL
MODEL 3
REMARK VINA RESULT:      -6.1      1.888      2.362
REMARK  4 active torsions:
REMARK  status: ('A' for Active; 'I' for Inactive)
REMARK    1  A    between atoms: C_2  and  C_4 
REMARK    2  A    between atoms: C_2  and  C_15 
REMARK    3  A    between atoms: C_4  and  N_5 
REMARK       I    between atoms: N_5  and  C_6 
REMARK    4  A    between atoms: C_6  and  C_8 
ROOT
HETATM    1  C   UNL     1     -44.708 -52.127  14.810  1.00  0.00     0.129 C 
HETATM    2  C   UNL     1     -45.326 -52.000  13.401  1.00  0.00     0.034 C 
HETATM    3  C   UNL     1     -46.762 -51.502  13.583  1.00  0.00     0.002 C 
HETATM    4  C   UNL     1     -46.989 -51.377  15.080  1.00  0.00     0.002 C 
HETATM    5  C   UNL     1     -45.593 -51.209  15.667  1.00  0.00     0.034 C 
HETATM    6  C   UNL     1     -44.789 -53.525  15.282  1.00  0.00     0.079 C 
HETATM    7  N   UNL     1     -44.865 -54.608  15.692  1.00  0.00    -0.196 NA
ENDROOT
BRANCH   1   8
HETATM    8  C   UNL     1     -43.240 -51.683  14.845  1.00  0.00     0.240 C 
HETATM    9  N   UNL     1     -42.307 -52.698  14.949  1.00  0.00    -0.359 N 
HETATM   10  H   UNL     1     -42.609 -53.629  15.211  1.00  0.00     0.162 HD
HETATM   11  O   UNL     1     -42.904 -50.503  14.777  1.00  0.00    -0.272 OA
BRANCH   9  12
HETATM   12  C   UNL     1     -40.878 -52.418  15.007  1.00  0.00     0.136 C 
BRANCH  12  13
HETATM   13  C   UNL     1     -40.088 -52.841  13.733  1.00  0.00    -0.004 C 
HETATM   14  C   UNL     1     -38.831 -53.648  14.141  1.00  0.00     0.021 C 
HETATM   15  C   UNL     1     -40.983 -53.831  12.942  1.00  0.00     0.021 C 
BRANCH  13  16
HETATM   16  C   UNL     1     -39.737 -51.596  12.895  1.00  0.00    -0.046 A 
HETATM   17  C   UNL     1     -38.452 -51.030  12.915  1.00  0.00     0.025 A 
HETATM   18  C   UNL     1     -38.175 -49.926  12.120  1.00  0.00     0.088 A 
HETATM   19  N   UNL     1     -39.069 -49.350  11.294  1.00  0.00    -0.375 N 
HETATM   20  C   UNL     1     -40.300 -49.895  11.275  1.00  0.00     0.088 A 
ATOM     21  HN  UNL     1     -38.827 -48.545  10.715  1.00  0.00     0.164 HD
HETATM   22  C   UNL     1     -40.673 -50.993  12.040  1.00  0.00     0.025 A 
ENDBRANCH  13  16
ENDBRANCH  12  13
ENDBRANCH   9  12
ENDBRANCH   1   8
TORSDOF 4
ENDMDL
MODEL 4
REMARK VINA RESULT:      -6.0      1.726      2.309
REMARK  4 active torsions:
REMARK  status: ('A' for Active; 'I' for Inactive)
REMARK    1  A    between atoms: C_2  and  C_4 
REMARK    2  A    between atoms: C_2  and  C_15 
REMARK    3  A    between atoms: C_4  and  N_5 
REMARK       I    between atoms: N_5  and  C_6 
REMARK    4  A    between atoms: C_6  and  C_8 
ROOT
HETATM    1  C   UNL     1     -44.884 -53.101  13.517  1.00  0.00     0.129 C 
HETATM    2  C   UNL     1     -45.831 -52.409  12.513  1.00  0.00     0.034 C 
HETATM    3  C   UNL     1     -46.827 -51.583  13.331  1.00  0.00     0.002 C 
HETATM    4  C   UNL     1     -46.488 -51.821  14.793  1.00  0.00     0.002 C 
HETATM    5  C   UNL     1     -45.023 -52.242  14.783  1.00  0.00     0.034 C 
HETATM    6  C   UNL     1     -45.329 -54.487  13.771  1.00  0.00     0.079 C 
HETATM    7  N   UNL     1     -45.671 -55.570  14.013  1.00  0.00    -0.196 NA
ENDROOT
BRANCH   1   8
HETATM    8  C   UNL     1     -43.433 -53.137  13.020  1.00  0.00     0.240 C 
HETATM    9  N   UNL     1     -42.615 -54.075  13.620  1.00  0.00    -0.359 N 
HETATM   10  H   UNL     1     -42.917 -54.528  14.474  1.00  0.00     0.162 HD
HETATM   11  O   UNL     1     -43.017 -52.388  12.138  1.00  0.00    -0.272 OA
BRANCH   9  12
HETATM   12  C   UNL     1     -41.211 -54.208  13.254  1.00  0.00     0.136 C 
BRANCH  12  13
HETATM   13  C   UNL     1     -40.211 -53.806  14.379  1.00  0.00    -0.004 C 
HETATM   14  C   UNL     1     -40.940 -53.793  15.746  1.00  0.00     0.021 C 
HETATM   15  C   UNL     1     -39.151 -54.935  14.481  1.00  0.00     0.021 C 
BRANCH  13  16
HETATM   16  C   UNL     1     -39.566 -52.446  14.048  1.00  0.00    -0.046 A 
HETATM   17  C   UNL     1     -39.814 -51.787  12.834  1.00  0.00     0.025 A 
HETATM   18  C   UNL     1     -39.233 -50.548  12.593  1.00  0.00     0.088 A 
HETATM   19  N   UNL     1     -38.438 -49.906  13.470  1.00  0.00    -0.375 N 
HETATM   20  C   UNL     1     -38.203 -50.540  14.635  1.00  0.00     0.088 A 
ATOM     21  HN  UNL     1     -38.037 -48.991  13.264  1.00  0.00     0.164 HD
HETATM   22  C   UNL     1     -38.732 -51.782  14.962  1.00  0.00     0.025 A 
ENDBRANCH  13  16
ENDBRANCH  12  13
ENDBRANCH   9  12
ENDBRANCH   1   8
TORSDOF 4
ENDMDL
MODEL 5
REMARK VINA RESULT:      -6.0      3.439      5.131
REMARK  4 active torsions:
REMARK  status: ('A' for Active; 'I' for Inactive)
REMARK    1  A    between atoms: C_2  and  C_4 
REMARK    2  A    between atoms: C_2  and  C_15 
REMARK    3  A    between atoms: C_4  and  N_5 
REMARK       I    between atoms: N_5  and  C_6 
REMARK    4  A    between atoms: C_6  and  C_8 
ROOT
HETATM    1  C   UNL     1     -43.270 -52.374  13.307  1.00  0.00     0.129 C 
HETATM    2  C   UNL     1     -44.439 -53.111  12.619  1.00  0.00     0.034 C 
HETATM    3  C   UNL     1     -44.582 -54.471  13.309  1.00  0.00     0.002 C 
HETATM    4  C   UNL     1     -43.486 -54.539  14.359  1.00  0.00     0.002 C 
HETATM    5  C   UNL     1     -43.157 -53.083  14.665  1.00  0.00     0.034 C 
HETATM    6  C   UNL     1     -42.028 -52.539  12.524  1.00  0.00     0.079 C 
HETATM    7  N   UNL     1     -41.031 -52.675  11.947  1.00  0.00    -0.196 NA
ENDROOT
BRANCH   1   8
HETATM    8  C   UNL     1     -43.546 -50.875  13.478  1.00  0.00     0.240 C 
HETATM    9  N   UNL     1     -42.915 -50.041  12.575  1.00  0.00    -0.359 N 
HETATM   10  H   UNL     1     -42.159 -50.402  12.005  1.00  0.00     0.162 HD
HETATM   11  O   UNL     1     -44.287 -50.434  14.355  1.00  0.00    -0.272 OA
BRANCH   9  12
HETATM   12  C   UNL     1     -43.078 -48.594  12.630  1.00  0.00     0.136 C 
BRANCH  12  13
HETATM   13  C   UNL     1     -42.366 -47.822  11.480  1.00  0.00    -0.004 C 
HETATM   14  C   UNL     1     -41.926 -46.424  11.982  1.00  0.00     0.021 C 
HETATM   15  C   UNL     1     -41.053 -48.583  11.157  1.00  0.00     0.021 C 
BRANCH  13  16
HETATM   16  C   UNL     1     -43.293 -47.736  10.252  1.00  0.00    -0.046 A 
HETATM   17  C   UNL     1     -42.789 -47.757   8.943  1.00  0.00     0.025 A 
HETATM   18  C   UNL     1     -43.666 -47.707   7.867  1.00  0.00     0.088 A 
HETATM   19  N   UNL     1     -45.006 -47.654   7.990  1.00  0.00    -0.375 N 
HETATM   20  C   UNL     1     -45.488 -47.636   9.248  1.00  0.00     0.088 A 
ATOM     21  HN  UNL     1     -45.621 -47.630   7.177  1.00  0.00     0.164 HD
HETATM   22  C   UNL     1     -44.689 -47.674  10.384  1.00  0.00     0.025 A 
ENDBRANCH  13  16
ENDBRANCH  12  13
ENDBRANCH   9  12
ENDBRANCH   1   8
TORSDOF 4
ENDMDL
MODEL 6
REMARK VINA RESULT:      -6.0      2.452      4.097
REMARK  4 active torsions:
REMARK  status: ('A' for Active; 'I' for Inactive)
REMARK    1  A    between atoms: C_2  and  C_4 
REMARK    2  A    between atoms: C_2  and  C_15 
REMARK    3  A    between atoms: C_4  and  N_5 
REMARK       I    between atoms: N_5  and  C_6 
REMARK    4  A    between atoms: C_6  and  C_8 
ROOT
HETATM    1  C   UNL     1     -45.626 -52.672  13.731  1.00  0.00     0.129 C 
HETATM    2  C   UNL     1     -45.160 -51.389  14.452  1.00  0.00     0.034 C 
HETATM    3  C   UNL     1     -46.225 -51.048  15.497  1.00  0.00     0.002 C 
HETATM    4  C   UNL     1     -47.316 -52.097  15.360  1.00  0.00     0.002 C 
HETATM    5  C   UNL     1     -46.619 -53.294  14.726  1.00  0.00     0.034 C 
HETATM    6  C   UNL     1     -46.300 -52.332  12.461  1.00  0.00     0.079 C 
HETATM    7  N   UNL     1     -46.859 -52.094  11.472  1.00  0.00    -0.196 NA
ENDROOT
BRANCH   1   8
HETATM    8  C   UNL     1     -44.464 -53.627  13.429  1.00  0.00     0.240 C 
HETATM    9  N   UNL     1     -43.535 -53.782  14.440  1.00  0.00    -0.359 N 
HETATM   10  H   UNL     1     -43.526 -53.131  15.215  1.00  0.00     0.162 HD
HETATM   11  O   UNL     1     -44.361 -54.226  12.360  1.00  0.00    -0.272 OA
BRANCH   9  12
HETATM   12  C   UNL     1     -42.374 -54.648  14.282  1.00  0.00     0.136 C 
BRANCH  12  13
HETATM   13  C   UNL     1     -41.012 -53.962  14.600  1.00  0.00    -0.004 C 
HETATM   14  C   UNL     1     -40.277 -53.620  13.281  1.00  0.00     0.021 C 
HETATM   15  C   UNL     1     -41.327 -52.598  15.270  1.00  0.00     0.021 C 
BRANCH  13  16
HETATM   16  C   UNL     1     -40.170 -54.868  15.520  1.00  0.00    -0.046 A 
HETATM   17  C   UNL     1     -40.765 -55.766  16.419  1.00  0.00     0.025 A 
HETATM   18  C   UNL     1     -39.964 -56.583  17.207  1.00  0.00     0.088 A 
HETATM   19  N   UNL     1     -38.618 -56.590  17.158  1.00  0.00    -0.375 N 
HETATM   20  C   UNL     1     -38.049 -55.729  16.293  1.00  0.00     0.088 A 
ATOM     21  HN  UNL     1     -38.061 -57.212  17.744  1.00  0.00     0.164 HD
HETATM   22  C   UNL     1     -38.767 -54.868  15.472  1.00  0.00     0.025 A 
ENDBRANCH  13  16
ENDBRANCH  12  13
ENDBRANCH   9  12
ENDBRANCH   1   8
TORSDOF 4
ENDMDL
MODEL 7
REMARK VINA RESULT:      -5.9      1.841      3.372
REMARK  4 active torsions:
REMARK  status: ('A' for Active; 'I' for Inactive)
REMARK    1  A    between atoms: C_2  and  C_4 
REMARK    2  A    between atoms: C_2  and  C_15 
REMARK    3  A    between atoms: C_4  and  N_5 
REMARK       I    between atoms: N_5  and  C_6 
REMARK    4  A    between atoms: C_6  and  C_8 
ROOT
HETATM    1  C   UNL     1     -44.894 -53.064  13.333  1.00  0.00     0.129 C 
HETATM    2  C   UNL     1     -45.773 -52.477  12.208  1.00  0.00     0.034 C 
HETATM    3  C   UNL     1     -46.799 -51.556  12.872  1.00  0.00     0.002 C 
HETATM    4  C   UNL     1     -46.545 -51.635  14.368  1.00  0.00     0.002 C 
HETATM    5  C   UNL     1     -45.089 -52.069  14.488  1.00  0.00     0.034 C 
HETATM    6  C   UNL     1     -45.374 -54.408  13.712  1.00  0.00     0.079 C 
HETATM    7  N   UNL     1     -45.746 -55.454  14.052  1.00  0.00    -0.196 NA
ENDROOT
BRANCH   1   8
HETATM    8  C   UNL     1     -43.418 -53.168  12.927  1.00  0.00     0.240 C 
HETATM    9  N   UNL     1     -42.829 -51.994  12.497  1.00  0.00    -0.359 N 
HETATM   10  H   UNL     1     -43.411 -51.199  12.263  1.00  0.00     0.162 HD
HETATM   11  O   UNL     1     -42.789 -54.223  12.984  1.00  0.00    -0.272 OA
BRANCH   9  12
HETATM   12  C   UNL     1     -41.437 -51.952  12.068  1.00  0.00     0.136 C 
BRANCH  12  13
HETATM   13  C   UNL     1     -40.456 -51.361  13.124  1.00  0.00    -0.004 C 
HETATM   14  C   UNL     1     -39.164 -50.872  12.422  1.00  0.00     0.021 C 
HETATM   15  C   UNL     1     -41.121 -50.088  13.711  1.00  0.00     0.021 C 
BRANCH  13  16
HETATM   16  C   UNL     1     -40.166 -52.408  14.216  1.00  0.00    -0.046 A 
HETATM   17  C   UNL     1     -39.380 -53.543  13.962  1.00  0.00     0.025 A 
HETATM   18  C   UNL     1     -39.122 -54.445  14.987  1.00  0.00     0.088 A 
HETATM   19  N   UNL     1     -39.570 -54.298  16.249  1.00  0.00    -0.375 N 
HETATM   20  C   UNL     1     -40.323 -53.208  16.491  1.00  0.00     0.088 A 
ATOM     21  HN  UNL     1     -39.351 -54.975  16.980  1.00  0.00     0.164 HD
HETATM   22  C   UNL     1     -40.641 -52.257  15.529  1.00  0.00     0.025 A 
ENDBRANCH  13  16
ENDBRANCH  12  13
ENDBRANCH   9  12
ENDBRANCH   1   8
TORSDOF 4
ENDMDL
MODEL 8
REMARK VINA RESULT:      -5.6      2.992      6.662
REMARK  4 active torsions:
REMARK  status: ('A' for Active; 'I' for Inactive)
REMARK    1  A    between atoms: C_2  and  C_4 
REMARK    2  A    between atoms: C_2  and  C_15 
REMARK    3  A    between atoms: C_4  and  N_5 
REMARK       I    between atoms: N_5  and  C_6 
REMARK    4  A    between atoms: C_6  and  C_8 
ROOT
HETATM    1  C   UNL     1     -41.221 -53.801  15.072  1.00  0.00     0.129 C 
HETATM    2  C   UNL     1     -40.288 -53.461  16.254  1.00  0.00     0.034 C 
HETATM    3  C   UNL     1     -38.957 -54.172  15.996  1.00  0.00     0.002 C 
HETATM    4  C   UNL     1     -39.126 -54.946  14.699  1.00  0.00     0.002 C 
HETATM    5  C   UNL     1     -40.244 -54.221  13.962  1.00  0.00     0.034 C 
HETATM    6  C   UNL     1     -42.118 -54.919  15.431  1.00  0.00     0.079 C 
HETATM    7  N   UNL     1     -42.817 -55.813  15.674  1.00  0.00    -0.196 NA
ENDROOT
BRANCH   1   8
HETATM    8  C   UNL     1     -42.078 -52.603  14.642  1.00  0.00     0.240 C 
HETATM    9  N   UNL     1     -43.256 -52.911  13.989  1.00  0.00    -0.359 N 
HETATM   10  H   UNL     1     -43.401 -53.849  13.635  1.00  0.00     0.162 HD
HETATM   11  O   UNL     1     -41.749 -51.440  14.868  1.00  0.00    -0.272 OA
BRANCH   9  12
HETATM   12  C   UNL     1     -44.158 -51.870  13.514  1.00  0.00     0.136 C 
BRANCH  12  13
HETATM   13  C   UNL     1     -45.661 -52.128  13.832  1.00  0.00    -0.004 C 
HETATM   14  C   UNL     1     -46.542 -51.572  12.685  1.00  0.00     0.021 C 
HETATM   15  C   UNL     1     -45.880 -53.664  13.820  1.00  0.00     0.021 C 
BRANCH  13  16
HETATM   16  C   UNL     1     -46.022 -51.511  15.197  1.00  0.00    -0.046 A 
HETATM   17  C   UNL     1     -45.115 -50.712  15.910  1.00  0.00     0.025 A 
HETATM   18  C   UNL     1     -45.497 -50.154  17.124  1.00  0.00     0.088 A 
HETATM   19  N   UNL     1     -46.715 -50.313  17.675  1.00  0.00    -0.375 N 
HETATM   20  C   UNL     1     -47.584 -51.078  16.988  1.00  0.00     0.088 A 
ATOM     21  HN  UNL     1     -46.965 -49.878  18.564  1.00  0.00     0.164 HD
HETATM   22  C   UNL     1     -47.291 -51.685  15.774  1.00  0.00     0.025 A 
ENDBRANCH  13  16
ENDBRANCH  12  13
ENDBRANCH   9  12
ENDBRANCH   1   8
TORSDOF 4
ENDMDL
MODEL 9
REMARK VINA RESULT:      -5.6      3.242      4.677
REMARK  4 active torsions:
REMARK  status: ('A' for Active; 'I' for Inactive)
REMARK    1  A    between atoms: C_2  and  C_4 
REMARK    2  A    between atoms: C_2  and  C_15 
REMARK    3  A    between atoms: C_4  and  N_5 
REMARK       I    between atoms: N_5  and  C_6 
REMARK    4  A    between atoms: C_6  and  C_8 
ROOT
HETATM    1  C   UNL     1     -41.474 -53.488  13.991  1.00  0.00     0.129 C 
HETATM    2  C   UNL     1     -42.579 -54.565  13.930  1.00  0.00     0.034 C 
HETATM    3  C   UNL     1     -42.924 -54.938  15.374  1.00  0.00     0.002 C 
HETATM    4  C   UNL     1     -42.006 -54.116  16.264  1.00  0.00     0.002 C 
HETATM    5  C   UNL     1     -41.619 -52.915  15.409  1.00  0.00     0.034 C 
HETATM    6  C   UNL     1     -40.144 -54.106  13.809  1.00  0.00     0.079 C 
HETATM    7  N   UNL     1     -39.084 -54.566  13.697  1.00  0.00    -0.196 NA
ENDROOT
BRANCH   1   8
HETATM    8  C   UNL     1     -41.659 -52.401  12.925  1.00  0.00     0.240 C 
HETATM    9  N   UNL     1     -40.527 -51.680  12.598  1.00  0.00    -0.359 N 
HETATM   10  H   UNL     1     -39.711 -51.733  13.197  1.00  0.00     0.162 HD
HETATM   11  O   UNL     1     -42.742 -52.184  12.383  1.00  0.00    -0.272 OA
BRANCH   9  12
HETATM   12  C   UNL     1     -40.563 -50.609  11.611  1.00  0.00     0.136 C 
BRANCH  12  13
HETATM   13  C   UNL     1     -39.901 -49.279  12.080  1.00  0.00    -0.004 C 
HETATM   14  C   UNL     1     -40.001 -49.159  13.621  1.00  0.00     0.021 C 
HETATM   15  C   UNL     1     -38.385 -49.383  11.766  1.00  0.00     0.021 C 
BRANCH  13  16
HETATM   16  C   UNL     1     -40.552 -48.084  11.357  1.00  0.00    -0.046 A 
HETATM   17  C   UNL     1     -39.947 -46.818  11.329  1.00  0.00     0.025 A 
HETATM   18  C   UNL     1     -40.558 -45.779  10.639  1.00  0.00     0.088 A 
HETATM   19  N   UNL     1     -41.716 -45.903   9.962  1.00  0.00    -0.375 N 
HETATM   20  C   UNL     1     -42.294 -47.119   9.990  1.00  0.00     0.088 A 
ATOM     21  HN  UNL     1     -42.131 -45.120   9.457  1.00  0.00     0.164 HD
HETATM   22  C   UNL     1     -41.763 -48.214  10.659  1.00  0.00     0.025 A 
ENDBRANCH  13  16
ENDBRANCH  12  13
ENDBRANCH   9  12
ENDBRANCH   1   8
TORSDOF 4
ENDMDL
