MODEL 1
REMARK VINA RESULT:      -6.5      0.000      0.000
REMARK  6 active torsions:
REMARK  status: ('A' for Active; 'I' for Inactive)
REMARK    1  A    between atoms: N_2  and  C_4 
REMARK    2  A    between atoms: N_6  and  C_7 
REMARK    3  A    between atoms: C_7  and  C_8 
REMARK       I    between atoms: C_8  and  N_10 
REMARK    4  A    between atoms: N_10  and  C_11 
REMARK    5  A    between atoms: C_11  and  C_12 
REMARK    6  A    between atoms: C_12  and  C_13 
ROOT
HETATM    1  C   UNL     1     -40.504 -48.636  11.554  1.00  0.00     0.230 C 
ENDROOT
BRANCH   1   2
HETATM    2  N   UNL     1     -41.274 -47.633  10.777  1.00  0.00    -0.355 N 
HETATM    3  C   UNL     1     -42.229 -48.035   9.841  1.00  0.00     0.131 A 
HETATM    4  C   UNL     1     -43.114 -47.196   9.272  1.00  0.00     0.168 A 
HETATM    5  C   UNL     1     -43.096 -45.761   9.613  1.00  0.00     0.207 A 
HETATM    6  C   UNL     1     -42.094 -45.356  10.640  1.00  0.00     0.074 A 
HETATM    7  O   UNL     1     -43.808 -44.906   9.102  1.00  0.00    -0.286 OA
HETATM    8  C   UNL     1     -41.273 -46.287  11.148  1.00  0.00     0.095 A 
BRANCH   4   9
HETATM    9  N   UNL     1     -44.078 -47.737   8.356  1.00  0.00    -0.110 N 
HETATM   10  O   UNL     1     -43.658 -48.153   7.265  1.00  0.00    -0.532 OA
HETATM   11  O   UNL     1     -45.255 -47.819   8.729  1.00  0.00    -0.532 OA
ENDBRANCH   4   9
ENDBRANCH   1   2
BRANCH   1  12
HETATM   12  C   UNL     1     -41.346 -49.848  11.952  1.00  0.00     0.235 C 
HETATM   13  O   UNL     1     -42.352 -49.732  12.652  1.00  0.00    -0.272 OA
HETATM   14  N   UNL     1     -40.921 -51.070  11.458  1.00  0.00    -0.359 N 
HETATM   15  H   UNL     1     -39.975 -51.161  11.104  1.00  0.00     0.162 HD
BRANCH  14  16
HETATM   16  C   UNL     1     -41.681 -52.260  11.792  1.00  0.00     0.127 C 
BRANCH  16  17
HETATM   17  C   UNL     1     -40.976 -53.215  12.760  1.00  0.00     0.053 C 
BRANCH  17  18
HETATM   18  C   UNL     1     -41.958 -53.927  13.645  1.00  0.00    -0.082 C 
HETATM   19  C   UNL     1     -43.262 -54.123  13.412  1.00  0.00    -0.024 C 
HETATM   20  C   UNL     1     -43.935 -54.817  14.551  1.00  0.00     0.027 C 
HETATM   21  C   UNL     1     -42.758 -55.344  15.366  1.00  0.00     0.008 C 
HETATM   22  C   UNL     1     -41.562 -54.475  14.983  1.00  0.00     0.034 C 
ENDBRANCH  17  18
ENDBRANCH  16  17
ENDBRANCH  14  16
ENDBRANCH   1  12
TORSDOF 6
ENDMDL
MODEL 2
REMARK VINA RESULT:      -6.1      2.362      2.826
REMARK  6 active torsions:
REMARK  status: ('A' for Active; 'I' for Inactive)
REMARK    1  A    between atoms: N_2  and  C_4 
REMARK    2  A    between atoms: N_6  and  C_7 
REMARK    3  A    between atoms: C_7  and  C_8 
REMARK       I    between atoms: C_8  and  N_10 
REMARK    4  A    between atoms: N_10  and  C_11 
REMARK    5  A    between atoms: C_11  and  C_12 
REMARK    6  A    between atoms: C_12  and  C_13 
ROOT
HETATM    1  C   UNL     1     -40.676 -48.772  11.612  1.00  0.00     0.230 C 
ENDROOT
BRANCH   1   2
HETATM    2  N   UNL     1     -41.379 -47.722  10.833  1.00  0.00    -0.355 N 
HETATM    3  C   UNL     1     -42.354 -48.063   9.893  1.00  0.00     0.131 A 
HETATM    4  C   UNL     1     -43.182 -47.172   9.320  1.00  0.00     0.168 A 
HETATM    5  C   UNL     1     -43.077 -45.740   9.663  1.00  0.00     0.207 A 
HETATM    6  C   UNL     1     -42.056 -45.399  10.694  1.00  0.00     0.074 A 
HETATM    7  O   UNL     1     -43.732 -44.843   9.149  1.00  0.00    -0.286 OA
HETATM    8  C   UNL     1     -41.296 -46.379  11.205  1.00  0.00     0.095 A 
BRANCH   4   9
HETATM    9  N   UNL     1     -44.174 -47.651   8.400  1.00  0.00    -0.110 N 
HETATM   10  O   UNL     1     -45.361 -47.589   8.758  1.00  0.00    -0.532 OA
HETATM   11  O   UNL     1     -43.799 -48.033   7.285  1.00  0.00    -0.532 OA
ENDBRANCH   4   9
ENDBRANCH   1   2
BRANCH   1  12
HETATM   12  C   UNL     1     -41.565 -49.413  12.676  1.00  0.00     0.235 C 
HETATM   13  O   UNL     1     -41.758 -48.875  13.766  1.00  0.00    -0.272 OA
HETATM   14  N   UNL     1     -42.155 -50.617  12.328  1.00  0.00    -0.359 N 
HETATM   15  H   UNL     1     -41.786 -51.143  11.542  1.00  0.00     0.162 HD
BRANCH  14  16
HETATM   16  C   UNL     1     -43.019 -51.276  13.290  1.00  0.00     0.127 C 
BRANCH  16  17
HETATM   17  C   UNL     1     -44.517 -51.057  13.056  1.00  0.00     0.053 C 
BRANCH  17  18
HETATM   18  C   UNL     1     -45.294 -51.150  14.337  1.00  0.00    -0.082 C 
HETATM   19  C   UNL     1     -44.839 -50.928  15.577  1.00  0.00    -0.024 C 
HETATM   20  C   UNL     1     -45.888 -51.180  16.611  1.00  0.00     0.027 C 
HETATM   21  C   UNL     1     -47.168 -51.237  15.783  1.00  0.00     0.008 C 
HETATM   22  C   UNL     1     -46.731 -51.577  14.360  1.00  0.00     0.034 C 
ENDBRANCH  17  18
ENDBRANCH  16  17
ENDBRANCH  14  16
ENDBRANCH   1  12
TORSDOF 6
ENDMDL
MODEL 3
REMARK VINA RESULT:      -6.0      2.099      2.756
REMARK  6 active torsions:
REMARK  status: ('A' for Active; 'I' for Inactive)
REMARK    1  A    between atoms: N_2  and  C_4 
REMARK    2  A    between atoms: N_6  and  C_7 
REMARK    3  A    between atoms: C_7  and  C_8 
REMARK       I    between atoms: C_8  and  N_10 
REMARK    4  A    between atoms: N_10  and  C_11 
REMARK    5  A    between atoms: C_11  and  C_12 
REMARK    6  A    between atoms: C_12  and  C_13 
ROOT
HETATM    1  C   UNL     1     -40.329 -49.956  11.093  1.00  0.00     0.230 C 
ENDROOT
BRANCH   1   2
HETATM    2  N   UNL     1     -40.820 -48.557  11.155  1.00  0.00    -0.355 N 
HETATM    3  C   UNL     1     -41.797 -48.104  10.266  1.00  0.00     0.131 A 
HETATM    4  C   UNL     1     -42.446 -46.934  10.405  1.00  0.00     0.168 A 
HETATM    5  C   UNL     1     -42.124 -46.040  11.535  1.00  0.00     0.207 A 
HETATM    6  C   UNL     1     -41.105 -46.557  12.493  1.00  0.00     0.074 A 
HETATM    7  O   UNL     1     -42.604 -44.928  11.713  1.00  0.00    -0.286 OA
HETATM    8  C   UNL     1     -40.535 -47.748  12.255  1.00  0.00     0.095 A 
BRANCH   4   9
HETATM    9  N   UNL     1     -43.464 -46.597   9.451  1.00  0.00    -0.110 N 
HETATM   10  O   UNL     1     -44.586 -47.105   9.610  1.00  0.00    -0.532 OA
HETATM   11  O   UNL     1     -43.188 -45.774   8.569  1.00  0.00    -0.532 OA
ENDBRANCH   4   9
ENDBRANCH   1   2
BRANCH   1  12
HETATM   12  C   UNL     1     -40.909 -50.836  12.200  1.00  0.00     0.235 C 
HETATM   13  O   UNL     1     -40.372 -50.921  13.304  1.00  0.00    -0.272 OA
HETATM   14  N   UNL     1     -42.082 -51.504  11.890  1.00  0.00    -0.359 N 
HETATM   15  H   UNL     1     -42.354 -51.608  10.919  1.00  0.00     0.162 HD
BRANCH  14  16
HETATM   16  C   UNL     1     -42.690 -52.351  12.900  1.00  0.00     0.127 C 
BRANCH  16  17
HETATM   17  C   UNL     1     -43.928 -53.120  12.426  1.00  0.00     0.053 C 
BRANCH  17  18
HETATM   18  C   UNL     1     -45.132 -52.793  13.260  1.00  0.00    -0.082 C 
HETATM   19  C   UNL     1     -45.831 -53.631  14.036  1.00  0.00    -0.024 C 
HETATM   20  C   UNL     1     -47.008 -52.961  14.666  1.00  0.00     0.027 C 
HETATM   21  C   UNL     1     -46.711 -51.480  14.444  1.00  0.00     0.008 C 
HETATM   22  C   UNL     1     -45.740 -51.422  13.266  1.00  0.00     0.034 C 
ENDBRANCH  17  18
ENDBRANCH  16  17
ENDBRANCH  14  16
ENDBRANCH   1  12
TORSDOF 6
ENDMDL
MODEL 4
REMARK VINA RESULT:      -6.0      2.805      3.495
REMARK  6 active torsions:
REMARK  status: ('A' for Active; 'I' for Inactive)
REMARK    1  A    between atoms: N_2  and  C_4 
REMARK    2  A    between atoms: N_6  and  C_7 
REMARK    3  A    between atoms: C_7  and  C_8 
REMARK       I    between atoms: C_8  and  N_10 
REMARK    4  A    between atoms: N_10  and  C_11 
REMARK    5  A    between atoms: C_11  and  C_12 
REMARK    6  A    between atoms: C_12  and  C_13 
ROOT
HETATM    1  C   UNL     1     -41.290 -48.339  12.317  1.00  0.00     0.230 C 
ENDROOT
BRANCH   1   2
HETATM    2  N   UNL     1     -41.833 -47.418  11.287  1.00  0.00    -0.355 N 
HETATM    3  C   UNL     1     -42.552 -47.912  10.196  1.00  0.00     0.131 A 
HETATM    4  C   UNL     1     -43.258 -47.135   9.356  1.00  0.00     0.168 A 
HETATM    5  C   UNL     1     -43.286 -45.672   9.550  1.00  0.00     0.207 A 
HETATM    6  C   UNL     1     -42.543 -45.167  10.739  1.00  0.00     0.074 A 
HETATM    7  O   UNL     1     -43.838 -44.873   8.804  1.00  0.00    -0.286 OA
HETATM    8  C   UNL     1     -41.886 -46.042  11.514  1.00  0.00     0.095 A 
BRANCH   4   9
HETATM    9  N   UNL     1     -43.994 -47.764   8.296  1.00  0.00    -0.110 N 
HETATM   10  O   UNL     1     -45.219 -47.894   8.451  1.00  0.00    -0.532 OA
HETATM   11  O   UNL     1     -43.382 -48.079   7.268  1.00  0.00    -0.532 OA
ENDBRANCH   4   9
ENDBRANCH   1   2
BRANCH   1  12
HETATM   12  C   UNL     1     -39.766 -48.437  12.278  1.00  0.00     0.235 C 
HETATM   13  O   UNL     1     -39.053 -47.674  12.929  1.00  0.00    -0.272 OA
HETATM   14  N   UNL     1     -39.245 -49.449  11.488  1.00  0.00    -0.359 N 
HETATM   15  H   UNL     1     -39.833 -49.887  10.787  1.00  0.00     0.162 HD
BRANCH  14  16
HETATM   16  C   UNL     1     -37.804 -49.603  11.412  1.00  0.00     0.127 C 
BRANCH  16  17
HETATM   17  C   UNL     1     -37.265 -50.883  12.060  1.00  0.00     0.053 C 
BRANCH  17  18
HETATM   18  C   UNL     1     -37.702 -51.001  13.492  1.00  0.00    -0.082 C 
HETATM   19  C   UNL     1     -37.279 -50.269  14.530  1.00  0.00    -0.024 C 
HETATM   20  C   UNL     1     -37.891 -50.717  15.817  1.00  0.00     0.027 C 
HETATM   21  C   UNL     1     -39.040 -51.607  15.351  1.00  0.00     0.008 C 
HETATM   22  C   UNL     1     -38.676 -52.051  13.935  1.00  0.00     0.034 C 
ENDBRANCH  17  18
ENDBRANCH  16  17
ENDBRANCH  14  16
ENDBRANCH   1  12
TORSDOF 6
ENDMDL
MODEL 5
REMARK VINA RESULT:      -6.0      1.949      2.928
REMARK  6 active torsions:
REMARK  status: ('A' for Active; 'I' for Inactive)
REMARK    1  A    between atoms: N_2  and  C_4 
REMARK    2  A    between atoms: N_6  and  C_7 
REMARK    3  A    between atoms: C_7  and  C_8 
REMARK       I    between atoms: C_8  and  N_10 
REMARK    4  A    between atoms: N_10  and  C_11 
REMARK    5  A    between atoms: C_11  and  C_12 
REMARK    6  A    between atoms: C_12  and  C_13 
ROOT
HETATM    1  C   UNL     1     -39.531 -49.316  11.928  1.00  0.00     0.230 C 
ENDROOT
BRANCH   1   2
HETATM    2  N   UNL     1     -40.432 -48.241  11.444  1.00  0.00    -0.355 N 
HETATM    3  C   UNL     1     -39.969 -46.931  11.304  1.00  0.00     0.131 A 
HETATM    4  C   UNL     1     -40.651 -45.963  10.667  1.00  0.00     0.168 A 
HETATM    5  C   UNL     1     -41.975 -46.254  10.084  1.00  0.00     0.207 A 
HETATM    6  C   UNL     1     -42.438 -47.666  10.212  1.00  0.00     0.074 A 
HETATM    7  O   UNL     1     -42.705 -45.431   9.548  1.00  0.00    -0.286 OA
HETATM    8  C   UNL     1     -41.661 -48.547  10.859  1.00  0.00     0.095 A 
BRANCH   4   9
HETATM    9  N   UNL     1     -40.050 -44.665  10.548  1.00  0.00    -0.110 N 
HETATM   10  O   UNL     1     -39.508 -44.384   9.467  1.00  0.00    -0.532 OA
HETATM   11  O   UNL     1     -40.163 -43.881  11.499  1.00  0.00    -0.532 OA
ENDBRANCH   4   9
ENDBRANCH   1   2
BRANCH   1  12
HETATM   12  C   UNL     1     -40.183 -50.201  12.990  1.00  0.00     0.235 C 
HETATM   13  O   UNL     1     -40.660 -49.726  14.020  1.00  0.00    -0.272 OA
HETATM   14  N   UNL     1     -40.222 -51.556  12.708  1.00  0.00    -0.359 N 
HETATM   15  H   UNL     1     -39.614 -51.933  11.990  1.00  0.00     0.162 HD
BRANCH  14  16
HETATM   16  C   UNL     1     -40.836 -52.452  13.672  1.00  0.00     0.127 C 
BRANCH  16  17
HETATM   17  C   UNL     1     -41.316 -53.784  13.088  1.00  0.00     0.053 C 
BRANCH  17  18
HETATM   18  C   UNL     1     -42.777 -54.007  13.352  1.00  0.00    -0.082 C 
HETATM   19  C   UNL     1     -43.808 -53.574  12.615  1.00  0.00    -0.024 C 
HETATM   20  C   UNL     1     -45.123 -53.934  13.225  1.00  0.00     0.027 C 
HETATM   21  C   UNL     1     -44.734 -54.977  14.270  1.00  0.00     0.008 C 
HETATM   22  C   UNL     1     -43.256 -54.735  14.572  1.00  0.00     0.034 C 
ENDBRANCH  17  18
ENDBRANCH  16  17
ENDBRANCH  14  16
ENDBRANCH   1  12
TORSDOF 6
ENDMDL
MODEL 6
REMARK VINA RESULT:      -5.9      3.737      6.844
REMARK  6 active torsions:
REMARK  status: ('A' for Active; 'I' for Inactive)
REMARK    1  A    between atoms: N_2  and  C_4 
REMARK    2  A    between atoms: N_6  and  C_7 
REMARK    3  A    between atoms: C_7  and  C_8 
REMARK       I    between atoms: C_8  and  N_10 
REMARK    4  A    between atoms: N_10  and  C_11 
REMARK    5  A    between atoms: C_11  and  C_12 
REMARK    6  A    between atoms: C_12  and  C_13 
ROOT
HETATM    1  C   UNL     1     -41.454 -52.889  12.104  1.00  0.00     0.230 C 
ENDROOT
BRANCH   1   2
HETATM    2  N   UNL     1     -42.688 -53.189  12.872  1.00  0.00    -0.355 N 
HETATM    3  C   UNL     1     -43.895 -52.562  12.555  1.00  0.00     0.131 A 
HETATM    4  C   UNL     1     -45.086 -52.944  13.049  1.00  0.00     0.168 A 
HETATM    5  C   UNL     1     -45.164 -54.072  13.997  1.00  0.00     0.207 A 
HETATM    6  C   UNL     1     -43.872 -54.752  14.296  1.00  0.00     0.074 A 
HETATM    7  O   UNL     1     -46.184 -54.453  14.557  1.00  0.00    -0.286 OA
HETATM    8  C   UNL     1     -42.748 -54.287  13.731  1.00  0.00     0.095 A 
BRANCH   4   9
HETATM    9  N   UNL     1     -46.264 -52.249  12.613  1.00  0.00    -0.110 N 
HETATM   10  O   UNL     1     -46.746 -51.404  13.384  1.00  0.00    -0.532 OA
HETATM   11  O   UNL     1     -46.691 -52.482  11.475  1.00  0.00    -0.532 OA
ENDBRANCH   4   9
ENDBRANCH   1   2
BRANCH   1  12
HETATM   12  C   UNL     1     -40.918 -51.483  12.372  1.00  0.00     0.235 C 
HETATM   13  O   UNL     1     -40.911 -51.000  13.504  1.00  0.00    -0.272 OA
HETATM   14  N   UNL     1     -40.423 -50.804  11.271  1.00  0.00    -0.359 N 
HETATM   15  H   UNL     1     -40.667 -51.121  10.339  1.00  0.00     0.162 HD
BRANCH  14  16
HETATM   16  C   UNL     1     -39.891 -49.467  11.457  1.00  0.00     0.127 C 
BRANCH  16  17
HETATM   17  C   UNL     1     -38.363 -49.394  11.536  1.00  0.00     0.053 C 
BRANCH  17  18
HETATM   18  C   UNL     1     -37.884 -49.385  12.959  1.00  0.00    -0.082 C 
HETATM   19  C   UNL     1     -37.801 -48.329  13.778  1.00  0.00    -0.024 C 
HETATM   20  C   UNL     1     -37.217 -48.693  15.104  1.00  0.00     0.027 C 
HETATM   21  C   UNL     1     -37.293 -50.218  15.097  1.00  0.00     0.008 C 
HETATM   22  C   UNL     1     -37.371 -50.625  13.627  1.00  0.00     0.034 C 
ENDBRANCH  17  18
ENDBRANCH  16  17
ENDBRANCH  14  16
ENDBRANCH   1  12
TORSDOF 6
ENDMDL
MODEL 7
REMARK VINA RESULT:      -5.9      3.776      7.728
REMARK  6 active torsions:
REMARK  status: ('A' for Active; 'I' for Inactive)
REMARK    1  A    between atoms: N_2  and  C_4 
REMARK    2  A    between atoms: N_6  and  C_7 
REMARK    3  A    between atoms: C_7  and  C_8 
REMARK       I    between atoms: C_8  and  N_10 
REMARK    4  A    between atoms: N_10  and  C_11 
REMARK    5  A    between atoms: C_11  and  C_12 
REMARK    6  A    between atoms: C_12  and  C_13 
ROOT
HETATM    1  C   UNL     1     -41.854 -52.564  11.971  1.00  0.00     0.230 C 
ENDROOT
BRANCH   1   2
HETATM    2  N   UNL     1     -42.179 -53.307  13.214  1.00  0.00    -0.355 N 
HETATM    3  C   UNL     1     -43.492 -53.693  13.492  1.00  0.00     0.131 A 
HETATM    4  C   UNL     1     -43.826 -54.552  14.471  1.00  0.00     0.168 A 
HETATM    5  C   UNL     1     -42.778 -55.128  15.336  1.00  0.00     0.207 A 
HETATM    6  C   UNL     1     -41.380 -54.734  15.003  1.00  0.00     0.074 A 
HETATM    7  O   UNL     1     -42.981 -55.861  16.295  1.00  0.00    -0.286 OA
HETATM    8  C   UNL     1     -41.171 -53.878  13.991  1.00  0.00     0.095 A 
BRANCH   4   9
HETATM    9  N   UNL     1     -45.208 -54.907  14.630  1.00  0.00    -0.110 N 
HETATM   10  O   UNL     1     -45.677 -55.742  13.839  1.00  0.00    -0.532 OA
HETATM   11  O   UNL     1     -45.830 -54.416  15.579  1.00  0.00    -0.532 OA
ENDBRANCH   4   9
ENDBRANCH   1   2
BRANCH   1  12
HETATM   12  C   UNL     1     -41.192 -51.214  12.245  1.00  0.00     0.235 C 
HETATM   13  O   UNL     1     -41.334 -50.633  13.321  1.00  0.00    -0.272 OA
HETATM   14  N   UNL     1     -40.410 -50.704  11.222  1.00  0.00    -0.359 N 
HETATM   15  H   UNL     1     -40.515 -51.075  10.284  1.00  0.00     0.162 HD
BRANCH  14  16
HETATM   16  C   UNL     1     -39.747 -49.429  11.421  1.00  0.00     0.127 C 
BRANCH  16  17
HETATM   17  C   UNL     1     -38.229 -49.523  11.608  1.00  0.00     0.053 C 
BRANCH  17  18
HETATM   18  C   UNL     1     -37.854 -49.538  13.062  1.00  0.00    -0.082 C 
HETATM   19  C   UNL     1     -37.531 -50.606  13.803  1.00  0.00    -0.024 C 
HETATM   20  C   UNL     1     -37.278 -50.241  15.229  1.00  0.00     0.027 C 
HETATM   21  C   UNL     1     -37.140 -48.723  15.169  1.00  0.00     0.008 C 
HETATM   22  C   UNL     1     -37.856 -48.289  13.891  1.00  0.00     0.034 C 
ENDBRANCH  17  18
ENDBRANCH  16  17
ENDBRANCH  14  16
ENDBRANCH   1  12
TORSDOF 6
ENDMDL
MODEL 8
REMARK VINA RESULT:      -5.6      2.567      3.509
REMARK  6 active torsions:
REMARK  status: ('A' for Active; 'I' for Inactive)
REMARK    1  A    between atoms: N_2  and  C_4 
REMARK    2  A    between atoms: N_6  and  C_7 
REMARK    3  A    between atoms: C_7  and  C_8 
REMARK       I    between atoms: C_8  and  N_10 
REMARK    4  A    between atoms: N_10  and  C_11 
REMARK    5  A    between atoms: C_11  and  C_12 
REMARK    6  A    between atoms: C_12  and  C_13 
ROOT
HETATM    1  C   UNL     1     -40.639 -49.455  11.046  1.00  0.00     0.230 C 
ENDROOT
BRANCH   1   2
HETATM    2  N   UNL     1     -41.249 -48.105  10.964  1.00  0.00    -0.355 N 
HETATM    3  C   UNL     1     -40.451 -46.959  10.971  1.00  0.00     0.131 A 
HETATM    4  C   UNL     1     -40.909 -45.729  10.675  1.00  0.00     0.168 A 
HETATM    5  C   UNL     1     -42.333 -45.533  10.337  1.00  0.00     0.207 A 
HETATM    6  C   UNL     1     -43.161 -46.772  10.300  1.00  0.00     0.074 A 
HETATM    7  O   UNL     1     -42.863 -44.451  10.122  1.00  0.00    -0.286 OA
HETATM    8  C   UNL     1     -42.588 -47.946  10.602  1.00  0.00     0.095 A 
BRANCH   4   9
HETATM    9  N   UNL     1     -39.981 -44.635  10.671  1.00  0.00    -0.110 N 
HETATM   10  O   UNL     1     -39.711 -44.119   9.574  1.00  0.00    -0.532 OA
HETATM   11  O   UNL     1     -39.557 -44.226  11.759  1.00  0.00    -0.532 OA
ENDBRANCH   4   9
ENDBRANCH   1   2
BRANCH   1  12
HETATM   12  C   UNL     1     -41.172 -50.274  12.221  1.00  0.00     0.235 C 
HETATM   13  O   UNL     1     -40.522 -50.418  13.255  1.00  0.00    -0.272 OA
HETATM   14  N   UNL     1     -42.436 -50.818  12.055  1.00  0.00    -0.359 N 
HETATM   15  H   UNL     1     -42.828 -50.890  11.123  1.00  0.00     0.162 HD
BRANCH  14  16
HETATM   16  C   UNL     1     -43.006 -51.601  13.136  1.00  0.00     0.127 C 
BRANCH  16  17
HETATM   17  C   UNL     1     -44.045 -50.857  13.982  1.00  0.00     0.053 C 
BRANCH  17  18
HETATM   18  C   UNL     1     -45.152 -51.771  14.422  1.00  0.00    -0.082 C 
HETATM   19  C   UNL     1     -46.361 -51.417  14.875  1.00  0.00    -0.024 C 
HETATM   20  C   UNL     1     -47.176 -52.601  15.280  1.00  0.00     0.027 C 
HETATM   21  C   UNL     1     -46.408 -53.765  14.660  1.00  0.00     0.008 C 
HETATM   22  C   UNL     1     -44.982 -53.260  14.450  1.00  0.00     0.034 C 
ENDBRANCH  17  18
ENDBRANCH  16  17
ENDBRANCH  14  16
ENDBRANCH   1  12
TORSDOF 6
ENDMDL
MODEL 9
REMARK VINA RESULT:      -5.6      5.938      8.174
REMARK  6 active torsions:
REMARK  status: ('A' for Active; 'I' for Inactive)
REMARK    1  A    between atoms: N_2  and  C_4 
REMARK    2  A    between atoms: N_6  and  C_7 
REMARK    3  A    between atoms: C_7  and  C_8 
REMARK       I    between atoms: C_8  and  N_10 
REMARK    4  A    between atoms: N_10  and  C_11 
REMARK    5  A    between atoms: C_11  and  C_12 
REMARK    6  A    between atoms: C_12  and  C_13 
ROOT
HETATM    1  C   UNL     1     -43.844 -55.332  14.400  1.00  0.00     0.230 C 
ENDROOT
BRANCH   1   2
HETATM    2  N   UNL     1     -42.618 -54.509  14.246  1.00  0.00    -0.355 N 
HETATM    3  C   UNL     1     -41.469 -54.795  14.987  1.00  0.00     0.131 A 
HETATM    4  C   UNL     1     -40.267 -54.245  14.740  1.00  0.00     0.168 A 
HETATM    5  C   UNL     1     -40.114 -53.265  13.647  1.00  0.00     0.207 A 
HETATM    6  C   UNL     1     -41.342 -52.999  12.845  1.00  0.00     0.074 A 
HETATM    7  O   UNL     1     -39.085 -52.656  13.386  1.00  0.00    -0.286 OA
HETATM    8  C   UNL     1     -42.483 -53.620  13.179  1.00  0.00     0.095 A 
BRANCH   4   9
HETATM    9  N   UNL     1     -39.149 -54.653  15.542  1.00  0.00    -0.110 N 
HETATM   10  O   UNL     1     -38.867 -53.950  16.527  1.00  0.00    -0.532 OA
HETATM   11  O   UNL     1     -38.575 -55.709  15.250  1.00  0.00    -0.532 OA
ENDBRANCH   4   9
ENDBRANCH   1   2
BRANCH   1  12
HETATM   12  C   UNL     1     -45.034 -54.528  14.922  1.00  0.00     0.235 C 
HETATM   13  O   UNL     1     -45.183 -54.301  16.122  1.00  0.00    -0.272 OA
HETATM   14  N   UNL     1     -45.911 -54.053  13.961  1.00  0.00    -0.359 N 
HETATM   15  H   UNL     1     -45.898 -54.458  13.031  1.00  0.00     0.162 HD
BRANCH  14  16
HETATM   16  C   UNL     1     -47.059 -53.274  14.388  1.00  0.00     0.127 C 
BRANCH  16  17
HETATM   17  C   UNL     1     -46.817 -51.762  14.445  1.00  0.00     0.053 C 
BRANCH  17  18
HETATM   18  C   UNL     1     -46.875 -51.249  15.855  1.00  0.00    -0.082 C 
HETATM   19  C   UNL     1     -47.954 -51.172  16.645  1.00  0.00    -0.024 C 
HETATM   20  C   UNL     1     -47.638 -50.546  17.964  1.00  0.00     0.027 C 
HETATM   21  C   UNL     1     -46.113 -50.583  17.997  1.00  0.00     0.008 C 
HETATM   22  C   UNL     1     -45.666 -50.687  16.540  1.00  0.00     0.034 C 
ENDBRANCH  17  18
ENDBRANCH  16  17
ENDBRANCH  14  16
ENDBRANCH   1  12
TORSDOF 6
ENDMDL
