MODEL 1
REMARK VINA RESULT:      -6.3      0.000      0.000
REMARK  5 active torsions:
REMARK  status: ('A' for Active; 'I' for Inactive)
REMARK    1  A    between atoms: C_2  and  C_3 
REMARK    2  A    between atoms: C_3  and  C_4 
REMARK    3  A    between atoms: C_4  and  N_5 
REMARK       I    between atoms: N_5  and  C_6 
REMARK       I    between atoms: C_6  and  N_8 
REMARK    4  A    between atoms: N_8  and  C_9 
REMARK    5  A    between atoms: C_11  and  O_12 
ROOT
HETATM    1  N   UNL     1     -40.362 -49.605  10.653  1.00  0.00    -0.342 N 
HETATM    2  C   UNL     1     -41.512 -48.845  10.745  1.00  0.00     0.321 C 
HETATM    3  O   UNL     1     -42.086 -48.629  11.807  1.00  0.00    -0.247 OA
HETATM    4  N   UNL     1     -41.876 -48.309   9.534  1.00  0.00    -0.295 N 
HETATM    5  H   UNL     1     -40.294 -50.192   9.832  1.00  0.00     0.164 HD
HETATM    6  H   UNL     1     -41.089 -48.034   8.964  1.00  0.00     0.172 HD
ENDROOT
BRANCH   4   7
HETATM    7  C   UNL     1     -42.942 -47.399   9.436  1.00  0.00     0.114 A 
HETATM    8  C   UNL     1     -42.763 -46.037   9.532  1.00  0.00     0.104 A 
HETATM    9  C   UNL     1     -43.900 -45.274   9.404  1.00  0.00     0.146 A 
HETATM   10  N   UNL     1     -45.115 -45.790   9.156  1.00  0.00    -0.333 N 
HETATM   11  C   UNL     1     -45.171 -47.123   9.074  1.00  0.00     0.183 A 
ATOM     12  HN  UNL     1     -45.941 -45.203   9.037  1.00  0.00     0.168 HD
HETATM   13  N   UNL     1     -44.146 -47.970   9.250  1.00  0.00    -0.338 N 
ATOM     14  HN  UNL     1     -44.272 -48.982   9.243  1.00  0.00     0.168 HD
BRANCH   9  15
HETATM   15  O   UNL     1     -43.755 -43.911   9.556  1.00  0.00    -0.341 OA
HETATM   16  C   UNL     1     -43.035 -43.553  10.734  1.00  0.00     0.211 C 
ENDBRANCH   9  15
ENDBRANCH   4   7
BRANCH   1  17
HETATM   17  C   UNL     1     -39.820 -50.098  11.902  1.00  0.00     0.133 C 
BRANCH  17  18
HETATM   18  C   UNL     1     -38.359 -49.803  12.187  1.00  0.00    -0.025 A 
HETATM   19  C   UNL     1     -37.348 -50.937  12.230  1.00  0.00     0.012 A 
HETATM   20  C   UNL     1     -37.300 -49.935  11.110  1.00  0.00     0.012 A 
BRANCH  18  21
HETATM   21  C   UNL     1     -38.173 -48.705  13.234  1.00  0.00     0.006 C 
HETATM   22  C   UNL     1     -39.446 -48.388  14.007  1.00  0.00     0.006 C 
ENDBRANCH  18  21
ENDBRANCH  17  18
ENDBRANCH   1  17
TORSDOF 5
ENDMDL
MODEL 2
REMARK VINA RESULT:      -6.3      1.290      2.134
REMARK  5 active torsions:
REMARK  status: ('A' for Active; 'I' for Inactive)
REMARK    1  A    between atoms: C_2  and  C_3 
REMARK    2  A    between atoms: C_3  and  C_4 
REMARK    3  A    between atoms: C_4  and  N_5 
REMARK       I    between atoms: N_5  and  C_6 
REMARK       I    between atoms: C_6  and  N_8 
REMARK    4  A    between atoms: N_8  and  C_9 
REMARK    5  A    between atoms: C_11  and  O_12 
ROOT
HETATM    1  N   UNL     1     -40.439 -49.550  10.686  1.00  0.00    -0.342 N 
HETATM    2  C   UNL     1     -41.557 -48.741  10.739  1.00  0.00     0.321 C 
HETATM    3  O   UNL     1     -42.092 -48.407  11.791  1.00  0.00    -0.247 OA
HETATM    4  N   UNL     1     -41.938 -48.302   9.494  1.00  0.00    -0.295 N 
HETATM    5  H   UNL     1     -40.416 -50.210   9.921  1.00  0.00     0.164 HD
HETATM    6  H   UNL     1     -41.158 -48.109   8.881  1.00  0.00     0.172 HD
ENDROOT
BRANCH   4   7
HETATM    7  C   UNL     1     -42.972 -47.364   9.343  1.00  0.00     0.114 A 
HETATM    8  C   UNL     1     -44.279 -47.734   9.115  1.00  0.00     0.104 A 
HETATM    9  C   UNL     1     -45.182 -46.703   9.001  1.00  0.00     0.146 A 
HETATM   10  N   UNL     1     -44.851 -45.409   9.143  1.00  0.00    -0.333 N 
HETATM   11  C   UNL     1     -43.556 -45.165   9.370  1.00  0.00     0.183 A 
ATOM     12  HN  UNL     1     -45.542 -44.661   9.082  1.00  0.00     0.168 HD
HETATM   13  N   UNL     1     -42.578 -46.081   9.431  1.00  0.00    -0.338 N 
ATOM     14  HN  UNL     1     -41.598 -45.820   9.538  1.00  0.00     0.168 HD
BRANCH   9  15
HETATM   15  O   UNL     1     -46.486 -47.046   8.713  1.00  0.00    -0.341 OA
HETATM   16  C   UNL     1     -46.694 -48.456   8.659  1.00  0.00     0.211 C 
ENDBRANCH   9  15
ENDBRANCH   4   7
BRANCH   1  17
HETATM   17  C   UNL     1     -39.878 -49.949  11.960  1.00  0.00     0.133 C 
BRANCH  17  18
HETATM   18  C   UNL     1     -38.402 -49.680  12.182  1.00  0.00    -0.025 A 
HETATM   19  C   UNL     1     -37.418 -50.836  12.248  1.00  0.00     0.012 A 
HETATM   20  C   UNL     1     -37.383 -49.893  11.078  1.00  0.00     0.012 A 
BRANCH  18  21
HETATM   21  C   UNL     1     -38.153 -48.536  13.165  1.00  0.00     0.006 C 
HETATM   22  C   UNL     1     -39.388 -48.151  13.966  1.00  0.00     0.006 C 
ENDBRANCH  18  21
ENDBRANCH  17  18
ENDBRANCH   1  17
TORSDOF 5
ENDMDL
MODEL 3
REMARK VINA RESULT:      -5.9      2.170      7.197
REMARK  5 active torsions:
REMARK  status: ('A' for Active; 'I' for Inactive)
REMARK    1  A    between atoms: C_2  and  C_3 
REMARK    2  A    between atoms: C_3  and  C_4 
REMARK    3  A    between atoms: C_4  and  N_5 
REMARK       I    between atoms: N_5  and  C_6 
REMARK       I    between atoms: C_6  and  N_8 
REMARK    4  A    between atoms: N_8  and  C_9 
REMARK    5  A    between atoms: C_11  and  O_12 
ROOT
HETATM    1  N   UNL     1     -43.016 -48.724  10.878  1.00  0.00    -0.342 N 
HETATM    2  C   UNL     1     -41.656 -48.716  11.122  1.00  0.00     0.321 C 
HETATM    3  O   UNL     1     -40.984 -47.691  11.123  1.00  0.00    -0.247 OA
HETATM    4  N   UNL     1     -41.180 -49.966  11.437  1.00  0.00    -0.295 N 
HETATM    5  H   UNL     1     -43.356 -49.512  10.344  1.00  0.00     0.164 HD
HETATM    6  H   UNL     1     -41.826 -50.515  11.986  1.00  0.00     0.172 HD
ENDROOT
BRANCH   4   7
HETATM    7  C   UNL     1     -39.849 -50.150  11.847  1.00  0.00     0.114 A 
HETATM    8  C   UNL     1     -39.518 -50.592  13.110  1.00  0.00     0.104 A 
HETATM    9  C   UNL     1     -38.174 -50.736  13.359  1.00  0.00     0.146 A 
HETATM   10  N   UNL     1     -37.221 -50.514  12.440  1.00  0.00    -0.333 N 
HETATM   11  C   UNL     1     -37.656 -50.097  11.246  1.00  0.00     0.183 A 
ATOM     12  HN  UNL     1     -36.230 -50.654  12.639  1.00  0.00     0.168 HD
HETATM   13  N   UNL     1     -38.931 -49.855  10.910  1.00  0.00    -0.338 N 
ATOM     14  HN  UNL     1     -39.188 -49.470  10.000  1.00  0.00     0.168 HD
BRANCH   9  15
HETATM   15  O   UNL     1     -37.816 -51.118  14.635  1.00  0.00    -0.341 OA
HETATM   16  C   UNL     1     -38.888 -51.715  15.362  1.00  0.00     0.211 C 
ENDBRANCH   9  15
ENDBRANCH   4   7
BRANCH   1  17
HETATM   17  C   UNL     1     -43.636 -47.431  10.674  1.00  0.00     0.133 C 
BRANCH  17  18
HETATM   18  C   UNL     1     -44.208 -47.147   9.299  1.00  0.00    -0.025 A 
HETATM   19  C   UNL     1     -43.475 -46.216   8.347  1.00  0.00     0.012 A 
HETATM   20  C   UNL     1     -43.553 -47.686   8.041  1.00  0.00     0.012 A 
BRANCH  18  21
HETATM   21  C   UNL     1     -45.732 -47.026   9.308  1.00  0.00     0.006 C 
HETATM   22  C   UNL     1     -46.439 -48.290   8.840  1.00  0.00     0.006 C 
ENDBRANCH  18  21
ENDBRANCH  17  18
ENDBRANCH   1  17
TORSDOF 5
ENDMDL
MODEL 4
REMARK VINA RESULT:      -5.8      4.452      6.726
REMARK  5 active torsions:
REMARK  status: ('A' for Active; 'I' for Inactive)
REMARK    1  A    between atoms: C_2  and  C_3 
REMARK    2  A    between atoms: C_3  and  C_4 
REMARK    3  A    between atoms: C_4  and  N_5 
REMARK       I    between atoms: N_5  and  C_6 
REMARK       I    between atoms: C_6  and  N_8 
REMARK    4  A    between atoms: N_8  and  C_9 
REMARK    5  A    between atoms: C_11  and  O_12 
ROOT
HETATM    1  N   UNL     1     -40.814 -50.725  11.193  1.00  0.00    -0.342 N 
HETATM    2  C   UNL     1     -41.746 -51.206  12.093  1.00  0.00     0.321 C 
HETATM    3  O   UNL     1     -42.180 -50.539  13.025  1.00  0.00    -0.247 OA
HETATM    4  N   UNL     1     -42.175 -52.470  11.767  1.00  0.00    -0.295 N 
HETATM    5  H   UNL     1     -40.125 -51.397  10.882  1.00  0.00     0.164 HD
HETATM    6  H   UNL     1     -42.253 -52.623  10.772  1.00  0.00     0.172 HD
ENDROOT
BRANCH   4   7
HETATM    7  C   UNL     1     -43.218 -53.086  12.479  1.00  0.00     0.114 A 
HETATM    8  C   UNL     1     -42.993 -54.065  13.421  1.00  0.00     0.104 A 
HETATM    9  C   UNL     1     -44.113 -54.564  14.044  1.00  0.00     0.146 A 
HETATM   10  N   UNL     1     -45.356 -54.115  13.806  1.00  0.00    -0.333 N 
HETATM   11  C   UNL     1     -45.456 -53.156  12.879  1.00  0.00     0.183 A 
ATOM     12  HN  UNL     1     -46.171 -54.480  14.300  1.00  0.00     0.168 HD
HETATM   13  N   UNL     1     -44.448 -52.644  12.160  1.00  0.00    -0.338 N 
ATOM     14  HN  UNL     1     -44.603 -51.962  11.416  1.00  0.00     0.168 HD
BRANCH   9  15
HETATM   15  O   UNL     1     -43.919 -55.589  14.947  1.00  0.00    -0.341 OA
HETATM   16  C   UNL     1     -42.709 -55.456  15.691  1.00  0.00     0.211 C 
ENDBRANCH   9  15
ENDBRANCH   4   7
BRANCH   1  17
HETATM   17  C   UNL     1     -40.405 -49.348  11.372  1.00  0.00     0.133 C 
BRANCH  17  18
HETATM   18  C   UNL     1     -39.146 -49.098  12.180  1.00  0.00    -0.025 A 
HETATM   19  C   UNL     1     -38.977 -47.796  12.945  1.00  0.00     0.012 A 
HETATM   20  C   UNL     1     -39.169 -49.083  13.697  1.00  0.00     0.012 A 
BRANCH  18  21
HETATM   21  C   UNL     1     -37.890 -49.637  11.496  1.00  0.00     0.006 C 
HETATM   22  C   UNL     1     -37.302 -50.857  12.190  1.00  0.00     0.006 C 
ENDBRANCH  18  21
ENDBRANCH  17  18
ENDBRANCH   1  17
TORSDOF 5
ENDMDL
MODEL 5
REMARK VINA RESULT:      -5.7      4.760      7.418
REMARK  5 active torsions:
REMARK  status: ('A' for Active; 'I' for Inactive)
REMARK    1  A    between atoms: C_2  and  C_3 
REMARK    2  A    between atoms: C_3  and  C_4 
REMARK    3  A    between atoms: C_4  and  N_5 
REMARK       I    between atoms: N_5  and  C_6 
REMARK       I    between atoms: C_6  and  N_8 
REMARK    4  A    between atoms: N_8  and  C_9 
REMARK    5  A    between atoms: C_11  and  O_12 
ROOT
HETATM    1  N   UNL     1     -43.748 -53.223  11.954  1.00  0.00    -0.342 N 
HETATM    2  C   UNL     1     -42.875 -52.188  12.232  1.00  0.00     0.321 C 
HETATM    3  O   UNL     1     -43.194 -51.203  12.888  1.00  0.00    -0.247 OA
HETATM    4  N   UNL     1     -41.610 -52.437  11.757  1.00  0.00    -0.295 N 
HETATM    5  H   UNL     1     -43.656 -53.633  11.035  1.00  0.00     0.164 HD
HETATM    6  H   UNL     1     -41.339 -53.408  11.826  1.00  0.00     0.172 HD
ENDROOT
BRANCH   4   7
HETATM    7  C   UNL     1     -40.544 -51.570  12.049  1.00  0.00     0.114 A 
HETATM    8  C   UNL     1     -39.682 -51.785  13.102  1.00  0.00     0.104 A 
HETATM    9  C   UNL     1     -38.680 -50.856  13.254  1.00  0.00     0.146 A 
HETATM   10  N   UNL     1     -38.496 -49.820  12.419  1.00  0.00    -0.333 N 
HETATM   11  C   UNL     1     -39.386 -49.714  11.427  1.00  0.00     0.183 A 
ATOM     12  HN  UNL     1     -37.729 -49.158  12.535  1.00  0.00     0.168 HD
HETATM   13  N   UNL     1     -40.441 -50.515  11.221  1.00  0.00    -0.338 N 
ATOM     14  HN  UNL     1     -41.123 -50.336  10.484  1.00  0.00     0.168 HD
BRANCH   9  15
HETATM   15  O   UNL     1     -37.842 -51.017  14.338  1.00  0.00    -0.341 OA
HETATM   16  C   UNL     1     -37.353 -49.780  14.854  1.00  0.00     0.211 C 
ENDBRANCH   9  15
ENDBRANCH   4   7
BRANCH   1  17
HETATM   17  C   UNL     1     -45.070 -53.116  12.535  1.00  0.00     0.133 C 
BRANCH  17  18
HETATM   18  C   UNL     1     -45.302 -53.814  13.861  1.00  0.00    -0.025 A 
HETATM   19  C   UNL     1     -45.670 -55.289  13.892  1.00  0.00     0.012 A 
HETATM   20  C   UNL     1     -44.324 -54.845  14.396  1.00  0.00     0.012 A 
BRANCH  18  21
HETATM   21  C   UNL     1     -46.021 -52.927  14.877  1.00  0.00     0.006 C 
HETATM   22  C   UNL     1     -46.555 -51.635  14.275  1.00  0.00     0.006 C 
ENDBRANCH  18  21
ENDBRANCH  17  18
ENDBRANCH   1  17
TORSDOF 5
ENDMDL
MODEL 6
REMARK VINA RESULT:      -5.6      4.691      6.821
REMARK  5 active torsions:
REMARK  status: ('A' for Active; 'I' for Inactive)
REMARK    1  A    between atoms: C_2  and  C_3 
REMARK    2  A    between atoms: C_3  and  C_4 
REMARK    3  A    between atoms: C_4  and  N_5 
REMARK       I    between atoms: N_5  and  C_6 
REMARK       I    between atoms: C_6  and  N_8 
REMARK    4  A    between atoms: N_8  and  C_9 
REMARK    5  A    between atoms: C_11  and  O_12 
ROOT
HETATM    1  N   UNL     1     -43.704 -52.466  13.385  1.00  0.00    -0.342 N 
HETATM    2  C   UNL     1     -43.091 -51.247  13.169  1.00  0.00     0.321 C 
HETATM    3  O   UNL     1     -43.223 -50.290  13.923  1.00  0.00    -0.247 OA
HETATM    4  N   UNL     1     -42.268 -51.270  12.069  1.00  0.00    -0.295 N 
HETATM    5  H   UNL     1     -44.032 -52.940  12.555  1.00  0.00     0.164 HD
HETATM    6  H   UNL     1     -41.785 -52.149  11.947  1.00  0.00     0.172 HD
ENDROOT
BRANCH   4   7
HETATM    7  C   UNL     1     -41.452 -50.172  11.753  1.00  0.00     0.114 A 
HETATM    8  C   UNL     1     -40.091 -50.176  11.965  1.00  0.00     0.104 A 
HETATM    9  C   UNL     1     -39.424 -49.032  11.594  1.00  0.00     0.146 A 
HETATM   10  N   UNL     1     -40.024 -47.978  11.016  1.00  0.00    -0.333 N 
HETATM   11  C   UNL     1     -41.346 -48.087  10.850  1.00  0.00     0.183 A 
ATOM     12  HN  UNL     1     -39.505 -47.150  10.723  1.00  0.00     0.168 HD
HETATM   13  N   UNL     1     -42.110 -49.119  11.235  1.00  0.00    -0.338 N 
ATOM     14  HN  UNL     1     -43.126 -49.107  11.141  1.00  0.00     0.168 HD
BRANCH   9  15
HETATM   15  O   UNL     1     -38.070 -48.989  11.853  1.00  0.00    -0.341 OA
HETATM   16  C   UNL     1     -37.365 -50.112  11.328  1.00  0.00     0.211 C 
ENDBRANCH   9  15
ENDBRANCH   4   7
BRANCH   1  17
HETATM   17  C   UNL     1     -44.482 -52.583  14.601  1.00  0.00     0.133 C 
BRANCH  17  18
HETATM   18  C   UNL     1     -45.992 -52.589  14.459  1.00  0.00    -0.025 A 
HETATM   19  C   UNL     1     -46.811 -51.417  14.974  1.00  0.00     0.012 A 
HETATM   20  C   UNL     1     -46.701 -51.657  13.494  1.00  0.00     0.012 A 
BRANCH  18  21
HETATM   21  C   UNL     1     -46.599 -53.975  14.681  1.00  0.00     0.006 C 
HETATM   22  C   UNL     1     -45.816 -55.091  14.005  1.00  0.00     0.006 C 
ENDBRANCH  18  21
ENDBRANCH  17  18
ENDBRANCH   1  17
TORSDOF 5
ENDMDL
MODEL 7
REMARK VINA RESULT:      -5.5      4.128      5.573
REMARK  5 active torsions:
REMARK  status: ('A' for Active; 'I' for Inactive)
REMARK    1  A    between atoms: C_2  and  C_3 
REMARK    2  A    between atoms: C_3  and  C_4 
REMARK    3  A    between atoms: C_4  and  N_5 
REMARK       I    between atoms: N_5  and  C_6 
REMARK       I    between atoms: C_6  and  N_8 
REMARK    4  A    between atoms: N_8  and  C_9 
REMARK    5  A    between atoms: C_11  and  O_12 
ROOT
HETATM    1  N   UNL     1     -43.304 -51.545  12.770  1.00  0.00    -0.342 N 
HETATM    2  C   UNL     1     -43.028 -50.197  12.652  1.00  0.00     0.321 C 
HETATM    3  O   UNL     1     -43.405 -49.364  13.469  1.00  0.00    -0.247 OA
HETATM    4  N   UNL     1     -42.226 -49.925  11.570  1.00  0.00    -0.295 N 
HETATM    5  H   UNL     1     -43.496 -52.026  11.901  1.00  0.00     0.164 HD
HETATM    6  H   UNL     1     -41.531 -50.638  11.397  1.00  0.00     0.172 HD
ENDROOT
BRANCH   4   7
HETATM    7  C   UNL     1     -41.722 -48.633  11.349  1.00  0.00     0.114 A 
HETATM    8  C   UNL     1     -42.335 -47.734  10.503  1.00  0.00     0.104 A 
HETATM    9  C   UNL     1     -41.731 -46.504  10.400  1.00  0.00     0.146 A 
HETATM   10  N   UNL     1     -40.640 -46.151  11.098  1.00  0.00    -0.333 N 
HETATM   11  C   UNL     1     -40.134 -47.098  11.895  1.00  0.00     0.183 A 
ATOM     12  HN  UNL     1     -40.224 -45.222  11.027  1.00  0.00     0.168 HD
HETATM   13  N   UNL     1     -40.594 -48.351  12.025  1.00  0.00    -0.338 N 
ATOM     14  HN  UNL     1     -40.117 -49.047  12.599  1.00  0.00     0.168 HD
BRANCH   9  15
HETATM   15  O   UNL     1     -42.292 -45.608   9.512  1.00  0.00    -0.341 OA
HETATM   16  C   UNL     1     -43.396 -46.152   8.792  1.00  0.00     0.211 C 
ENDBRANCH   9  15
ENDBRANCH   4   7
BRANCH   1  17
HETATM   17  C   UNL     1     -44.027 -51.949  13.958  1.00  0.00     0.133 C 
BRANCH  17  18
HETATM   18  C   UNL     1     -45.476 -52.358  13.781  1.00  0.00    -0.025 A 
HETATM   19  C   UNL     1     -46.587 -51.498  14.362  1.00  0.00     0.012 A 
HETATM   20  C   UNL     1     -46.413 -51.585  12.871  1.00  0.00     0.012 A 
BRANCH  18  21
HETATM   21  C   UNL     1     -45.679 -53.870  13.887  1.00  0.00     0.006 C 
HETATM   22  C   UNL     1     -44.414 -54.620  14.279  1.00  0.00     0.006 C 
ENDBRANCH  18  21
ENDBRANCH  17  18
ENDBRANCH   1  17
TORSDOF 5
ENDMDL
MODEL 8
REMARK VINA RESULT:      -5.4      3.419      4.617
REMARK  5 active torsions:
REMARK  status: ('A' for Active; 'I' for Inactive)
REMARK    1  A    between atoms: C_2  and  C_3 
REMARK    2  A    between atoms: C_3  and  C_4 
REMARK    3  A    between atoms: C_4  and  N_5 
REMARK       I    between atoms: N_5  and  C_6 
REMARK       I    between atoms: C_6  and  N_8 
REMARK    4  A    between atoms: N_8  and  C_9 
REMARK    5  A    between atoms: C_11  and  O_12 
ROOT
HETATM    1  N   UNL     1     -41.842 -51.511  12.328  1.00  0.00    -0.342 N 
HETATM    2  C   UNL     1     -41.917 -50.136  12.212  1.00  0.00     0.321 C 
HETATM    3  O   UNL     1     -42.209 -49.401  13.149  1.00  0.00    -0.247 OA
HETATM    4  N   UNL     1     -41.554 -49.702  10.960  1.00  0.00    -0.295 N 
HETATM    5  H   UNL     1     -42.172 -52.033  11.528  1.00  0.00     0.164 HD
HETATM    6  H   UNL     1     -40.803 -50.240  10.551  1.00  0.00     0.172 HD
ENDROOT
BRANCH   4   7
HETATM    7  C   UNL     1     -41.437 -48.332  10.675  1.00  0.00     0.114 A 
HETATM    8  C   UNL     1     -42.392 -47.640   9.962  1.00  0.00     0.104 A 
HETATM    9  C   UNL     1     -42.143 -46.301   9.775  1.00  0.00     0.146 A 
HETATM   10  N   UNL     1     -41.072 -45.667  10.279  1.00  0.00    -0.333 N 
HETATM   11  C   UNL     1     -40.215 -46.434  10.960  1.00  0.00     0.183 A 
ATOM     12  HN  UNL     1     -40.921 -44.666  10.150  1.00  0.00     0.168 HD
HETATM   13  N   UNL     1     -40.316 -47.758  11.148  1.00  0.00    -0.338 N 
ATOM     14  HN  UNL     1     -39.589 -48.296  11.620  1.00  0.00     0.168 HD
BRANCH   9  15
HETATM   15  O   UNL     1     -43.055 -45.600   9.012  1.00  0.00    -0.341 OA
HETATM   16  C   UNL     1     -44.329 -46.235   8.940  1.00  0.00     0.211 C 
ENDBRANCH   9  15
ENDBRANCH   4   7
BRANCH   1  17
HETATM   17  C   UNL     1     -42.071 -52.053  13.651  1.00  0.00     0.133 C 
BRANCH  17  18
HETATM   18  C   UNL     1     -42.986 -53.258  13.756  1.00  0.00    -0.025 A 
HETATM   19  C   UNL     1     -42.487 -54.541  14.401  1.00  0.00     0.012 A 
HETATM   20  C   UNL     1     -43.539 -53.719  15.092  1.00  0.00     0.012 A 
BRANCH  18  21
HETATM   21  C   UNL     1     -43.873 -53.433  12.524  1.00  0.00     0.006 C 
HETATM   22  C   UNL     1     -45.286 -52.901  12.718  1.00  0.00     0.006 C 
ENDBRANCH  18  21
ENDBRANCH  17  18
ENDBRANCH   1  17
TORSDOF 5
ENDMDL
MODEL 9
REMARK VINA RESULT:      -5.4      1.912      2.344
REMARK  5 active torsions:
REMARK  status: ('A' for Active; 'I' for Inactive)
REMARK    1  A    between atoms: C_2  and  C_3 
REMARK    2  A    between atoms: C_3  and  C_4 
REMARK    3  A    between atoms: C_4  and  N_5 
REMARK       I    between atoms: N_5  and  C_6 
REMARK       I    between atoms: C_6  and  N_8 
REMARK    4  A    between atoms: N_8  and  C_9 
REMARK    5  A    between atoms: C_11  and  O_12 
ROOT
HETATM    1  N   UNL     1     -40.509 -50.894  11.472  1.00  0.00    -0.342 N 
HETATM    2  C   UNL     1     -41.464 -49.897  11.416  1.00  0.00     0.321 C 
HETATM    3  O   UNL     1     -42.381 -49.804  12.224  1.00  0.00    -0.247 OA
HETATM    4  N   UNL     1     -41.212 -48.996  10.409  1.00  0.00    -0.295 N 
HETATM    5  H   UNL     1     -40.202 -51.252  10.577  1.00  0.00     0.164 HD
HETATM    6  H   UNL     1     -40.229 -48.813  10.271  1.00  0.00     0.172 HD
ENDROOT
BRANCH   4   7
HETATM    7  C   UNL     1     -41.990 -47.835  10.266  1.00  0.00     0.114 A 
HETATM    8  C   UNL     1     -41.489 -46.574  10.502  1.00  0.00     0.104 A 
HETATM    9  C   UNL     1     -42.368 -45.535  10.307  1.00  0.00     0.146 A 
HETATM   10  N   UNL     1     -43.627 -45.701   9.872  1.00  0.00    -0.333 N 
HETATM   11  C   UNL     1     -44.006 -46.966   9.667  1.00  0.00     0.183 A 
ATOM     12  HN  UNL     1     -44.254 -44.913   9.708  1.00  0.00     0.168 HD
HETATM   13  N   UNL     1     -43.262 -48.060   9.888  1.00  0.00    -0.338 N 
ATOM     14  HN  UNL     1     -43.637 -49.003   9.778  1.00  0.00     0.168 HD
BRANCH   9  15
HETATM   15  O   UNL     1     -41.906 -44.267  10.595  1.00  0.00    -0.341 OA
HETATM   16  C   UNL     1     -40.693 -44.271  11.345  1.00  0.00     0.211 C 
ENDBRANCH   9  15
ENDBRANCH   4   7
BRANCH   1  17
HETATM   17  C   UNL     1     -40.609 -51.813  12.587  1.00  0.00     0.133 C 
BRANCH  17  18
HETATM   18  C   UNL     1     -39.471 -51.811  13.589  1.00  0.00    -0.025 A 
HETATM   19  C   UNL     1     -39.739 -52.155  15.046  1.00  0.00     0.012 A 
HETATM   20  C   UNL     1     -38.943 -53.101  14.189  1.00  0.00     0.012 A 
BRANCH  18  21
HETATM   21  C   UNL     1     -38.471 -50.682  13.344  1.00  0.00     0.006 C 
HETATM   22  C   UNL     1     -37.212 -51.139  12.622  1.00  0.00     0.006 C 
ENDBRANCH  18  21
ENDBRANCH  17  18
ENDBRANCH   1  17
TORSDOF 5
ENDMDL
