MODEL 1
REMARK VINA RESULT:      -5.8      0.000      0.000
REMARK  5 active torsions:
REMARK  status: ('A' for Active; 'I' for Inactive)
REMARK    1  A    between atoms: C_2  and  C_3 
REMARK    2  A    between atoms: C_2  and  N_10 
REMARK    3  A    between atoms: C_3  and  N_4 
REMARK       I    between atoms: N_10  and  C_11 
REMARK       I    between atoms: C_11  and  N_13 
REMARK    4  A    between atoms: C_16  and  C_17 
REMARK    5  A    between atoms: C_17  and  C_18 
REMARK       I    between atoms: C_18  and  N_20 
ROOT
HETATM    1  N   UNL     1     -39.308 -50.777  12.901  1.00  0.00    -0.337 N 
HETATM    2  C   UNL     1     -39.425 -52.100  13.242  1.00  0.00     0.318 C 
HETATM    3  O   UNL     1     -38.439 -52.781  13.510  1.00  0.00    -0.247 OA
HETATM    4  N   UNL     1     -40.720 -52.588  13.272  1.00  0.00    -0.334 N 
HETATM    5  C   UNL     1     -41.941 -51.792  13.113  1.00  0.00     0.128 C 
HETATM    6  C   UNL     1     -42.935 -52.086  14.235  1.00  0.00     0.025 C 
HETATM    7  C   UNL     1     -43.251 -53.586  14.366  1.00  0.00    -0.003 C 
HETATM    8  C   UNL     1     -41.926 -54.352  14.530  1.00  0.00     0.025 C 
HETATM    9  C   UNL     1     -40.919 -54.029  13.424  1.00  0.00     0.128 C 
HETATM   10  H   UNL     1     -39.982 -50.471  12.217  1.00  0.00     0.164 HD
ENDROOT
BRANCH   1  11
HETATM   11  C   UNL     1     -37.991 -50.133  12.843  1.00  0.00     0.100 C 
HETATM   12  C   UNL     1     -37.615 -49.889  11.380  1.00  0.00     0.034 C 
BRANCH  11  13
HETATM   13  C   UNL     1     -37.987 -48.827  13.665  1.00  0.00     0.153 C 
BRANCH  13  14
HETATM   14  N   UNL     1     -37.117 -48.863  14.823  1.00  0.00    -0.350 N 
HETATM   15  C   UNL     1     -36.601 -47.784  15.487  1.00  0.00     0.108 A 
HETATM   16  C   UNL     1     -35.833 -48.322  16.492  1.00  0.00     0.106 A 
HETATM   17  N   UNL     1     -35.880 -49.691  16.463  1.00  0.00    -0.361 N 
HETATM   18  C   UNL     1     -36.675 -49.990  15.457  1.00  0.00     0.182 A 
ATOM     19  HN  UNL     1     -35.402 -50.340  17.087  1.00  0.00     0.166 HD
ENDBRANCH  13  14
ENDBRANCH  11  13
ENDBRANCH   1  11
BRANCH   7  20
HETATM   20  C   UNL     1     -44.068 -54.141  13.187  1.00  0.00     0.107 C 
BRANCH  20  21
HETATM   21  C   UNL     1     -45.453 -54.588  13.599  1.00  0.00     0.215 C 
HETATM   22  O   UNL     1     -45.721 -55.749  13.885  1.00  0.00    -0.274 OA
HETATM   23  N   UNL     1     -46.410 -53.620  13.589  1.00  0.00    -0.370 N 
HETATM   24  H   UNL     1     -46.214 -52.646  13.409  1.00  0.00     0.159 HD
HETATM   25  H   UNL     1     -47.343 -53.881  13.885  1.00  0.00     0.159 HD
ENDBRANCH  20  21
ENDBRANCH   7  20
TORSDOF 5
ENDMDL
MODEL 2
REMARK VINA RESULT:      -5.7      3.886      7.854
REMARK  5 active torsions:
REMARK  status: ('A' for Active; 'I' for Inactive)
REMARK    1  A    between atoms: C_2  and  C_3 
REMARK    2  A    between atoms: C_2  and  N_10 
REMARK    3  A    between atoms: C_3  and  N_4 
REMARK       I    between atoms: N_10  and  C_11 
REMARK       I    between atoms: C_11  and  N_13 
REMARK    4  A    between atoms: C_16  and  C_17 
REMARK    5  A    between atoms: C_17  and  C_18 
REMARK       I    between atoms: C_18  and  N_20 
ROOT
HETATM    1  N   UNL     1     -44.245 -50.691  12.709  1.00  0.00    -0.337 N 
HETATM    2  C   UNL     1     -43.269 -50.182  13.527  1.00  0.00     0.318 C 
HETATM    3  O   UNL     1     -43.060 -50.652  14.642  1.00  0.00    -0.247 OA
HETATM    4  N   UNL     1     -42.546 -49.127  12.996  1.00  0.00    -0.334 N 
HETATM    5  C   UNL     1     -42.644 -48.626  11.623  1.00  0.00     0.128 C 
HETATM    6  C   UNL     1     -41.261 -48.506  10.984  1.00  0.00     0.025 C 
HETATM    7  C   UNL     1     -40.293 -47.658  11.828  1.00  0.00    -0.003 C 
HETATM    8  C   UNL     1     -40.243 -48.246  13.250  1.00  0.00     0.025 C 
HETATM    9  C   UNL     1     -41.632 -48.397  13.874  1.00  0.00     0.128 C 
HETATM   10  H   UNL     1     -44.703 -49.996  12.140  1.00  0.00     0.164 HD
ENDROOT
BRANCH   1  11
HETATM   11  C   UNL     1     -45.076 -51.818  13.146  1.00  0.00     0.100 C 
HETATM   12  C   UNL     1     -46.524 -51.568  12.725  1.00  0.00     0.034 C 
BRANCH  11  13
HETATM   13  C   UNL     1     -44.532 -53.147  12.581  1.00  0.00     0.153 C 
BRANCH  13  14
HETATM   14  N   UNL     1     -43.662 -53.862  13.492  1.00  0.00    -0.350 N 
HETATM   15  C   UNL     1     -44.052 -54.633  14.553  1.00  0.00     0.108 A 
HETATM   16  C   UNL     1     -42.879 -55.080  15.114  1.00  0.00     0.106 A 
HETATM   17  N   UNL     1     -41.796 -54.614  14.417  1.00  0.00    -0.361 N 
HETATM   18  C   UNL     1     -42.297 -53.896  13.434  1.00  0.00     0.182 A 
ATOM     19  HN  UNL     1     -40.811 -54.786  14.618  1.00  0.00     0.166 HD
ENDBRANCH  13  14
ENDBRANCH  11  13
ENDBRANCH   1  11
BRANCH   7  20
HETATM   20  C   UNL     1     -40.659 -46.165  11.860  1.00  0.00     0.107 C 
BRANCH  20  21
HETATM   21  C   UNL     1     -40.704 -45.548  10.480  1.00  0.00     0.215 C 
HETATM   22  O   UNL     1     -41.743 -45.170   9.953  1.00  0.00    -0.274 OA
HETATM   23  N   UNL     1     -39.511 -45.479   9.828  1.00  0.00    -0.370 N 
HETATM   24  H   UNL     1     -38.630 -45.734  10.252  1.00  0.00     0.159 HD
HETATM   25  H   UNL     1     -39.502 -45.048   8.912  1.00  0.00     0.159 HD
ENDBRANCH  20  21
ENDBRANCH   7  20
TORSDOF 5
ENDMDL
MODEL 3
REMARK VINA RESULT:      -5.5      3.876      4.507
REMARK  5 active torsions:
REMARK  status: ('A' for Active; 'I' for Inactive)
REMARK    1  A    between atoms: C_2  and  C_3 
REMARK    2  A    between atoms: C_2  and  N_10 
REMARK    3  A    between atoms: C_3  and  N_4 
REMARK       I    between atoms: N_10  and  C_11 
REMARK       I    between atoms: C_11  and  N_13 
REMARK    4  A    between atoms: C_16  and  C_17 
REMARK    5  A    between atoms: C_17  and  C_18 
REMARK       I    between atoms: C_18  and  N_20 
ROOT
HETATM    1  N   UNL     1     -42.406 -49.283  11.547  1.00  0.00    -0.337 N 
HETATM    2  C   UNL     1     -41.539 -50.319  11.784  1.00  0.00     0.318 C 
HETATM    3  O   UNL     1     -40.364 -50.262  11.432  1.00  0.00    -0.247 OA
HETATM    4  N   UNL     1     -42.085 -51.404  12.449  1.00  0.00    -0.334 N 
HETATM    5  C   UNL     1     -43.431 -51.467  13.026  1.00  0.00     0.128 C 
HETATM    6  C   UNL     1     -43.382 -51.954  14.473  1.00  0.00     0.025 C 
HETATM    7  C   UNL     1     -42.639 -53.294  14.621  1.00  0.00    -0.003 C 
HETATM    8  C   UNL     1     -41.240 -53.147  13.996  1.00  0.00     0.025 C 
HETATM    9  C   UNL     1     -41.290 -52.626  12.558  1.00  0.00     0.128 C 
HETATM   10  H   UNL     1     -43.350 -49.578  11.350  1.00  0.00     0.164 HD
ENDROOT
BRANCH   1  11
HETATM   11  C   UNL     1     -41.952 -48.069  10.860  1.00  0.00     0.100 C 
HETATM   12  C   UNL     1     -42.874 -47.789   9.673  1.00  0.00     0.034 C 
BRANCH  11  13
HETATM   13  C   UNL     1     -41.896 -46.877  11.840  1.00  0.00     0.153 C 
BRANCH  13  14
HETATM   14  N   UNL     1     -41.106 -45.760  11.363  1.00  0.00    -0.350 N 
HETATM   15  C   UNL     1     -41.382 -44.433  11.544  1.00  0.00     0.108 A 
HETATM   16  C   UNL     1     -40.363 -43.770  10.903  1.00  0.00     0.106 A 
HETATM   17  N   UNL     1     -39.476 -44.655  10.351  1.00  0.00    -0.361 N 
HETATM   18  C   UNL     1     -39.939 -45.849  10.658  1.00  0.00     0.182 A 
ATOM     19  HN  UNL     1     -38.636 -44.437   9.815  1.00  0.00     0.166 HD
ENDBRANCH  13  14
ENDBRANCH  11  13
ENDBRANCH   1  11
BRANCH   7  20
HETATM   20  C   UNL     1     -43.398 -54.482  14.006  1.00  0.00     0.107 C 
BRANCH  20  21
HETATM   21  C   UNL     1     -44.797 -54.628  14.561  1.00  0.00     0.215 C 
HETATM   22  O   UNL     1     -45.033 -54.707  15.761  1.00  0.00    -0.274 OA
HETATM   23  N   UNL     1     -45.791 -54.714  13.635  1.00  0.00    -0.370 N 
HETATM   24  H   UNL     1     -45.638 -54.602  12.642  1.00  0.00     0.159 HD
HETATM   25  H   UNL     1     -46.742 -54.787  13.974  1.00  0.00     0.159 HD
ENDBRANCH  20  21
ENDBRANCH   7  20
TORSDOF 5
ENDMDL
MODEL 4
REMARK VINA RESULT:      -5.4      2.330      3.503
REMARK  5 active torsions:
REMARK  status: ('A' for Active; 'I' for Inactive)
REMARK    1  A    between atoms: C_2  and  C_3 
REMARK    2  A    between atoms: C_2  and  N_10 
REMARK    3  A    between atoms: C_3  and  N_4 
REMARK       I    between atoms: N_10  and  C_11 
REMARK       I    between atoms: C_11  and  N_13 
REMARK    4  A    between atoms: C_16  and  C_17 
REMARK    5  A    between atoms: C_17  and  C_18 
REMARK       I    between atoms: C_18  and  N_20 
ROOT
HETATM    1  N   UNL     1     -39.837 -50.309  12.840  1.00  0.00    -0.337 N 
HETATM    2  C   UNL     1     -39.693 -51.640  13.138  1.00  0.00     0.318 C 
HETATM    3  O   UNL     1     -38.586 -52.134  13.336  1.00  0.00    -0.247 OA
HETATM    4  N   UNL     1     -40.873 -52.360  13.208  1.00  0.00    -0.334 N 
HETATM    5  C   UNL     1     -42.225 -51.798  13.133  1.00  0.00     0.128 C 
HETATM    6  C   UNL     1     -43.091 -52.302  14.286  1.00  0.00     0.025 C 
HETATM    7  C   UNL     1     -43.120 -53.837  14.376  1.00  0.00    -0.003 C 
HETATM    8  C   UNL     1     -41.670 -54.349  14.453  1.00  0.00     0.025 C 
HETATM    9  C   UNL     1     -40.797 -53.816  13.315  1.00  0.00     0.128 C 
HETATM   10  H   UNL     1     -40.589 -50.114  12.199  1.00  0.00     0.164 HD
ENDROOT
BRANCH   1  11
HETATM   11  C   UNL     1     -38.665 -49.432  12.747  1.00  0.00     0.100 C 
HETATM   12  C   UNL     1     -37.960 -49.673  11.411  1.00  0.00     0.034 C 
BRANCH  11  13
HETATM   13  C   UNL     1     -39.075 -47.954  12.923  1.00  0.00     0.153 C 
BRANCH  13  14
HETATM   14  N   UNL     1     -39.979 -47.468  11.900  1.00  0.00    -0.350 N 
HETATM   15  C   UNL     1     -41.243 -47.926  11.647  1.00  0.00     0.108 A 
HETATM   16  C   UNL     1     -41.686 -47.172  10.586  1.00  0.00     0.106 A 
HETATM   17  N   UNL     1     -40.733 -46.267  10.199  1.00  0.00    -0.361 N 
HETATM   18  C   UNL     1     -39.721 -46.455  11.019  1.00  0.00     0.182 A 
ATOM     19  HN  UNL     1     -40.795 -45.590   9.439  1.00  0.00     0.166 HD
ENDBRANCH  13  14
ENDBRANCH  11  13
ENDBRANCH   1  11
BRANCH   7  20
HETATM   20  C   UNL     1     -43.880 -54.501  13.215  1.00  0.00     0.107 C 
BRANCH  20  21
HETATM   21  C   UNL     1     -45.315 -54.035  13.118  1.00  0.00     0.215 C 
HETATM   22  O   UNL     1     -45.692 -53.206  12.298  1.00  0.00    -0.274 OA
HETATM   23  N   UNL     1     -46.168 -54.562  14.038  1.00  0.00    -0.370 N 
HETATM   24  H   UNL     1     -45.903 -55.283  14.694  1.00  0.00     0.159 HD
HETATM   25  H   UNL     1     -47.142 -54.290  13.985  1.00  0.00     0.159 HD
ENDBRANCH  20  21
ENDBRANCH   7  20
TORSDOF 5
ENDMDL
MODEL 5
REMARK VINA RESULT:      -5.3      5.001      8.212
REMARK  5 active torsions:
REMARK  status: ('A' for Active; 'I' for Inactive)
REMARK    1  A    between atoms: C_2  and  C_3 
REMARK    2  A    between atoms: C_2  and  N_10 
REMARK    3  A    between atoms: C_3  and  N_4 
REMARK       I    between atoms: N_10  and  C_11 
REMARK       I    between atoms: C_11  and  N_13 
REMARK    4  A    between atoms: C_16  and  C_17 
REMARK    5  A    between atoms: C_17  and  C_18 
REMARK       I    between atoms: C_18  and  N_20 
ROOT
HETATM    1  N   UNL     1     -39.533 -48.713  11.402  1.00  0.00    -0.337 N 
HETATM    2  C   UNL     1     -39.317 -47.819  12.419  1.00  0.00     0.318 C 
HETATM    3  O   UNL     1     -38.644 -48.120  13.402  1.00  0.00    -0.247 OA
HETATM    4  N   UNL     1     -39.896 -46.574  12.244  1.00  0.00    -0.334 N 
HETATM    5  C   UNL     1     -40.576 -46.108  11.032  1.00  0.00     0.128 C 
HETATM    6  C   UNL     1     -40.042 -44.745  10.595  1.00  0.00     0.025 C 
HETATM    7  C   UNL     1     -40.108 -43.697  11.719  1.00  0.00    -0.003 C 
HETATM    8  C   UNL     1     -39.374 -44.256  12.952  1.00  0.00     0.025 C 
HETATM    9  C   UNL     1     -39.888 -45.637  13.366  1.00  0.00     0.128 C 
HETATM   10  H   UNL     1     -40.442 -48.631  10.973  1.00  0.00     0.164 HD
ENDROOT
BRANCH   1  11
HETATM   11  C   UNL     1     -38.965 -50.063  11.458  1.00  0.00     0.100 C 
HETATM   12  C   UNL     1     -37.439 -49.970  11.419  1.00  0.00     0.034 C 
BRANCH  11  13
HETATM   13  C   UNL     1     -39.465 -50.812  12.713  1.00  0.00     0.153 C 
BRANCH  13  14
HETATM   14  N   UNL     1     -40.816 -51.321  12.595  1.00  0.00    -0.350 N 
HETATM   15  C   UNL     1     -41.895 -50.948  13.350  1.00  0.00     0.108 A 
HETATM   16  C   UNL     1     -42.936 -51.712  12.879  1.00  0.00     0.106 A 
HETATM   17  N   UNL     1     -42.522 -52.525  11.857  1.00  0.00    -0.361 N 
HETATM   18  C   UNL     1     -41.244 -52.256  11.695  1.00  0.00     0.182 A 
ATOM     19  HN  UNL     1     -43.085 -53.195  11.333  1.00  0.00     0.166 HD
ENDBRANCH  13  14
ENDBRANCH  11  13
ENDBRANCH   1  11
BRANCH   7  20
HETATM   20  C   UNL     1     -41.544 -43.275  12.075  1.00  0.00     0.107 C 
BRANCH  20  21
HETATM   21  C   UNL     1     -42.221 -42.517  10.956  1.00  0.00     0.215 C 
HETATM   22  O   UNL     1     -43.171 -42.967  10.325  1.00  0.00    -0.274 OA
HETATM   23  N   UNL     1     -41.677 -41.307  10.653  1.00  0.00    -0.370 N 
HETATM   24  H   UNL     1     -40.929 -40.884  11.183  1.00  0.00     0.159 HD
HETATM   25  H   UNL     1     -42.123 -40.762   9.925  1.00  0.00     0.159 HD
ENDBRANCH  20  21
ENDBRANCH   7  20
TORSDOF 5
ENDMDL
MODEL 6
REMARK VINA RESULT:      -5.2      4.186      8.387
REMARK  5 active torsions:
REMARK  status: ('A' for Active; 'I' for Inactive)
REMARK    1  A    between atoms: C_2  and  C_3 
REMARK    2  A    between atoms: C_2  and  N_10 
REMARK    3  A    between atoms: C_3  and  N_4 
REMARK       I    between atoms: N_10  and  C_11 
REMARK       I    between atoms: C_11  and  N_13 
REMARK    4  A    between atoms: C_16  and  C_17 
REMARK    5  A    between atoms: C_17  and  C_18 
REMARK       I    between atoms: C_18  and  N_20 
ROOT
HETATM    1  N   UNL     1     -42.885 -51.489  12.709  1.00  0.00    -0.337 N 
HETATM    2  C   UNL     1     -41.786 -50.784  12.289  1.00  0.00     0.318 C 
HETATM    3  O   UNL     1     -40.730 -51.349  12.016  1.00  0.00    -0.247 OA
HETATM    4  N   UNL     1     -41.966 -49.415  12.186  1.00  0.00    -0.334 N 
HETATM    5  C   UNL     1     -43.238 -48.704  12.349  1.00  0.00     0.128 C 
HETATM    6  C   UNL     1     -43.486 -47.754  11.179  1.00  0.00     0.025 C 
HETATM    7  C   UNL     1     -42.317 -46.779  10.951  1.00  0.00    -0.003 C 
HETATM    8  C   UNL     1     -41.023 -47.598  10.789  1.00  0.00     0.025 C 
HETATM    9  C   UNL     1     -40.795 -48.573  11.946  1.00  0.00     0.128 C 
HETATM   10  H   UNL     1     -43.449 -50.999  13.386  1.00  0.00     0.164 HD
ENDROOT
BRANCH   1  11
HETATM   11  C   UNL     1     -42.830 -52.947  12.849  1.00  0.00     0.100 C 
HETATM   12  C   UNL     1     -42.652 -53.305  14.325  1.00  0.00     0.034 C 
BRANCH  11  13
HETATM   13  C   UNL     1     -44.092 -53.600  12.246  1.00  0.00     0.153 C 
BRANCH  13  14
HETATM   14  N   UNL     1     -45.164 -53.802  13.200  1.00  0.00    -0.350 N 
HETATM   15  C   UNL     1     -45.410 -54.941  13.918  1.00  0.00     0.108 A 
HETATM   16  C   UNL     1     -46.528 -54.653  14.664  1.00  0.00     0.106 A 
HETATM   17  N   UNL     1     -46.956 -53.373  14.428  1.00  0.00    -0.361 N 
HETATM   18  C   UNL     1     -46.105 -52.877  13.555  1.00  0.00     0.182 A 
ATOM     19  HN  UNL     1     -47.762 -52.904  14.841  1.00  0.00     0.166 HD
ENDBRANCH  13  14
ENDBRANCH  11  13
ENDBRANCH   1  11
BRANCH   7  20
HETATM   20  C   UNL     1     -42.172 -45.731  12.068  1.00  0.00     0.107 C 
BRANCH  20  21
HETATM   21  C   UNL     1     -42.205 -44.314  11.543  1.00  0.00     0.215 C 
HETATM   22  O   UNL     1     -41.547 -43.946  10.577  1.00  0.00    -0.274 OA
HETATM   23  N   UNL     1     -42.984 -43.446  12.243  1.00  0.00    -0.370 N 
HETATM   24  H   UNL     1     -43.578 -43.725  13.011  1.00  0.00     0.159 HD
HETATM   25  H   UNL     1     -43.049 -42.494  11.902  1.00  0.00     0.159 HD
ENDBRANCH  20  21
ENDBRANCH   7  20
TORSDOF 5
ENDMDL
MODEL 7
REMARK VINA RESULT:      -5.2      1.634      2.106
REMARK  5 active torsions:
REMARK  status: ('A' for Active; 'I' for Inactive)
REMARK    1  A    between atoms: C_2  and  C_3 
REMARK    2  A    between atoms: C_2  and  N_10 
REMARK    3  A    between atoms: C_3  and  N_4 
REMARK       I    between atoms: N_10  and  C_11 
REMARK       I    between atoms: C_11  and  N_13 
REMARK    4  A    between atoms: C_16  and  C_17 
REMARK    5  A    between atoms: C_17  and  C_18 
REMARK       I    between atoms: C_18  and  N_20 
ROOT
HETATM    1  N   UNL     1     -39.234 -51.204  12.874  1.00  0.00    -0.337 N 
HETATM    2  C   UNL     1     -39.526 -52.488  13.256  1.00  0.00     0.318 C 
HETATM    3  O   UNL     1     -38.644 -53.264  13.615  1.00  0.00    -0.247 OA
HETATM    4  N   UNL     1     -40.868 -52.825  13.215  1.00  0.00    -0.334 N 
HETATM    5  C   UNL     1     -41.975 -51.903  12.944  1.00  0.00     0.128 C 
HETATM    6  C   UNL     1     -43.066 -52.032  14.005  1.00  0.00     0.025 C 
HETATM    7  C   UNL     1     -43.562 -53.479  14.170  1.00  0.00    -0.003 C 
HETATM    8  C   UNL     1     -42.347 -54.382  14.453  1.00  0.00     0.025 C 
HETATM    9  C   UNL     1     -41.242 -54.225  13.406  1.00  0.00     0.128 C 
HETATM   10  H   UNL     1     -39.823 -50.854  12.135  1.00  0.00     0.164 HD
ENDROOT
BRANCH   1  11
HETATM   11  C   UNL     1     -37.851 -50.717  12.882  1.00  0.00     0.100 C 
HETATM   12  C   UNL     1     -37.530 -50.090  11.524  1.00  0.00     0.034 C 
BRANCH  11  13
HETATM   13  C   UNL     1     -37.630 -49.722  14.042  1.00  0.00     0.153 C 
BRANCH  13  14
HETATM   14  N   UNL     1     -38.760 -48.852  14.294  1.00  0.00    -0.350 N 
HETATM   15  C   UNL     1     -39.091 -47.724  13.594  1.00  0.00     0.108 A 
HETATM   16  C   UNL     1     -40.218 -47.241  14.214  1.00  0.00     0.106 A 
HETATM   17  N   UNL     1     -40.584 -48.048  15.258  1.00  0.00    -0.361 N 
HETATM   18  C   UNL     1     -39.698 -49.021  15.274  1.00  0.00     0.182 A 
ATOM     19  HN  UNL     1     -41.376 -47.922  15.889  1.00  0.00     0.166 HD
ENDBRANCH  13  14
ENDBRANCH  11  13
ENDBRANCH   1  11
BRANCH   7  20
HETATM   20  C   UNL     1     -44.361 -53.991  12.959  1.00  0.00     0.107 C 
BRANCH  20  21
HETATM   21  C   UNL     1     -45.745 -53.386  12.880  1.00  0.00     0.215 C 
HETATM   22  O   UNL     1     -46.122 -52.708  11.932  1.00  0.00    -0.274 OA
HETATM   23  N   UNL     1     -46.544 -53.604  13.960  1.00  0.00    -0.370 N 
HETATM   24  H   UNL     1     -46.285 -54.199  14.734  1.00  0.00     0.159 HD
HETATM   25  H   UNL     1     -47.487 -53.234  13.927  1.00  0.00     0.159 HD
ENDBRANCH  20  21
ENDBRANCH   7  20
TORSDOF 5
ENDMDL
MODEL 8
REMARK VINA RESULT:      -5.2      2.250      3.122
REMARK  5 active torsions:
REMARK  status: ('A' for Active; 'I' for Inactive)
REMARK    1  A    between atoms: C_2  and  C_3 
REMARK    2  A    between atoms: C_2  and  N_10 
REMARK    3  A    between atoms: C_3  and  N_4 
REMARK       I    between atoms: N_10  and  C_11 
REMARK       I    between atoms: C_11  and  N_13 
REMARK    4  A    between atoms: C_16  and  C_17 
REMARK    5  A    between atoms: C_17  and  C_18 
REMARK       I    between atoms: C_18  and  N_20 
ROOT
HETATM    1  N   UNL     1     -41.155 -49.620  14.059  1.00  0.00    -0.337 N 
HETATM    2  C   UNL     1     -42.172 -50.120  13.285  1.00  0.00     0.318 C 
HETATM    3  O   UNL     1     -42.542 -49.543  12.266  1.00  0.00    -0.247 OA
HETATM    4  N   UNL     1     -42.724 -51.308  13.732  1.00  0.00    -0.334 N 
HETATM    5  C   UNL     1     -42.226 -52.118  14.848  1.00  0.00     0.128 C 
HETATM    6  C   UNL     1     -42.068 -53.580  14.434  1.00  0.00     0.025 C 
HETATM    7  C   UNL     1     -43.359 -54.169  13.839  1.00  0.00    -0.003 C 
HETATM    8  C   UNL     1     -43.815 -53.268  12.677  1.00  0.00     0.025 C 
HETATM    9  C   UNL     1     -43.940 -51.799  13.086  1.00  0.00     0.128 C 
HETATM   10  H   UNL     1     -41.276 -49.785  15.046  1.00  0.00     0.164 HD
ENDROOT
BRANCH   1  11
HETATM   11  C   UNL     1     -40.478 -48.373  13.691  1.00  0.00     0.100 C 
HETATM   12  C   UNL     1     -41.136 -47.206  14.428  1.00  0.00     0.034 C 
BRANCH  11  13
HETATM   13  C   UNL     1     -38.966 -48.465  13.991  1.00  0.00     0.153 C 
BRANCH  13  14
HETATM   14  N   UNL     1     -38.256 -49.410  13.152  1.00  0.00    -0.350 N 
HETATM   15  C   UNL     1     -38.122 -49.351  11.792  1.00  0.00     0.108 A 
HETATM   16  C   UNL     1     -37.388 -50.465  11.461  1.00  0.00     0.106 A 
HETATM   17  N   UNL     1     -37.066 -51.187  12.579  1.00  0.00    -0.361 N 
HETATM   18  C   UNL     1     -37.587 -50.520  13.587  1.00  0.00     0.182 A 
ATOM     19  HN  UNL     1     -36.534 -52.057  12.622  1.00  0.00     0.166 HD
ENDBRANCH  13  14
ENDBRANCH  11  13
ENDBRANCH   1  11
BRANCH   7  20
HETATM   20  C   UNL     1     -44.482 -54.346  14.875  1.00  0.00     0.107 C 
BRANCH  20  21
HETATM   21  C   UNL     1     -45.756 -54.883  14.264  1.00  0.00     0.215 C 
HETATM   22  O   UNL     1     -45.828 -55.986  13.735  1.00  0.00    -0.274 OA
HETATM   23  N   UNL     1     -46.823 -54.038  14.293  1.00  0.00    -0.370 N 
HETATM   24  H   UNL     1     -46.813 -53.145  14.765  1.00  0.00     0.159 HD
HETATM   25  H   UNL     1     -47.699 -54.377  13.915  1.00  0.00     0.159 HD
ENDBRANCH  20  21
ENDBRANCH   7  20
TORSDOF 5
ENDMDL
MODEL 9
REMARK VINA RESULT:      -5.2      4.753      7.375
REMARK  5 active torsions:
REMARK  status: ('A' for Active; 'I' for Inactive)
REMARK    1  A    between atoms: C_2  and  C_3 
REMARK    2  A    between atoms: C_2  and  N_10 
REMARK    3  A    between atoms: C_3  and  N_4 
REMARK       I    between atoms: N_10  and  C_11 
REMARK       I    between atoms: C_11  and  N_13 
REMARK    4  A    between atoms: C_16  and  C_17 
REMARK    5  A    between atoms: C_17  and  C_18 
REMARK       I    between atoms: C_18  and  N_20 
ROOT
HETATM    1  N   UNL     1     -39.395 -49.605  12.656  1.00  0.00    -0.337 N 
HETATM    2  C   UNL     1     -40.279 -49.216  11.681  1.00  0.00     0.318 C 
HETATM    3  O   UNL     1     -40.651 -49.996  10.808  1.00  0.00    -0.247 OA
HETATM    4  N   UNL     1     -40.717 -47.906  11.771  1.00  0.00    -0.334 N 
HETATM    5  C   UNL     1     -40.431 -46.980  12.870  1.00  0.00     0.128 C 
HETATM    6  C   UNL     1     -41.713 -46.325  13.382  1.00  0.00     0.025 C 
HETATM    7  C   UNL     1     -42.515 -45.642  12.261  1.00  0.00    -0.003 C 
HETATM    8  C   UNL     1     -42.777 -46.675  11.149  1.00  0.00     0.025 C 
HETATM    9  C   UNL     1     -41.494 -47.353  10.663  1.00  0.00     0.128 C 
HETATM   10  H   UNL     1     -38.762 -48.876  12.946  1.00  0.00     0.164 HD
ENDROOT
BRANCH   1  11
HETATM   11  C   UNL     1     -38.863 -50.971  12.682  1.00  0.00     0.100 C 
HETATM   12  C   UNL     1     -37.336 -50.917  12.610  1.00  0.00     0.034 C 
BRANCH  11  13
HETATM   13  C   UNL     1     -39.355 -51.723  13.937  1.00  0.00     0.153 C 
BRANCH  13  14
HETATM   14  N   UNL     1     -40.411 -52.680  13.674  1.00  0.00    -0.350 N 
HETATM   15  C   UNL     1     -41.218 -53.277  14.603  1.00  0.00     0.108 A 
HETATM   16  C   UNL     1     -42.040 -54.105  13.877  1.00  0.00     0.106 A 
HETATM   17  N   UNL     1     -41.762 -54.017  12.539  1.00  0.00    -0.361 N 
HETATM   18  C   UNL     1     -40.787 -53.138  12.442  1.00  0.00     0.182 A 
ATOM     19  HN  UNL     1     -42.214 -54.524  11.778  1.00  0.00     0.166 HD
ENDBRANCH  13  14
ENDBRANCH  11  13
ENDBRANCH   1  11
BRANCH   7  20
HETATM   20  C   UNL     1     -41.828 -44.386  11.698  1.00  0.00     0.107 C 
BRANCH  20  21
HETATM   21  C   UNL     1     -42.817 -43.332  11.256  1.00  0.00     0.215 C 
HETATM   22  O   UNL     1     -43.306 -43.306  10.133  1.00  0.00    -0.274 OA
HETATM   23  N   UNL     1     -43.102 -42.371  12.177  1.00  0.00    -0.370 N 
HETATM   24  H   UNL     1     -42.758 -42.390  13.126  1.00  0.00     0.159 HD
HETATM   25  H   UNL     1     -43.781 -41.664  11.922  1.00  0.00     0.159 HD
ENDBRANCH  20  21
ENDBRANCH   7  20
TORSDOF 5
ENDMDL
