MODEL 1
REMARK VINA RESULT:      -7.4      0.000      0.000
REMARK  6 active torsions:
REMARK  status: ('A' for Active; 'I' for Inactive)
REMARK    1  A    between atoms: N_1  and  C_8 
REMARK    2  A    between atoms: N_2  and  C_7 
REMARK    3  A    between atoms: C_8  and  C_9 
REMARK       I    between atoms: C_9  and  N_10 
REMARK    4  A    between atoms: N_10  and  C_11 
REMARK    5  A    between atoms: C_11  and  C_17 
REMARK    6  A    between atoms: C_11  and  C_18 
ROOT
HETATM    1  C   UNL     1     -40.635 -49.340  11.951  1.00  0.00     0.236 C 
HETATM    2  N   UNL     1     -41.329 -48.146  11.964  1.00  0.00    -0.347 N 
HETATM    3  O   UNL     1     -40.103 -49.810  10.950  1.00  0.00    -0.272 OA
HETATM    4  H   UNL     1     -41.542 -47.719  12.853  1.00  0.00     0.163 HD
ENDROOT
BRANCH   1   5
HETATM    5  C   UNL     1     -40.525 -50.007  13.334  1.00  0.00     0.240 C 
BRANCH   5   6
HETATM    6  N   UNL     1     -41.516 -51.061  13.539  1.00  0.00    -0.255 N 
HETATM    7  C   UNL     1     -42.834 -50.681  13.777  1.00  0.00     0.334 C 
HETATM    8  N   UNL     1     -43.718 -51.705  14.112  1.00  0.00    -0.279 N 
HETATM    9  O   UNL     1     -43.201 -49.513  13.693  1.00  0.00    -0.246 OA
HETATM   10  C   UNL     1     -43.409 -53.020  13.839  1.00  0.00     0.146 C 
HETATM   11  C   UNL     1     -42.232 -53.362  13.324  1.00  0.00     0.200 C 
HETATM   12  C   UNL     1     -41.183 -52.342  13.126  1.00  0.00     0.292 C 
HETATM   13  F   UNL     1     -41.931 -54.634  13.005  1.00  0.00    -0.199 F 
HETATM   14  O   UNL     1     -40.122 -52.639  12.583  1.00  0.00    -0.264 OA
BRANCH   8  15
HETATM   15  C   UNL     1     -44.885 -51.355  14.924  1.00  0.00     0.232 C 
HETATM   16  O   UNL     1     -44.977 -52.201  16.090  1.00  0.00    -0.366 OA
HETATM   17  C   UNL     1     -46.355 -52.516  16.323  1.00  0.00     0.170 C 
HETATM   18  C   UNL     1     -47.164 -51.587  15.450  1.00  0.00     0.031 C 
HETATM   19  C   UNL     1     -46.254 -51.412  14.254  1.00  0.00     0.056 C 
ENDBRANCH   8  15
ENDBRANCH   5   6
ENDBRANCH   1   5
BRANCH   2  20
HETATM   20  C   UNL     1     -41.411 -47.266  10.792  1.00  0.00     0.151 C 
BRANCH  20  21
HETATM   21  C   UNL     1     -42.675 -47.640  10.007  1.00  0.00    -0.031 A 
HETATM   22  C   UNL     1     -42.696 -47.769   8.610  1.00  0.00     0.009 A 
HETATM   23  C   UNL     1     -43.909 -47.779   7.905  1.00  0.00     0.001 A 
HETATM   24  C   UNL     1     -45.129 -47.684   8.581  1.00  0.00     0.000 A 
HETATM   25  C   UNL     1     -45.135 -47.600   9.966  1.00  0.00     0.001 A 
HETATM   26  C   UNL     1     -43.924 -47.578  10.671  1.00  0.00     0.009 A 
ENDBRANCH  20  21
BRANCH  20  27
HETATM   27  C   UNL     1     -41.080 -45.822  11.216  1.00  0.00    -0.031 A 
HETATM   28  C   UNL     1     -39.883 -45.649  11.958  1.00  0.00     0.009 A 
HETATM   29  C   UNL     1     -39.408 -44.408  12.383  1.00  0.00     0.001 A 
HETATM   30  C   UNL     1     -40.116 -43.271  12.041  1.00  0.00     0.000 A 
HETATM   31  C   UNL     1     -41.288 -43.389  11.299  1.00  0.00     0.001 A 
HETATM   32  C   UNL     1     -41.777 -44.662  10.886  1.00  0.00     0.009 A 
ENDBRANCH  20  27
ENDBRANCH   2  20
TORSDOF 6
ENDMDL
MODEL 2
REMARK VINA RESULT:      -7.3      2.853      7.755
REMARK  6 active torsions:
REMARK  status: ('A' for Active; 'I' for Inactive)
REMARK    1  A    between atoms: N_1  and  C_8 
REMARK    2  A    between atoms: N_2  and  C_7 
REMARK    3  A    between atoms: C_8  and  C_9 
REMARK       I    between atoms: C_9  and  N_10 
REMARK    4  A    between atoms: N_10  and  C_11 
REMARK    5  A    between atoms: C_11  and  C_17 
REMARK    6  A    between atoms: C_11  and  C_18 
ROOT
HETATM    1  C   UNL     1     -40.007 -53.201  14.068  1.00  0.00     0.236 C 
HETATM    2  N   UNL     1     -41.169 -53.018  14.793  1.00  0.00    -0.347 N 
HETATM    3  O   UNL     1     -39.850 -54.097  13.244  1.00  0.00    -0.272 OA
HETATM    4  H   UNL     1     -41.305 -52.143  15.277  1.00  0.00     0.163 HD
ENDROOT
BRANCH   1   5
HETATM    5  C   UNL     1     -38.936 -52.129  14.334  1.00  0.00     0.240 C 
BRANCH   5   6
HETATM    6  N   UNL     1     -38.959 -51.046  13.353  1.00  0.00    -0.255 N 
HETATM    7  C   UNL     1     -39.837 -49.987  13.569  1.00  0.00     0.334 C 
HETATM    8  N   UNL     1     -39.935 -49.050  12.542  1.00  0.00    -0.279 N 
HETATM    9  O   UNL     1     -40.486 -49.879  14.606  1.00  0.00    -0.246 OA
HETATM   10  C   UNL     1     -38.956 -48.960  11.575  1.00  0.00     0.146 C 
HETATM   11  C   UNL     1     -37.935 -49.810  11.543  1.00  0.00     0.200 C 
HETATM   12  C   UNL     1     -37.879 -50.941  12.490  1.00  0.00     0.292 C 
HETATM   13  F   UNL     1     -36.944 -49.708  10.637  1.00  0.00    -0.199 F 
HETATM   14  O   UNL     1     -36.902 -51.685  12.513  1.00  0.00    -0.264 OA
BRANCH   8  15
HETATM   15  C   UNL     1     -41.189 -48.304  12.421  1.00  0.00     0.232 C 
HETATM   16  O   UNL     1     -42.043 -48.888  11.414  1.00  0.00    -0.366 OA
HETATM   17  C   UNL     1     -42.692 -47.834  10.693  1.00  0.00     0.170 C 
HETATM   18  C   UNL     1     -42.461 -46.566  11.481  1.00  0.00     0.031 C 
HETATM   19  C   UNL     1     -41.097 -46.820  12.086  1.00  0.00     0.056 C 
ENDBRANCH   8  15
ENDBRANCH   5   6
ENDBRANCH   1   5
BRANCH   2  20
HETATM   20  C   UNL     1     -42.375 -53.825  14.571  1.00  0.00     0.151 C 
BRANCH  20  21
HETATM   21  C   UNL     1     -42.595 -54.698  15.813  1.00  0.00    -0.031 A 
HETATM   22  C   UNL     1     -43.412 -54.309  16.885  1.00  0.00     0.009 A 
HETATM   23  C   UNL     1     -43.331 -54.958  18.126  1.00  0.00     0.001 A 
HETATM   24  C   UNL     1     -42.449 -56.026  18.318  1.00  0.00     0.000 A 
HETATM   25  C   UNL     1     -41.662 -56.457  17.259  1.00  0.00     0.001 A 
HETATM   26  C   UNL     1     -41.734 -55.803  16.022  1.00  0.00     0.009 A 
ENDBRANCH  20  21
BRANCH  20  27
HETATM   27  C   UNL     1     -43.476 -52.936  13.961  1.00  0.00    -0.031 A 
HETATM   28  C   UNL     1     -44.618 -53.614  13.460  1.00  0.00     0.009 A 
HETATM   29  C   UNL     1     -45.726 -52.965  12.916  1.00  0.00     0.001 A 
HETATM   30  C   UNL     1     -45.742 -51.583  12.888  1.00  0.00     0.000 A 
HETATM   31  C   UNL     1     -44.652 -50.874  13.384  1.00  0.00     0.001 A 
HETATM   32  C   UNL     1     -43.515 -51.544  13.919  1.00  0.00     0.009 A 
ENDBRANCH  20  27
ENDBRANCH   2  20
TORSDOF 6
ENDMDL
MODEL 3
REMARK VINA RESULT:      -7.1      2.828      7.935
REMARK  6 active torsions:
REMARK  status: ('A' for Active; 'I' for Inactive)
REMARK    1  A    between atoms: N_1  and  C_8 
REMARK    2  A    between atoms: N_2  and  C_7 
REMARK    3  A    between atoms: C_8  and  C_9 
REMARK       I    between atoms: C_9  and  N_10 
REMARK    4  A    between atoms: N_10  and  C_11 
REMARK    5  A    between atoms: C_11  and  C_17 
REMARK    6  A    between atoms: C_11  and  C_18 
ROOT
HETATM    1  C   UNL     1     -42.109 -48.957  12.333  1.00  0.00     0.236 C 
HETATM    2  N   UNL     1     -42.660 -50.217  12.464  1.00  0.00    -0.347 N 
HETATM    3  O   UNL     1     -41.760 -48.261  13.283  1.00  0.00    -0.272 OA
HETATM    4  H   UNL     1     -42.712 -50.810  11.649  1.00  0.00     0.163 HD
ENDROOT
BRANCH   1   5
HETATM    5  C   UNL     1     -41.900 -48.521  10.872  1.00  0.00     0.240 C 
BRANCH   5   6
HETATM    6  N   UNL     1     -42.157 -47.098  10.660  1.00  0.00    -0.255 N 
HETATM    7  C   UNL     1     -41.100 -46.210  10.837  1.00  0.00     0.334 C 
HETATM    8  N   UNL     1     -41.418 -44.854  10.770  1.00  0.00    -0.279 N 
HETATM    9  O   UNL     1     -39.951 -46.594  11.036  1.00  0.00    -0.246 OA
HETATM   10  C   UNL     1     -42.592 -44.434  10.182  1.00  0.00     0.146 C 
HETATM   11  C   UNL     1     -43.492 -45.305   9.736  1.00  0.00     0.200 C 
HETATM   12  C   UNL     1     -43.298 -46.752   9.952  1.00  0.00     0.292 C 
HETATM   13  F   UNL     1     -44.621 -44.915   9.116  1.00  0.00    -0.199 F 
HETATM   14  O   UNL     1     -44.088 -47.563   9.477  1.00  0.00    -0.264 OA
BRANCH   8  15
HETATM   15  C   UNL     1     -40.562 -43.919  11.503  1.00  0.00     0.232 C 
HETATM   16  O   UNL     1     -40.646 -44.147  12.926  1.00  0.00    -0.366 OA
HETATM   17  C   UNL     1     -40.633 -42.882  13.597  1.00  0.00     0.170 C 
HETATM   18  C   UNL     1     -40.222 -41.853  12.570  1.00  0.00     0.031 C 
HETATM   19  C   UNL     1     -40.810 -42.429  11.301  1.00  0.00     0.056 C 
ENDBRANCH   8  15
ENDBRANCH   5   6
ENDBRANCH   1   5
BRANCH   2  20
HETATM   20  C   UNL     1     -42.790 -50.892  13.760  1.00  0.00     0.151 C 
BRANCH  20  21
HETATM   21  C   UNL     1     -44.274 -50.887  14.150  1.00  0.00    -0.031 A 
HETATM   22  C   UNL     1     -44.714 -50.820  15.481  1.00  0.00     0.009 A 
HETATM   23  C   UNL     1     -46.035 -51.149  15.821  1.00  0.00     0.001 A 
HETATM   24  C   UNL     1     -46.952 -51.530  14.837  1.00  0.00     0.000 A 
HETATM   25  C   UNL     1     -46.552 -51.560  13.508  1.00  0.00     0.001 A 
HETATM   26  C   UNL     1     -45.231 -51.243  13.168  1.00  0.00     0.009 A 
ENDBRANCH  20  21
BRANCH  20  27
HETATM   27  C   UNL     1     -41.925 -52.168  13.758  1.00  0.00    -0.031 A 
HETATM   28  C   UNL     1     -40.529 -51.975  13.926  1.00  0.00     0.009 A 
HETATM   29  C   UNL     1     -39.607 -53.019  13.993  1.00  0.00     0.001 A 
HETATM   30  C   UNL     1     -40.067 -54.321  13.928  1.00  0.00     0.000 A 
HETATM   31  C   UNL     1     -41.431 -54.560  13.781  1.00  0.00     0.001 A 
HETATM   32  C   UNL     1     -42.365 -53.488  13.692  1.00  0.00     0.009 A 
ENDBRANCH  20  27
ENDBRANCH   2  20
TORSDOF 6
ENDMDL
MODEL 4
REMARK VINA RESULT:      -7.0      2.761      7.680
REMARK  6 active torsions:
REMARK  status: ('A' for Active; 'I' for Inactive)
REMARK    1  A    between atoms: N_1  and  C_8 
REMARK    2  A    between atoms: N_2  and  C_7 
REMARK    3  A    between atoms: C_8  and  C_9 
REMARK       I    between atoms: C_9  and  N_10 
REMARK    4  A    between atoms: N_10  and  C_11 
REMARK    5  A    between atoms: C_11  and  C_17 
REMARK    6  A    between atoms: C_11  and  C_18 
ROOT
HETATM    1  C   UNL     1     -40.536 -50.142  13.651  1.00  0.00     0.236 C 
HETATM    2  N   UNL     1     -41.623 -50.849  14.127  1.00  0.00    -0.347 N 
HETATM    3  O   UNL     1     -39.778 -50.559  12.780  1.00  0.00    -0.272 OA
HETATM    4  H   UNL     1     -42.319 -50.359  14.670  1.00  0.00     0.163 HD
ENDROOT
BRANCH   1   5
HETATM    5  C   UNL     1     -40.394 -48.737  14.264  1.00  0.00     0.240 C 
BRANCH   5   6
HETATM    6  N   UNL     1     -40.591 -47.667  13.288  1.00  0.00    -0.255 N 
HETATM    7  C   UNL     1     -41.870 -47.482  12.771  1.00  0.00     0.334 C 
HETATM    8  N   UNL     1     -41.987 -46.553  11.739  1.00  0.00    -0.279 N 
HETATM    9  O   UNL     1     -42.842 -48.096  13.200  1.00  0.00    -0.246 OA
HETATM   10  C   UNL     1     -41.003 -45.612  11.522  1.00  0.00     0.146 C 
HETATM   11  C   UNL     1     -39.880 -45.609  12.234  1.00  0.00     0.200 C 
HETATM   12  C   UNL     1     -39.616 -46.684  13.211  1.00  0.00     0.292 C 
HETATM   13  F   UNL     1     -38.930 -44.669  12.071  1.00  0.00    -0.199 F 
HETATM   14  O   UNL     1     -38.616 -46.646  13.922  1.00  0.00    -0.264 OA
BRANCH   8  15
HETATM   15  C   UNL     1     -43.086 -46.730  10.787  1.00  0.00     0.232 C 
HETATM   16  O   UNL     1     -42.883 -47.905   9.974  1.00  0.00    -0.366 OA
HETATM   17  C   UNL     1     -43.306 -47.618   8.636  1.00  0.00     0.170 C 
HETATM   18  C   UNL     1     -44.077 -46.321   8.696  1.00  0.00     0.031 C 
HETATM   19  C   UNL     1     -43.369 -45.590   9.816  1.00  0.00     0.056 C 
ENDBRANCH   8  15
ENDBRANCH   5   6
ENDBRANCH   1   5
BRANCH   2  20
HETATM   20  C   UNL     1     -42.039 -52.136  13.560  1.00  0.00     0.151 C 
BRANCH  20  21
HETATM   21  C   UNL     1     -41.212 -53.239  14.234  1.00  0.00    -0.031 A 
HETATM   22  C   UNL     1     -41.119 -53.380  15.627  1.00  0.00     0.009 A 
HETATM   23  C   UNL     1     -40.112 -54.168  16.205  1.00  0.00     0.001 A 
HETATM   24  C   UNL     1     -39.191 -54.851  15.406  1.00  0.00     0.000 A 
HETATM   25  C   UNL     1     -39.291 -54.762  14.025  1.00  0.00     0.001 A 
HETATM   26  C   UNL     1     -40.288 -53.967  13.445  1.00  0.00     0.009 A 
ENDBRANCH  20  21
BRANCH  20  27
HETATM   27  C   UNL     1     -43.576 -52.177  13.463  1.00  0.00    -0.031 A 
HETATM   28  C   UNL     1     -44.280 -51.315  14.343  1.00  0.00     0.009 A 
HETATM   29  C   UNL     1     -45.669 -51.191  14.360  1.00  0.00     0.001 A 
HETATM   30  C   UNL     1     -46.413 -51.918  13.450  1.00  0.00     0.000 A 
HETATM   31  C   UNL     1     -45.766 -52.765  12.554  1.00  0.00     0.001 A 
HETATM   32  C   UNL     1     -44.349 -52.902  12.558  1.00  0.00     0.009 A 
ENDBRANCH  20  27
ENDBRANCH   2  20
TORSDOF 6
ENDMDL
MODEL 5
REMARK VINA RESULT:      -6.8     14.392     17.790
REMARK  6 active torsions:
REMARK  status: ('A' for Active; 'I' for Inactive)
REMARK    1  A    between atoms: N_1  and  C_8 
REMARK    2  A    between atoms: N_2  and  C_7 
REMARK    3  A    between atoms: C_8  and  C_9 
REMARK       I    between atoms: C_9  and  N_10 
REMARK    4  A    between atoms: N_10  and  C_11 
REMARK    5  A    between atoms: C_11  and  C_17 
REMARK    6  A    between atoms: C_11  and  C_18 
ROOT
HETATM    1  C   UNL     1     -48.034 -53.061  -3.984  1.00  0.00     0.236 C 
HETATM    2  N   UNL     1     -48.631 -54.052  -3.230  1.00  0.00    -0.347 N 
HETATM    3  O   UNL     1     -48.383 -52.766  -5.123  1.00  0.00    -0.272 OA
HETATM    4  H   UNL     1     -48.443 -54.085  -2.238  1.00  0.00     0.163 HD
ENDROOT
BRANCH   1   5
HETATM    5  C   UNL     1     -46.923 -52.299  -3.239  1.00  0.00     0.240 C 
BRANCH   5   6
HETATM    6  N   UNL     1     -47.377 -51.023  -2.691  1.00  0.00    -0.255 N 
HETATM    7  C   UNL     1     -47.864 -51.007  -1.388  1.00  0.00     0.334 C 
HETATM    8  N   UNL     1     -48.421 -49.806  -0.954  1.00  0.00    -0.279 N 
HETATM    9  O   UNL     1     -47.803 -51.992  -0.657  1.00  0.00    -0.246 OA
HETATM   10  C   UNL     1     -48.151 -48.625  -1.612  1.00  0.00     0.146 C 
HETATM   11  C   UNL     1     -47.420 -48.604  -2.723  1.00  0.00     0.200 C 
HETATM   12  C   UNL     1     -46.964 -49.867  -3.336  1.00  0.00     0.292 C 
HETATM   13  F   UNL     1     -47.105 -47.457  -3.353  1.00  0.00    -0.199 F 
HETATM   14  O   UNL     1     -46.227 -49.850  -4.319  1.00  0.00    -0.264 OA
BRANCH   8  15
HETATM   15  C   UNL     1     -49.439 -49.870   0.097  1.00  0.00     0.232 C 
HETATM   16  O   UNL     1     -50.765 -49.731  -0.458  1.00  0.00    -0.366 OA
HETATM   17  C   UNL     1     -51.554 -48.932   0.432  1.00  0.00     0.170 C 
HETATM   18  C   UNL     1     -50.779 -48.829   1.724  1.00  0.00     0.031 C 
HETATM   19  C   UNL     1     -49.348 -48.855   1.231  1.00  0.00     0.056 C 
ENDBRANCH   8  15
ENDBRANCH   5   6
ENDBRANCH   1   5
BRANCH   2  20
HETATM   20  C   UNL     1     -49.817 -54.786  -3.685  1.00  0.00     0.151 C 
BRANCH  20  21
HETATM   21  C   UNL     1     -49.358 -56.159  -4.193  1.00  0.00    -0.031 A 
HETATM   22  C   UNL     1     -48.907 -57.177  -3.340  1.00  0.00     0.009 A 
HETATM   23  C   UNL     1     -48.192 -58.275  -3.843  1.00  0.00     0.001 A 
HETATM   24  C   UNL     1     -47.933 -58.393  -5.212  1.00  0.00     0.000 A 
HETATM   25  C   UNL     1     -48.408 -57.420  -6.080  1.00  0.00     0.001 A 
HETATM   26  C   UNL     1     -49.112 -56.317  -5.579  1.00  0.00     0.009 A 
ENDBRANCH  20  21
BRANCH  20  27
HETATM   27  C   UNL     1     -50.952 -54.605  -2.658  1.00  0.00    -0.031 A 
HETATM   28  C   UNL     1     -50.751 -53.599  -1.677  1.00  0.00     0.009 A 
HETATM   29  C   UNL     1     -51.692 -53.271  -0.701  1.00  0.00     0.001 A 
HETATM   30  C   UNL     1     -52.906 -53.932  -0.697  1.00  0.00     0.000 A 
HETATM   31  C   UNL     1     -53.156 -54.915  -1.651  1.00  0.00     0.001 A 
HETATM   32  C   UNL     1     -52.182 -55.259  -2.631  1.00  0.00     0.009 A 
ENDBRANCH  20  27
ENDBRANCH   2  20
TORSDOF 6
ENDMDL
MODEL 6
REMARK VINA RESULT:      -6.8      2.599      7.005
REMARK  6 active torsions:
REMARK  status: ('A' for Active; 'I' for Inactive)
REMARK    1  A    between atoms: N_1  and  C_8 
REMARK    2  A    between atoms: N_2  and  C_7 
REMARK    3  A    between atoms: C_8  and  C_9 
REMARK       I    between atoms: C_9  and  N_10 
REMARK    4  A    between atoms: N_10  and  C_11 
REMARK    5  A    between atoms: C_11  and  C_17 
REMARK    6  A    between atoms: C_11  and  C_18 
ROOT
HETATM    1  C   UNL     1     -41.338 -49.285  15.992  1.00  0.00     0.236 C 
HETATM    2  N   UNL     1     -42.441 -49.732  15.290  1.00  0.00    -0.347 N 
HETATM    3  O   UNL     1     -40.777 -49.936  16.869  1.00  0.00    -0.272 OA
HETATM    4  H   UNL     1     -42.705 -49.247  14.445  1.00  0.00     0.163 HD
ENDROOT
BRANCH   1   5
HETATM    5  C   UNL     1     -40.822 -47.911  15.528  1.00  0.00     0.240 C 
BRANCH   5   6
HETATM    6  N   UNL     1     -40.685 -47.816  14.076  1.00  0.00    -0.255 N 
HETATM    7  C   UNL     1     -41.467 -46.879  13.406  1.00  0.00     0.334 C 
HETATM    8  N   UNL     1     -41.417 -46.918  12.014  1.00  0.00    -0.279 N 
HETATM    9  O   UNL     1     -42.160 -46.060  14.004  1.00  0.00    -0.246 OA
HETATM   10  C   UNL     1     -40.382 -47.556  11.364  1.00  0.00     0.146 C 
HETATM   11  C   UNL     1     -39.447 -48.220  12.038  1.00  0.00     0.200 C 
HETATM   12  C   UNL     1     -39.554 -48.375  13.502  1.00  0.00     0.292 C 
HETATM   13  F   UNL     1     -38.402 -48.808  11.425  1.00  0.00    -0.199 F 
HETATM   14  O   UNL     1     -38.656 -48.922  14.136  1.00  0.00    -0.264 OA
BRANCH   8  15
HETATM   15  C   UNL     1     -42.584 -46.428  11.278  1.00  0.00     0.232 C 
HETATM   16  O   UNL     1     -43.589 -47.457  11.158  1.00  0.00    -0.366 OA
HETATM   17  C   UNL     1     -44.178 -47.375   9.855  1.00  0.00     0.170 C 
HETATM   18  C   UNL     1     -43.733 -46.060   9.261  1.00  0.00     0.031 C 
HETATM   19  C   UNL     1     -42.357 -45.895   9.868  1.00  0.00     0.056 C 
ENDBRANCH   8  15
ENDBRANCH   5   6
ENDBRANCH   1   5
BRANCH   2  20
HETATM   20  C   UNL     1     -42.990 -51.082  15.456  1.00  0.00     0.151 C 
BRANCH  20  21
HETATM   21  C   UNL     1     -44.520 -50.967  15.510  1.00  0.00    -0.031 A 
HETATM   22  C   UNL     1     -45.237 -50.883  16.713  1.00  0.00     0.009 A 
HETATM   23  C   UNL     1     -46.621 -51.114  16.744  1.00  0.00     0.001 A 
HETATM   24  C   UNL     1     -47.323 -51.410  15.572  1.00  0.00     0.000 A 
HETATM   25  C   UNL     1     -46.642 -51.454  14.363  1.00  0.00     0.001 A 
HETATM   26  C   UNL     1     -45.258 -51.236  14.332  1.00  0.00     0.009 A 
ENDBRANCH  20  21
BRANCH  20  27
HETATM   27  C   UNL     1     -42.253 -52.051  14.512  1.00  0.00    -0.031 A 
HETATM   28  C   UNL     1     -42.214 -53.410  14.920  1.00  0.00     0.009 A 
HETATM   29  C   UNL     1     -41.628 -54.428  14.167  1.00  0.00     0.001 A 
HETATM   30  C   UNL     1     -41.081 -54.116  12.937  1.00  0.00     0.000 A 
HETATM   31  C   UNL     1     -41.110 -52.799  12.486  1.00  0.00     0.001 A 
HETATM   32  C   UNL     1     -41.691 -51.762  13.270  1.00  0.00     0.009 A 
ENDBRANCH  20  27
ENDBRANCH   2  20
TORSDOF 6
ENDMDL
MODEL 7
REMARK VINA RESULT:      -6.8      2.528      4.588
REMARK  6 active torsions:
REMARK  status: ('A' for Active; 'I' for Inactive)
REMARK    1  A    between atoms: N_1  and  C_8 
REMARK    2  A    between atoms: N_2  and  C_7 
REMARK    3  A    between atoms: C_8  and  C_9 
REMARK       I    between atoms: C_9  and  N_10 
REMARK    4  A    between atoms: N_10  and  C_11 
REMARK    5  A    between atoms: C_11  and  C_17 
REMARK    6  A    between atoms: C_11  and  C_18 
ROOT
HETATM    1  C   UNL     1     -42.511 -51.160  12.408  1.00  0.00     0.236 C 
HETATM    2  N   UNL     1     -42.217 -49.829  12.190  1.00  0.00    -0.347 N 
HETATM    3  O   UNL     1     -41.877 -52.089  11.917  1.00  0.00    -0.272 OA
HETATM    4  H   UNL     1     -42.633 -49.136  12.794  1.00  0.00     0.163 HD
ENDROOT
BRANCH   1   5
HETATM    5  C   UNL     1     -43.676 -51.385  13.388  1.00  0.00     0.240 C 
BRANCH   5   6
HETATM    6  N   UNL     1     -43.729 -52.750  13.907  1.00  0.00    -0.255 N 
HETATM    7  C   UNL     1     -43.070 -53.020  15.103  1.00  0.00     0.334 C 
HETATM    8  N   UNL     1     -43.018 -54.359  15.488  1.00  0.00    -0.279 N 
HETATM    9  O   UNL     1     -42.565 -52.133  15.785  1.00  0.00    -0.246 OA
HETATM   10  C   UNL     1     -43.887 -55.282  14.946  1.00  0.00     0.146 C 
HETATM   11  C   UNL     1     -44.741 -54.946  13.984  1.00  0.00     0.200 C 
HETATM   12  C   UNL     1     -44.710 -53.590  13.402  1.00  0.00     0.292 C 
HETATM   13  F   UNL     1     -45.630 -55.820  13.476  1.00  0.00    -0.199 F 
HETATM   14  O   UNL     1     -45.545 -53.252  12.567  1.00  0.00    -0.264 OA
BRANCH   8  15
HETATM   15  C   UNL     1     -41.901 -54.779  16.337  1.00  0.00     0.232 C 
HETATM   16  O   UNL     1     -40.636 -54.504  15.701  1.00  0.00    -0.366 OA
HETATM   17  C   UNL     1     -39.739 -55.587  15.972  1.00  0.00     0.170 C 
HETATM   18  C   UNL     1     -40.377 -56.413  17.064  1.00  0.00     0.031 C 
HETATM   19  C   UNL     1     -41.850 -56.242  16.762  1.00  0.00     0.056 C 
ENDBRANCH   8  15
ENDBRANCH   5   6
ENDBRANCH   1   5
BRANCH   2  20
HETATM   20  C   UNL     1     -41.044 -49.393  11.424  1.00  0.00     0.151 C 
BRANCH  20  21
HETATM   21  C   UNL     1     -41.376 -48.042  10.777  1.00  0.00    -0.031 A 
HETATM   22  C   UNL     1     -40.617 -46.882  10.998  1.00  0.00     0.009 A 
HETATM   23  C   UNL     1     -41.125 -45.616  10.672  1.00  0.00     0.001 A 
HETATM   24  C   UNL     1     -42.392 -45.480  10.096  1.00  0.00     0.000 A 
HETATM   25  C   UNL     1     -43.142 -46.616   9.827  1.00  0.00     0.001 A 
HETATM   26  C   UNL     1     -42.642 -47.881  10.163  1.00  0.00     0.009 A 
ENDBRANCH  20  21
BRANCH  20  27
HETATM   27  C   UNL     1     -39.772 -49.635  12.260  1.00  0.00    -0.031 A 
HETATM   28  C   UNL     1     -39.824 -49.208  13.613  1.00  0.00     0.009 A 
HETATM   29  C   UNL     1     -38.782 -49.389  14.522  1.00  0.00     0.001 A 
HETATM   30  C   UNL     1     -37.642 -50.050  14.106  1.00  0.00     0.000 A 
HETATM   31  C   UNL     1     -37.551 -50.503  12.793  1.00  0.00     0.001 A 
HETATM   32  C   UNL     1     -38.611 -50.296  11.864  1.00  0.00     0.009 A 
ENDBRANCH  20  27
ENDBRANCH   2  20
TORSDOF 6
ENDMDL
MODEL 8
REMARK VINA RESULT:      -6.7      2.727      5.269
REMARK  6 active torsions:
REMARK  status: ('A' for Active; 'I' for Inactive)
REMARK    1  A    between atoms: N_1  and  C_8 
REMARK    2  A    between atoms: N_2  and  C_7 
REMARK    3  A    between atoms: C_8  and  C_9 
REMARK       I    between atoms: C_9  and  N_10 
REMARK    4  A    between atoms: N_10  and  C_11 
REMARK    5  A    between atoms: C_11  and  C_17 
REMARK    6  A    between atoms: C_11  and  C_18 
ROOT
HETATM    1  C   UNL     1     -42.784 -49.254  13.423  1.00  0.00     0.236 C 
HETATM    2  N   UNL     1     -41.493 -48.905  13.769  1.00  0.00    -0.347 N 
HETATM    3  O   UNL     1     -43.245 -49.131  12.292  1.00  0.00    -0.272 OA
HETATM    4  H   UNL     1     -41.119 -49.239  14.645  1.00  0.00     0.163 HD
ENDROOT
BRANCH   1   5
HETATM    5  C   UNL     1     -43.585 -49.886  14.576  1.00  0.00     0.240 C 
BRANCH   5   6
HETATM    6  N   UNL     1     -43.771 -51.327  14.417  1.00  0.00    -0.255 N 
HETATM    7  C   UNL     1     -42.730 -52.167  14.799  1.00  0.00     0.334 C 
HETATM    8  N   UNL     1     -42.887 -53.518  14.498  1.00  0.00    -0.279 N 
HETATM    9  O   UNL     1     -41.730 -51.746  15.375  1.00  0.00    -0.246 OA
HETATM   10  C   UNL     1     -44.132 -54.036  14.211  1.00  0.00     0.146 C 
HETATM   11  C   UNL     1     -45.205 -53.255  14.134  1.00  0.00     0.200 C 
HETATM   12  C   UNL     1     -45.068 -51.790  14.255  1.00  0.00     0.292 C 
HETATM   13  F   UNL     1     -46.437 -53.747  13.904  1.00  0.00    -0.199 F 
HETATM   14  O   UNL     1     -46.064 -51.070  14.259  1.00  0.00    -0.264 OA
BRANCH   8  15
HETATM   15  C   UNL     1     -41.675 -54.318  14.313  1.00  0.00     0.232 C 
HETATM   16  O   UNL     1     -41.034 -54.587  15.578  1.00  0.00    -0.366 OA
HETATM   17  C   UNL     1     -39.614 -54.504  15.402  1.00  0.00     0.170 C 
HETATM   18  C   UNL     1     -39.365 -54.483  13.912  1.00  0.00     0.031 C 
HETATM   19  C   UNL     1     -40.590 -53.755  13.402  1.00  0.00     0.056 C 
ENDBRANCH   8  15
ENDBRANCH   5   6
ENDBRANCH   1   5
BRANCH   2  20
HETATM   20  C   UNL     1     -40.508 -48.443  12.784  1.00  0.00     0.151 C 
BRANCH  20  21
HETATM   21  C   UNL     1     -40.301 -46.937  12.992  1.00  0.00    -0.031 A 
HETATM   22  C   UNL     1     -40.460 -45.995  11.964  1.00  0.00     0.009 A 
HETATM   23  C   UNL     1     -39.949 -44.695  12.093  1.00  0.00     0.001 A 
HETATM   24  C   UNL     1     -39.290 -44.298  13.260  1.00  0.00     0.000 A 
HETATM   25  C   UNL     1     -39.159 -45.199  14.308  1.00  0.00     0.001 A 
HETATM   26  C   UNL     1     -39.659 -46.502  14.177  1.00  0.00     0.009 A 
ENDBRANCH  20  21
BRANCH  20  27
HETATM   27  C   UNL     1     -39.343 -49.451  12.718  1.00  0.00    -0.031 A 
HETATM   28  C   UNL     1     -38.525 -49.382  11.560  1.00  0.00     0.009 A 
HETATM   29  C   UNL     1     -37.404 -50.187  11.356  1.00  0.00     0.001 A 
HETATM   30  C   UNL     1     -37.038 -51.082  12.343  1.00  0.00     0.000 A 
HETATM   31  C   UNL     1     -37.799 -51.172  13.505  1.00  0.00     0.001 A 
HETATM   32  C   UNL     1     -38.955 -50.363  13.697  1.00  0.00     0.009 A 
ENDBRANCH  20  27
ENDBRANCH   2  20
TORSDOF 6
ENDMDL
MODEL 9
REMARK VINA RESULT:      -6.7      2.288      3.149
REMARK  6 active torsions:
REMARK  status: ('A' for Active; 'I' for Inactive)
REMARK    1  A    between atoms: N_1  and  C_8 
REMARK    2  A    between atoms: N_2  and  C_7 
REMARK    3  A    between atoms: C_8  and  C_9 
REMARK       I    between atoms: C_9  and  N_10 
REMARK    4  A    between atoms: N_10  and  C_11 
REMARK    5  A    between atoms: C_11  and  C_17 
REMARK    6  A    between atoms: C_11  and  C_18 
ROOT
HETATM    1  C   UNL     1     -41.030 -50.657  11.773  1.00  0.00     0.236 C 
HETATM    2  N   UNL     1     -42.232 -49.977  11.773  1.00  0.00    -0.347 N 
HETATM    3  O   UNL     1     -39.934 -50.109  11.848  1.00  0.00    -0.272 OA
HETATM    4  H   UNL     1     -43.082 -50.496  11.934  1.00  0.00     0.163 HD
ENDROOT
BRANCH   1   5
HETATM    5  C   UNL     1     -41.185 -52.188  11.743  1.00  0.00     0.240 C 
BRANCH   5   6
HETATM    6  N   UNL     1     -41.609 -52.743  13.026  1.00  0.00    -0.255 N 
HETATM    7  C   UNL     1     -42.938 -53.134  13.161  1.00  0.00     0.334 C 
HETATM    8  N   UNL     1     -43.339 -53.520  14.439  1.00  0.00    -0.279 N 
HETATM    9  O   UNL     1     -43.715 -53.145  12.211  1.00  0.00    -0.246 OA
HETATM   10  C   UNL     1     -42.408 -53.869  15.394  1.00  0.00     0.146 C 
HETATM   11  C   UNL     1     -41.103 -53.772  15.156  1.00  0.00     0.200 C 
HETATM   12  C   UNL     1     -40.620 -53.189  13.889  1.00  0.00     0.292 C 
HETATM   13  F   UNL     1     -40.179 -54.154  16.058  1.00  0.00    -0.199 F 
HETATM   14  O   UNL     1     -39.419 -53.165  13.634  1.00  0.00    -0.264 OA
BRANCH   8  15
HETATM   15  C   UNL     1     -44.753 -53.363  14.784  1.00  0.00     0.232 C 
HETATM   16  O   UNL     1     -45.222 -52.038  14.453  1.00  0.00    -0.366 OA
HETATM   17  C   UNL     1     -46.115 -51.595  15.483  1.00  0.00     0.170 C 
HETATM   18  C   UNL     1     -46.442 -52.808  16.322  1.00  0.00     0.031 C 
HETATM   19  C   UNL     1     -45.157 -53.602  16.234  1.00  0.00     0.056 C 
ENDBRANCH   8  15
ENDBRANCH   5   6
ENDBRANCH   1   5
BRANCH   2  20
HETATM   20  C   UNL     1     -42.319 -48.525  11.965  1.00  0.00     0.151 C 
BRANCH  20  21
HETATM   21  C   UNL     1     -43.086 -47.935  10.775  1.00  0.00    -0.031 A 
HETATM   22  C   UNL     1     -44.468 -47.694  10.801  1.00  0.00     0.009 A 
HETATM   23  C   UNL     1     -45.184 -47.476   9.614  1.00  0.00     0.001 A 
HETATM   24  C   UNL     1     -44.533 -47.470   8.377  1.00  0.00     0.000 A 
HETATM   25  C   UNL     1     -43.160 -47.662   8.330  1.00  0.00     0.001 A 
HETATM   26  C   UNL     1     -42.444 -47.892   9.513  1.00  0.00     0.009 A 
ENDBRANCH  20  21
BRANCH  20  27
HETATM   27  C   UNL     1     -42.684 -48.226  13.432  1.00  0.00    -0.031 A 
HETATM   28  C   UNL     1     -42.996 -49.352  14.238  1.00  0.00     0.009 A 
HETATM   29  C   UNL     1     -43.304 -49.270  15.596  1.00  0.00     0.001 A 
HETATM   30  C   UNL     1     -43.275 -48.033  16.213  1.00  0.00     0.000 A 
HETATM   31  C   UNL     1     -42.957 -46.901  15.467  1.00  0.00     0.001 A 
HETATM   32  C   UNL     1     -42.664 -46.991  14.076  1.00  0.00     0.009 A 
ENDBRANCH  20  27
ENDBRANCH   2  20
TORSDOF 6
ENDMDL
