MODEL 1
REMARK VINA RESULT:      -7.0      0.000      0.000
REMARK  6 active torsions:
REMARK  status: ('A' for Active; 'I' for Inactive)
REMARK    1  A    between atoms: O_1  and  C_2 
REMARK    2  A    between atoms: C_2  and  C_3 
REMARK    3  A    between atoms: C_2  and  C_19 
REMARK    4  A    between atoms: C_3  and  N_4 
REMARK    5  A    between atoms: C_7  and  C_16 
REMARK    6  A    between atoms: C_9  and  C_12 
ROOT
HETATM    1  N   UNL     1     -41.516 -49.709  12.137  1.00  0.00    -0.254 N 
HETATM    2  N   UNL     1     -40.173 -50.009  12.281  1.00  0.00    -0.299 N 
ATOM      3  HN  UNL     1     -39.863 -50.897  12.677  1.00  0.00     0.187 HD
HETATM    4  C   UNL     1     -39.330 -49.112  11.890  1.00  0.00     0.031 A 
HETATM    5  C   UNL     1     -39.677 -47.797  11.346  1.00  0.00     0.049 A 
HETATM    6  C   UNL     1     -40.979 -47.520  11.196  1.00  0.00     0.119 A 
HETATM    7  C   UNL     1     -41.995 -48.531  11.557  1.00  0.00     0.277 A 
HETATM    8  O   UNL     1     -43.185 -48.327  11.351  1.00  0.00    -0.266 OA
ENDROOT
BRANCH   1   9
HETATM    9  C   UNL     1     -42.464 -50.780  12.492  1.00  0.00     0.189 C 
BRANCH   9  10
HETATM   10  C   UNL     1     -41.813 -52.177  12.490  1.00  0.00     0.174 C 
BRANCH  10  11
HETATM   11  O   UNL     1     -41.440 -52.553  11.155  1.00  0.00    -0.389 OA
HETATM   12  H   UNL     1     -42.283 -52.822  10.729  1.00  0.00     0.210 HD
ENDBRANCH  10  11
BRANCH  10  13
HETATM   13  C   UNL     1     -42.761 -53.213  13.047  1.00  0.00     0.011 A 
HETATM   14  C   UNL     1     -44.072 -53.358  12.563  1.00  0.00     0.013 A 
HETATM   15  C   UNL     1     -44.940 -54.301  13.124  1.00  0.00     0.001 A 
HETATM   16  C   UNL     1     -44.514 -55.105  14.180  1.00  0.00     0.003 A 
HETATM   17  C   UNL     1     -43.219 -54.966  14.677  1.00  0.00     0.043 A 
HETATM   18  C   UNL     1     -42.360 -54.025  14.111  1.00  0.00     0.125 A 
HETATM   19  F   UNL     1     -41.125 -53.894  14.618  1.00  0.00    -0.205 F 
ENDBRANCH  10  13
ENDBRANCH   9  10
ENDBRANCH   1   9
BRANCH   4  20
HETATM   20  C   UNL     1     -37.882 -49.389  12.036  1.00  0.00     0.037 A 
HETATM   21  C   UNL     1     -37.124 -50.092  10.930  1.00  0.00     0.011 A 
HETATM   22  C   UNL     1     -37.373 -50.800  12.227  1.00  0.00     0.011 A 
ENDBRANCH   4  20
BRANCH   6  23
HETATM   23  C   UNL     1     -41.443 -46.210  10.678  1.00  0.00     0.422 C 
HETATM   24  F   UNL     1     -42.276 -46.229   9.614  1.00  0.00    -0.166 F 
HETATM   25  F   UNL     1     -42.096 -45.521  11.657  1.00  0.00    -0.166 F 
HETATM   26  F   UNL     1     -40.383 -45.431  10.327  1.00  0.00    -0.166 F 
ENDBRANCH   6  23
TORSDOF 6
ENDMDL
MODEL 2
REMARK VINA RESULT:      -6.8      2.617      4.102
REMARK  6 active torsions:
REMARK  status: ('A' for Active; 'I' for Inactive)
REMARK    1  A    between atoms: O_1  and  C_2 
REMARK    2  A    between atoms: C_2  and  C_3 
REMARK    3  A    between atoms: C_2  and  C_19 
REMARK    4  A    between atoms: C_3  and  N_4 
REMARK    5  A    between atoms: C_7  and  C_16 
REMARK    6  A    between atoms: C_9  and  C_12 
ROOT
HETATM    1  N   UNL     1     -41.203 -51.118  12.759  1.00  0.00    -0.254 N 
HETATM    2  N   UNL     1     -41.962 -50.172  12.092  1.00  0.00    -0.299 N 
ATOM      3  HN  UNL     1     -42.979 -50.161  12.158  1.00  0.00     0.187 HD
HETATM    4  C   UNL     1     -41.320 -49.304  11.383  1.00  0.00     0.031 A 
HETATM    5  C   UNL     1     -39.867 -49.263  11.198  1.00  0.00     0.049 A 
HETATM    6  C   UNL     1     -39.139 -50.173  11.858  1.00  0.00     0.119 A 
HETATM    7  C   UNL     1     -39.805 -51.150  12.744  1.00  0.00     0.277 A 
HETATM    8  O   UNL     1     -39.151 -51.936  13.418  1.00  0.00    -0.266 OA
ENDROOT
BRANCH   1   9
HETATM    9  C   UNL     1     -41.940 -52.038  13.644  1.00  0.00     0.189 C 
BRANCH   9  10
HETATM   10  C   UNL     1     -42.859 -53.001  12.867  1.00  0.00     0.174 C 
BRANCH  10  11
HETATM   11  O   UNL     1     -42.800 -52.723  11.459  1.00  0.00    -0.389 OA
HETATM   12  H   UNL     1     -41.841 -52.646  11.262  1.00  0.00     0.210 HD
ENDBRANCH  10  11
BRANCH  10  13
HETATM   13  C   UNL     1     -44.290 -52.874  13.334  1.00  0.00     0.011 A 
HETATM   14  C   UNL     1     -44.988 -51.657  13.267  1.00  0.00     0.013 A 
HETATM   15  C   UNL     1     -46.301 -51.560  13.743  1.00  0.00     0.001 A 
HETATM   16  C   UNL     1     -46.929 -52.673  14.299  1.00  0.00     0.003 A 
HETATM   17  C   UNL     1     -46.245 -53.885  14.381  1.00  0.00     0.043 A 
HETATM   18  C   UNL     1     -44.938 -53.973  13.902  1.00  0.00     0.125 A 
HETATM   19  F   UNL     1     -44.292 -55.143  14.010  1.00  0.00    -0.205 F 
ENDBRANCH  10  13
ENDBRANCH   9  10
ENDBRANCH   1   9
BRANCH   4  20
HETATM   20  C   UNL     1     -42.094 -48.280  10.644  1.00  0.00     0.037 A 
HETATM   21  C   UNL     1     -42.303 -46.904  11.240  1.00  0.00     0.011 A 
HETATM   22  C   UNL     1     -43.463 -47.846  11.118  1.00  0.00     0.011 A 
ENDBRANCH   4  20
BRANCH   6  23
HETATM   23  C   UNL     1     -37.663 -50.237  11.724  1.00  0.00     0.422 C 
HETATM   24  F   UNL     1     -37.116 -51.455  11.515  1.00  0.00    -0.166 F 
HETATM   25  F   UNL     1     -37.250 -49.455  10.686  1.00  0.00    -0.166 F 
HETATM   26  F   UNL     1     -37.058 -49.724  12.830  1.00  0.00    -0.166 F 
ENDBRANCH   6  23
TORSDOF 6
ENDMDL
MODEL 3
REMARK VINA RESULT:      -6.5      2.250      4.141
REMARK  6 active torsions:
REMARK  status: ('A' for Active; 'I' for Inactive)
REMARK    1  A    between atoms: O_1  and  C_2 
REMARK    2  A    between atoms: C_2  and  C_3 
REMARK    3  A    between atoms: C_2  and  C_19 
REMARK    4  A    between atoms: C_3  and  N_4 
REMARK    5  A    between atoms: C_7  and  C_16 
REMARK    6  A    between atoms: C_9  and  C_12 
ROOT
HETATM    1  N   UNL     1     -41.150 -48.679  11.097  1.00  0.00    -0.254 N 
HETATM    2  N   UNL     1     -42.467 -48.614  10.675  1.00  0.00    -0.299 N 
ATOM      3  HN  UNL     1     -43.051 -49.448  10.620  1.00  0.00     0.187 HD
HETATM    4  C   UNL     1     -42.919 -47.448  10.353  1.00  0.00     0.031 A 
HETATM    5  C   UNL     1     -42.148 -46.203  10.363  1.00  0.00     0.049 A 
HETATM    6  C   UNL     1     -40.879 -46.271  10.787  1.00  0.00     0.119 A 
HETATM    7  C   UNL     1     -40.320 -47.562  11.238  1.00  0.00     0.277 A 
HETATM    8  O   UNL     1     -39.190 -47.630  11.705  1.00  0.00    -0.266 OA
ENDROOT
BRANCH   1   9
HETATM    9  C   UNL     1     -40.677 -49.997  11.556  1.00  0.00     0.189 C 
BRANCH   9  10
HETATM   10  C   UNL     1     -41.791 -50.831  12.218  1.00  0.00     0.174 C 
BRANCH  10  11
HETATM   11  O   UNL     1     -42.511 -50.037  13.173  1.00  0.00    -0.389 OA
HETATM   12  H   UNL     1     -42.615 -49.162  12.739  1.00  0.00     0.210 HD
ENDBRANCH  10  11
BRANCH  10  13
HETATM   13  C   UNL     1     -41.213 -52.039  12.919  1.00  0.00     0.011 A 
HETATM   14  C   UNL     1     -39.916 -52.036  13.457  1.00  0.00     0.013 A 
HETATM   15  C   UNL     1     -39.394 -53.183  14.067  1.00  0.00     0.001 A 
HETATM   16  C   UNL     1     -40.156 -54.347  14.139  1.00  0.00     0.003 A 
HETATM   17  C   UNL     1     -41.442 -54.367  13.601  1.00  0.00     0.043 A 
HETATM   18  C   UNL     1     -41.956 -53.221  12.998  1.00  0.00     0.125 A 
HETATM   19  F   UNL     1     -43.187 -53.268  12.468  1.00  0.00    -0.205 F 
ENDBRANCH  10  13
ENDBRANCH   9  10
ENDBRANCH   1   9
BRANCH   4  20
HETATM   20  C   UNL     1     -44.321 -47.336   9.886  1.00  0.00     0.037 A 
HETATM   21  C   UNL     1     -44.681 -47.698   8.461  1.00  0.00     0.011 A 
HETATM   22  C   UNL     1     -44.731 -46.266   8.900  1.00  0.00     0.011 A 
ENDBRANCH   4  20
BRANCH   6  23
HETATM   23  C   UNL     1     -40.001 -45.077  10.814  1.00  0.00     0.422 C 
HETATM   24  F   UNL     1     -39.306 -44.848  11.951  1.00  0.00    -0.166 F 
HETATM   25  F   UNL     1     -39.075 -45.149   9.815  1.00  0.00    -0.166 F 
HETATM   26  F   UNL     1     -40.719 -43.947  10.564  1.00  0.00    -0.166 F 
ENDBRANCH   6  23
TORSDOF 6
ENDMDL
MODEL 4
REMARK VINA RESULT:      -6.5      2.457      7.686
REMARK  6 active torsions:
REMARK  status: ('A' for Active; 'I' for Inactive)
REMARK    1  A    between atoms: O_1  and  C_2 
REMARK    2  A    between atoms: C_2  and  C_3 
REMARK    3  A    between atoms: C_2  and  C_19 
REMARK    4  A    between atoms: C_3  and  N_4 
REMARK    5  A    between atoms: C_7  and  C_16 
REMARK    6  A    between atoms: C_9  and  C_12 
ROOT
HETATM    1  N   UNL     1     -42.591 -50.541  12.551  1.00  0.00    -0.254 N 
HETATM    2  N   UNL     1     -43.951 -50.462  12.794  1.00  0.00    -0.299 N 
ATOM      3  HN  UNL     1     -44.476 -49.607  12.613  1.00  0.00     0.187 HD
HETATM    4  C   UNL     1     -44.523 -51.521  13.260  1.00  0.00     0.031 A 
HETATM    5  C   UNL     1     -43.848 -52.779  13.587  1.00  0.00     0.049 A 
HETATM    6  C   UNL     1     -42.534 -52.854  13.336  1.00  0.00     0.119 A 
HETATM    7  C   UNL     1     -41.832 -51.701  12.735  1.00  0.00     0.277 A 
HETATM    8  O   UNL     1     -40.650 -51.778  12.424  1.00  0.00    -0.266 OA
ENDROOT
BRANCH   1   9
HETATM    9  C   UNL     1     -41.970 -49.360  11.926  1.00  0.00     0.189 C 
BRANCH   9  10
HETATM   10  C   UNL     1     -42.918 -48.145  11.879  1.00  0.00     0.174 C 
BRANCH  10  11
HETATM   11  O   UNL     1     -43.854 -48.282  10.798  1.00  0.00    -0.389 OA
HETATM   12  H   UNL     1     -43.364 -47.973  10.005  1.00  0.00     0.210 HD
ENDBRANCH  10  11
BRANCH  10  13
HETATM   13  C   UNL     1     -42.140 -46.863  11.696  1.00  0.00     0.011 A 
HETATM   14  C   UNL     1     -41.111 -46.746  10.747  1.00  0.00     0.013 A 
HETATM   15  C   UNL     1     -40.382 -45.558  10.627  1.00  0.00     0.001 A 
HETATM   16  C   UNL     1     -40.665 -44.475  11.458  1.00  0.00     0.003 A 
HETATM   17  C   UNL     1     -41.677 -44.579  12.411  1.00  0.00     0.043 A 
HETATM   18  C   UNL     1     -42.400 -45.766  12.522  1.00  0.00     0.125 A 
HETATM   19  F   UNL     1     -43.356 -45.852  13.459  1.00  0.00    -0.205 F 
ENDBRANCH  10  13
ENDBRANCH   9  10
ENDBRANCH   1   9
BRANCH   4  20
HETATM   20  C   UNL     1     -45.976 -51.476  13.543  1.00  0.00     0.037 A 
HETATM   21  C   UNL     1     -46.473 -51.338  14.966  1.00  0.00     0.011 A 
HETATM   22  C   UNL     1     -46.673 -52.628  14.230  1.00  0.00     0.011 A 
ENDBRANCH   4  20
BRANCH   6  23
HETATM   23  C   UNL     1     -41.747 -54.071  13.651  1.00  0.00     0.422 C 
HETATM   24  F   UNL     1     -41.137 -54.694  12.619  1.00  0.00    -0.166 F 
HETATM   25  F   UNL     1     -40.764 -53.776  14.549  1.00  0.00    -0.166 F 
HETATM   26  F   UNL     1     -42.530 -55.003  14.260  1.00  0.00    -0.166 F 
ENDBRANCH   6  23
TORSDOF 6
ENDMDL
MODEL 5
REMARK VINA RESULT:      -6.5      2.483      3.704
REMARK  6 active torsions:
REMARK  status: ('A' for Active; 'I' for Inactive)
REMARK    1  A    between atoms: O_1  and  C_2 
REMARK    2  A    between atoms: C_2  and  C_3 
REMARK    3  A    between atoms: C_2  and  C_19 
REMARK    4  A    between atoms: C_3  and  N_4 
REMARK    5  A    between atoms: C_7  and  C_16 
REMARK    6  A    between atoms: C_9  and  C_12 
ROOT
HETATM    1  N   UNL     1     -40.965 -51.131  11.968  1.00  0.00    -0.254 N 
HETATM    2  N   UNL     1     -42.063 -50.298  11.842  1.00  0.00    -0.299 N 
ATOM      3  HN  UNL     1     -42.959 -50.644  11.499  1.00  0.00     0.187 HD
HETATM    4  C   UNL     1     -41.899 -49.063  12.181  1.00  0.00     0.031 A 
HETATM    5  C   UNL     1     -40.645 -48.467  12.647  1.00  0.00     0.049 A 
HETATM    6  C   UNL     1     -39.591 -49.282  12.780  1.00  0.00     0.119 A 
HETATM    7  C   UNL     1     -39.729 -50.722  12.478  1.00  0.00     0.277 A 
HETATM    8  O   UNL     1     -38.800 -51.497  12.671  1.00  0.00    -0.266 OA
ENDROOT
BRANCH   1   9
HETATM    9  C   UNL     1     -41.192 -52.557  11.674  1.00  0.00     0.189 C 
BRANCH   9  10
HETATM   10  C   UNL     1     -41.071 -53.449  12.925  1.00  0.00     0.174 C 
BRANCH  10  11
HETATM   11  O   UNL     1     -40.186 -54.550  12.671  1.00  0.00    -0.389 OA
HETATM   12  H   UNL     1     -40.587 -55.020  11.907  1.00  0.00     0.210 HD
ENDBRANCH  10  11
BRANCH  10  13
HETATM   13  C   UNL     1     -42.423 -53.988  13.334  1.00  0.00     0.011 A 
HETATM   14  C   UNL     1     -43.578 -53.754  12.570  1.00  0.00     0.013 A 
HETATM   15  C   UNL     1     -44.823 -54.234  12.993  1.00  0.00     0.001 A 
HETATM   16  C   UNL     1     -44.931 -54.944  14.187  1.00  0.00     0.003 A 
HETATM   17  C   UNL     1     -43.794 -55.176  14.960  1.00  0.00     0.043 A 
HETATM   18  C   UNL     1     -42.558 -54.697  14.530  1.00  0.00     0.125 A 
HETATM   19  F   UNL     1     -41.481 -54.913  15.299  1.00  0.00    -0.205 F 
ENDBRANCH  10  13
ENDBRANCH   9  10
ENDBRANCH   1   9
BRANCH   4  20
HETATM   20  C   UNL     1     -43.047 -48.135  12.052  1.00  0.00     0.037 A 
HETATM   21  C   UNL     1     -43.357 -47.483  10.722  1.00  0.00     0.011 A 
HETATM   22  C   UNL     1     -42.832 -46.652  11.853  1.00  0.00     0.011 A 
ENDBRANCH   4  20
BRANCH   6  23
HETATM   23  C   UNL     1     -38.267 -48.780  13.221  1.00  0.00     0.422 C 
HETATM   24  F   UNL     1     -37.220 -48.991  12.392  1.00  0.00    -0.166 F 
HETATM   25  F   UNL     1     -38.319 -47.433  13.427  1.00  0.00    -0.166 F 
HETATM   26  F   UNL     1     -37.925 -49.320  14.423  1.00  0.00    -0.166 F 
ENDBRANCH   6  23
TORSDOF 6
ENDMDL
MODEL 6
REMARK VINA RESULT:      -6.3      3.187      4.617
REMARK  6 active torsions:
REMARK  status: ('A' for Active; 'I' for Inactive)
REMARK    1  A    between atoms: O_1  and  C_2 
REMARK    2  A    between atoms: C_2  and  C_3 
REMARK    3  A    between atoms: C_2  and  C_19 
REMARK    4  A    between atoms: C_3  and  N_4 
REMARK    5  A    between atoms: C_7  and  C_16 
REMARK    6  A    between atoms: C_9  and  C_12 
ROOT
HETATM    1  N   UNL     1     -41.423 -52.210  13.141  1.00  0.00    -0.254 N 
HETATM    2  N   UNL     1     -41.209 -53.062  14.211  1.00  0.00    -0.299 N 
ATOM      3  HN  UNL     1     -41.955 -53.644  14.588  1.00  0.00     0.187 HD
HETATM    4  C   UNL     1     -40.017 -53.083  14.708  1.00  0.00     0.031 A 
HETATM    5  C   UNL     1     -38.892 -52.258  14.261  1.00  0.00     0.049 A 
HETATM    6  C   UNL     1     -39.104 -51.447  13.216  1.00  0.00     0.119 A 
HETATM    7  C   UNL     1     -40.425 -51.427  12.554  1.00  0.00     0.277 A 
HETATM    8  O   UNL     1     -40.614 -50.754  11.548  1.00  0.00    -0.266 OA
ENDROOT
BRANCH   1   9
HETATM    9  C   UNL     1     -42.759 -52.270  12.519  1.00  0.00     0.189 C 
BRANCH   9  10
HETATM   10  C   UNL     1     -43.639 -53.391  13.106  1.00  0.00     0.174 C 
BRANCH  10  11
HETATM   11  O   UNL     1     -44.132 -54.239  12.058  1.00  0.00    -0.389 OA
HETATM   12  H   UNL     1     -44.656 -54.928  12.523  1.00  0.00     0.210 HD
ENDBRANCH  10  11
BRANCH  10  13
HETATM   13  C   UNL     1     -44.810 -52.813  13.865  1.00  0.00     0.011 A 
HETATM   14  C   UNL     1     -45.698 -51.897  13.277  1.00  0.00     0.013 A 
HETATM   15  C   UNL     1     -46.752 -51.350  14.017  1.00  0.00     0.001 A 
HETATM   16  C   UNL     1     -46.928 -51.702  15.354  1.00  0.00     0.003 A 
HETATM   17  C   UNL     1     -46.049 -52.603  15.953  1.00  0.00     0.043 A 
HETATM   18  C   UNL     1     -45.003 -53.146  15.209  1.00  0.00     0.125 A 
HETATM   19  F   UNL     1     -44.157 -53.994  15.811  1.00  0.00    -0.205 F 
ENDBRANCH  10  13
ENDBRANCH   9  10
ENDBRANCH   1   9
BRANCH   4  20
HETATM   20  C   UNL     1     -39.746 -53.973  15.861  1.00  0.00     0.037 A 
HETATM   21  C   UNL     1     -39.147 -55.346  15.641  1.00  0.00     0.011 A 
HETATM   22  C   UNL     1     -40.570 -55.219  16.094  1.00  0.00     0.011 A 
ENDBRANCH   4  20
BRANCH   6  23
HETATM   23  C   UNL     1     -38.043 -50.551  12.696  1.00  0.00     0.422 C 
HETATM   24  F   UNL     1     -37.676 -50.714  11.405  1.00  0.00    -0.166 F 
HETATM   25  F   UNL     1     -38.426 -49.248  12.817  1.00  0.00    -0.166 F 
HETATM   26  F   UNL     1     -36.909 -50.669  13.440  1.00  0.00    -0.166 F 
ENDBRANCH   6  23
TORSDOF 6
ENDMDL
MODEL 7
REMARK VINA RESULT:      -6.1      2.543      3.935
REMARK  6 active torsions:
REMARK  status: ('A' for Active; 'I' for Inactive)
REMARK    1  A    between atoms: O_1  and  C_2 
REMARK    2  A    between atoms: C_2  and  C_3 
REMARK    3  A    between atoms: C_2  and  C_19 
REMARK    4  A    between atoms: C_3  and  N_4 
REMARK    5  A    between atoms: C_7  and  C_16 
REMARK    6  A    between atoms: C_9  and  C_12 
ROOT
HETATM    1  N   UNL     1     -40.409 -51.811  13.841  1.00  0.00    -0.254 N 
HETATM    2  N   UNL     1     -41.541 -51.217  14.372  1.00  0.00    -0.299 N 
ATOM      3  HN  UNL     1     -42.264 -51.765  14.837  1.00  0.00     0.187 HD
HETATM    4  C   UNL     1     -41.638 -49.935  14.249  1.00  0.00     0.031 A 
HETATM    5  C   UNL     1     -40.674 -49.069  13.566  1.00  0.00     0.049 A 
HETATM    6  C   UNL     1     -39.574 -49.649  13.068  1.00  0.00     0.119 A 
HETATM    7  C   UNL     1     -39.366 -51.103  13.237  1.00  0.00     0.277 A 
HETATM    8  O   UNL     1     -38.330 -51.637  12.861  1.00  0.00    -0.266 OA
ENDROOT
BRANCH   1   9
HETATM    9  C   UNL     1     -40.263 -53.258  14.076  1.00  0.00     0.189 C 
BRANCH   9  10
HETATM   10  C   UNL     1     -40.974 -54.109  13.005  1.00  0.00     0.174 C 
BRANCH  10  11
HETATM   11  O   UNL     1     -40.622 -53.656  11.690  1.00  0.00    -0.389 OA
HETATM   12  H   UNL     1     -39.664 -53.446  11.748  1.00  0.00     0.210 HD
ENDBRANCH  10  11
BRANCH  10  13
HETATM   13  C   UNL     1     -42.475 -54.032  13.168  1.00  0.00     0.011 A 
HETATM   14  C   UNL     1     -43.277 -53.264  12.308  1.00  0.00     0.013 A 
HETATM   15  C   UNL     1     -44.660 -53.182  12.506  1.00  0.00     0.001 A 
HETATM   16  C   UNL     1     -45.258 -53.857  13.569  1.00  0.00     0.003 A 
HETATM   17  C   UNL     1     -44.473 -54.616  14.436  1.00  0.00     0.043 A 
HETATM   18  C   UNL     1     -43.096 -54.695  14.230  1.00  0.00     0.125 A 
HETATM   19  F   UNL     1     -42.357 -55.414  15.087  1.00  0.00    -0.205 F 
ENDBRANCH  10  13
ENDBRANCH   9  10
ENDBRANCH   1   9
BRANCH   4  20
HETATM   20  C   UNL     1     -42.839 -49.260  14.794  1.00  0.00     0.037 A 
HETATM   21  C   UNL     1     -43.048 -49.164  16.290  1.00  0.00     0.011 A 
HETATM   22  C   UNL     1     -43.938 -50.048  15.470  1.00  0.00     0.011 A 
ENDBRANCH   4  20
BRANCH   6  23
HETATM   23  C   UNL     1     -38.545 -48.872  12.336  1.00  0.00     0.422 C 
HETATM   24  F   UNL     1     -38.079 -49.399  11.183  1.00  0.00    -0.166 F 
HETATM   25  F   UNL     1     -39.026 -47.636  12.018  1.00  0.00    -0.166 F 
HETATM   26  F   UNL     1     -37.460 -48.648  13.128  1.00  0.00    -0.166 F 
ENDBRANCH   6  23
TORSDOF 6
ENDMDL
MODEL 8
REMARK VINA RESULT:      -5.9      2.490      3.906
REMARK  6 active torsions:
REMARK  status: ('A' for Active; 'I' for Inactive)
REMARK    1  A    between atoms: O_1  and  C_2 
REMARK    2  A    between atoms: C_2  and  C_3 
REMARK    3  A    between atoms: C_2  and  C_19 
REMARK    4  A    between atoms: C_3  and  N_4 
REMARK    5  A    between atoms: C_7  and  C_16 
REMARK    6  A    between atoms: C_9  and  C_12 
ROOT
HETATM    1  N   UNL     1     -41.407 -49.106  11.695  1.00  0.00    -0.254 N 
HETATM    2  N   UNL     1     -42.470 -48.892  10.836  1.00  0.00    -0.299 N 
ATOM      3  HN  UNL     1     -42.912 -49.660  10.332  1.00  0.00     0.187 HD
HETATM    4  C   UNL     1     -42.876 -47.673  10.703  1.00  0.00     0.031 A 
HETATM    5  C   UNL     1     -42.283 -46.503  11.353  1.00  0.00     0.049 A 
HETATM    6  C   UNL     1     -41.263 -46.719  12.195  1.00  0.00     0.119 A 
HETATM    7  C   UNL     1     -40.796 -48.098  12.448  1.00  0.00     0.277 A 
HETATM    8  O   UNL     1     -39.920 -48.324  13.274  1.00  0.00    -0.266 OA
ENDROOT
BRANCH   1   9
HETATM    9  C   UNL     1     -41.019 -50.511  11.914  1.00  0.00     0.189 C 
BRANCH   9  10
HETATM   10  C   UNL     1     -41.537 -51.069  13.254  1.00  0.00     0.174 C 
BRANCH  10  11
HETATM   11  O   UNL     1     -40.661 -52.097  13.741  1.00  0.00    -0.389 OA
HETATM   12  H   UNL     1     -40.867 -52.881  13.186  1.00  0.00     0.210 HD
ENDBRANCH  10  11
BRANCH  10  13
HETATM   13  C   UNL     1     -42.927 -51.641  13.096  1.00  0.00     0.011 A 
HETATM   14  C   UNL     1     -43.147 -52.932  12.591  1.00  0.00     0.013 A 
HETATM   15  C   UNL     1     -44.448 -53.420  12.420  1.00  0.00     0.001 A 
HETATM   16  C   UNL     1     -45.544 -52.623  12.744  1.00  0.00     0.003 A 
HETATM   17  C   UNL     1     -45.341 -51.335  13.239  1.00  0.00     0.043 A 
HETATM   18  C   UNL     1     -44.042 -50.858  13.408  1.00  0.00     0.125 A 
HETATM   19  F   UNL     1     -43.870 -49.609  13.865  1.00  0.00    -0.205 F 
ENDBRANCH  10  13
ENDBRANCH   9  10
ENDBRANCH   1   9
BRANCH   4  20
HETATM   20  C   UNL     1     -44.006 -47.399   9.785  1.00  0.00     0.037 A 
HETATM   21  C   UNL     1     -43.798 -47.438   8.286  1.00  0.00     0.011 A 
HETATM   22  C   UNL     1     -44.055 -46.128   8.967  1.00  0.00     0.011 A 
ENDBRANCH   4  20
BRANCH   6  23
HETATM   23  C   UNL     1     -40.573 -45.605  12.888  1.00  0.00     0.422 C 
HETATM   24  F   UNL     1     -40.531 -45.651  14.238  1.00  0.00    -0.166 F 
HETATM   25  F   UNL     1     -39.277 -45.522  12.473  1.00  0.00    -0.166 F 
HETATM   26  F   UNL     1     -41.139 -44.411  12.558  1.00  0.00    -0.166 F 
ENDBRANCH   6  23
TORSDOF 6
ENDMDL
MODEL 9
REMARK VINA RESULT:      -5.9      4.023      5.373
REMARK  6 active torsions:
REMARK  status: ('A' for Active; 'I' for Inactive)
REMARK    1  A    between atoms: O_1  and  C_2 
REMARK    2  A    between atoms: C_2  and  C_3 
REMARK    3  A    between atoms: C_2  and  C_19 
REMARK    4  A    between atoms: C_3  and  N_4 
REMARK    5  A    between atoms: C_7  and  C_16 
REMARK    6  A    between atoms: C_9  and  C_12 
ROOT
HETATM    1  N   UNL     1     -42.690 -52.795  13.142  1.00  0.00    -0.254 N 
HETATM    2  N   UNL     1     -42.168 -51.558  13.477  1.00  0.00    -0.299 N 
ATOM      3  HN  UNL     1     -41.165 -51.412  13.581  1.00  0.00     0.187 HD
HETATM    4  C   UNL     1     -43.013 -50.597  13.650  1.00  0.00     0.031 A 
HETATM    5  C   UNL     1     -44.470 -50.718  13.560  1.00  0.00     0.049 A 
HETATM    6  C   UNL     1     -44.967 -51.915  13.221  1.00  0.00     0.119 A 
HETATM    7  C   UNL     1     -44.052 -53.039  12.938  1.00  0.00     0.277 A 
HETATM    8  O   UNL     1     -44.482 -54.118  12.548  1.00  0.00    -0.266 OA
ENDROOT
BRANCH   1   9
HETATM    9  C   UNL     1     -41.711 -53.857  12.849  1.00  0.00     0.189 C 
BRANCH   9  10
HETATM   10  C   UNL     1     -40.510 -53.843  13.815  1.00  0.00     0.174 C 
BRANCH  10  11
HETATM   11  O   UNL     1     -39.319 -54.276  13.140  1.00  0.00    -0.389 OA
HETATM   12  H   UNL     1     -38.780 -54.705  13.840  1.00  0.00     0.210 HD
ENDBRANCH  10  11
BRANCH  10  13
HETATM   13  C   UNL     1     -40.763 -54.747  14.999  1.00  0.00     0.011 A 
HETATM   14  C   UNL     1     -42.055 -55.171  15.349  1.00  0.00     0.013 A 
HETATM   15  C   UNL     1     -42.262 -55.978  16.473  1.00  0.00     0.001 A 
HETATM   16  C   UNL     1     -41.183 -56.365  17.266  1.00  0.00     0.003 A 
HETATM   17  C   UNL     1     -39.896 -55.944  16.937  1.00  0.00     0.043 A 
HETATM   18  C   UNL     1     -39.698 -55.143  15.813  1.00  0.00     0.125 A 
HETATM   19  F   UNL     1     -38.454 -54.733  15.526  1.00  0.00    -0.205 F 
ENDBRANCH  10  13
ENDBRANCH   9  10
ENDBRANCH   1   9
BRANCH   4  20
HETATM   20  C   UNL     1     -42.498 -49.258  14.020  1.00  0.00     0.037 A 
HETATM   21  C   UNL     1     -42.141 -48.254  12.945  1.00  0.00     0.011 A 
HETATM   22  C   UNL     1     -41.056 -48.881  13.767  1.00  0.00     0.011 A 
ENDBRANCH   4  20
BRANCH   6  23
HETATM   23  C   UNL     1     -46.427 -52.155  13.124  1.00  0.00     0.422 C 
HETATM   24  F   UNL     1     -46.925 -53.210  13.805  1.00  0.00    -0.166 F 
HETATM   25  F   UNL     1     -47.114 -51.063  13.566  1.00  0.00    -0.166 F 
HETATM   26  F   UNL     1     -46.801 -52.319  11.825  1.00  0.00    -0.166 F 
ENDBRANCH   6  23
TORSDOF 6
ENDMDL
