MODEL 1
REMARK VINA RESULT:      -6.3      0.000      0.000
REMARK  5 active torsions:
REMARK  status: ('A' for Active; 'I' for Inactive)
REMARK    1  A    between atoms: C_2  and  N_3 
REMARK    2  A    between atoms: N_6  and  C_7 
REMARK    3  A    between atoms: C_7  and  C_8 
REMARK    4  A    between atoms: C_8  and  N_9 
REMARK       I    between atoms: N_9  and  C_10 
REMARK       I    between atoms: C_10  and  N_12 
REMARK    5  A    between atoms: N_12  and  C_13 
ROOT
HETATM    1  N   UNL     1     -40.453 -49.601  10.806  1.00  0.00    -0.341 N 
HETATM    2  C   UNL     1     -41.569 -48.822  10.867  1.00  0.00     0.321 C 
HETATM    3  O   UNL     1     -42.194 -48.554  11.869  1.00  0.00    -0.247 OA
HETATM    4  N   UNL     1     -41.884 -48.280   9.591  1.00  0.00    -0.293 N 
HETATM    5  H   UNL     1     -40.108 -49.961   9.932  1.00  0.00     0.164 HD
HETATM    6  H   UNL     1     -41.269 -48.454   8.815  1.00  0.00     0.172 HD
ENDROOT
BRANCH   1   7
HETATM    7  C   UNL     1     -39.959 -50.174  12.051  1.00  0.00     0.154 C 
BRANCH   7   8
HETATM    8  C   UNL     1     -40.570 -51.552  12.311  1.00  0.00     0.292 C 
BRANCH   8   9
HETATM    9  N   UNL     1     -41.417 -51.648  13.510  1.00  0.00     0.093 N 
HETATM   10  C   UNL     1     -41.145 -52.835  14.357  1.00  0.00     0.302 C 
HETATM   11  C   UNL     1     -41.599 -54.195  13.764  1.00  0.00     0.302 C 
HETATM   12  N   UNL     1     -42.985 -54.243  13.248  1.00  0.00     0.091 N 
HETATM   13  C   UNL     1     -43.244 -53.039  12.426  1.00  0.00     0.302 C 
HETATM   14  C   UNL     1     -42.842 -51.705  13.106  1.00  0.00     0.302 C 
BRANCH  12  15
HETATM   15  C   UNL     1     -44.014 -54.348  14.297  1.00  0.00     0.268 C 
HETATM   16  C   UNL     1     -45.320 -54.990  13.851  1.00  0.00     0.037 C 
ENDBRANCH  12  15
ENDBRANCH   8   9
ENDBRANCH   7   8
ENDBRANCH   1   7
BRANCH   4  17
HETATM   17  C   UNL     1     -42.945 -47.395   9.425  1.00  0.00     0.127 A 
HETATM   18  C   UNL     1     -44.201 -47.665   8.929  1.00  0.00     0.076 A 
HETATM   19  C   UNL     1     -44.927 -46.463   9.048  1.00  0.00     0.025 A 
HETATM   20  C   UNL     1     -46.358 -46.250   8.725  1.00  0.00     0.070 C 
HETATM   21  N   UNL     1     -44.168 -45.476   9.537  1.00  0.00    -0.302 N 
HETATM   22  N   UNL     1     -42.973 -46.060   9.753  1.00  0.00    -0.281 N 
ATOM     23  HN  UNL     1     -44.433 -44.506   9.707  1.00  0.00     0.186 HD
HETATM   24  C   UNL     1     -41.925 -45.298  10.389  1.00  0.00     0.179 C 
ENDBRANCH   4  17
TORSDOF 5
ENDMDL
MODEL 2
REMARK VINA RESULT:      -6.1      1.719      2.866
REMARK  5 active torsions:
REMARK  status: ('A' for Active; 'I' for Inactive)
REMARK    1  A    between atoms: C_2  and  N_3 
REMARK    2  A    between atoms: N_6  and  C_7 
REMARK    3  A    between atoms: C_7  and  C_8 
REMARK    4  A    between atoms: C_8  and  N_9 
REMARK       I    between atoms: N_9  and  C_10 
REMARK       I    between atoms: C_10  and  N_12 
REMARK    5  A    between atoms: N_12  and  C_13 
ROOT
HETATM    1  N   UNL     1     -40.775 -51.067  11.323  1.00  0.00    -0.341 N 
HETATM    2  C   UNL     1     -41.019 -49.771  11.665  1.00  0.00     0.321 C 
HETATM    3  O   UNL     1     -41.071 -49.332  12.793  1.00  0.00    -0.247 OA
HETATM    4  N   UNL     1     -41.136 -48.952  10.510  1.00  0.00    -0.293 N 
HETATM    5  H   UNL     1     -40.956 -51.412  10.395  1.00  0.00     0.164 HD
HETATM    6  H   UNL     1     -40.981 -49.353   9.601  1.00  0.00     0.172 HD
ENDROOT
BRANCH   1   7
HETATM    7  C   UNL     1     -40.559 -52.023  12.402  1.00  0.00     0.154 C 
BRANCH   7   8
HETATM    8  C   UNL     1     -41.702 -53.037  12.483  1.00  0.00     0.292 C 
BRANCH   8   9
HETATM    9  N   UNL     1     -42.352 -53.147  13.799  1.00  0.00     0.093 N 
HETATM   10  C   UNL     1     -43.292 -54.287  13.923  1.00  0.00     0.302 C 
HETATM   11  C   UNL     1     -44.618 -54.147  13.130  1.00  0.00     0.302 C 
HETATM   12  N   UNL     1     -45.341 -52.867  13.304  1.00  0.00     0.091 N 
HETATM   13  C   UNL     1     -44.382 -51.744  13.201  1.00  0.00     0.302 C 
HETATM   14  C   UNL     1     -43.114 -51.906  14.078  1.00  0.00     0.302 C 
BRANCH  12  15
HETATM   15  C   UNL     1     -46.080 -52.762  14.574  1.00  0.00     0.268 C 
HETATM   16  C   UNL     1     -46.818 -51.446  14.779  1.00  0.00     0.037 C 
ENDBRANCH  12  15
ENDBRANCH   8   9
ENDBRANCH   7   8
ENDBRANCH   1   7
BRANCH   4  17
HETATM   17  C   UNL     1     -41.317 -47.576  10.617  1.00  0.00     0.127 A 
HETATM   18  C   UNL     1     -40.371 -46.621  10.914  1.00  0.00     0.076 A 
HETATM   19  C   UNL     1     -41.033 -45.381  10.813  1.00  0.00     0.025 A 
HETATM   20  C   UNL     1     -40.431 -44.034  10.962  1.00  0.00     0.070 C 
HETATM   21  N   UNL     1     -42.329 -45.537  10.524  1.00  0.00    -0.302 N 
HETATM   22  N   UNL     1     -42.480 -46.872  10.414  1.00  0.00    -0.281 N 
ATOM     23  HN  UNL     1     -43.039 -44.813  10.412  1.00  0.00     0.186 HD
HETATM   24  C   UNL     1     -43.756 -47.401   9.998  1.00  0.00     0.179 C 
ENDBRANCH   4  17
TORSDOF 5
ENDMDL
MODEL 3
REMARK VINA RESULT:      -6.0      2.543      3.740
REMARK  5 active torsions:
REMARK  status: ('A' for Active; 'I' for Inactive)
REMARK    1  A    between atoms: C_2  and  N_3 
REMARK    2  A    between atoms: N_6  and  C_7 
REMARK    3  A    between atoms: C_7  and  C_8 
REMARK    4  A    between atoms: C_8  and  N_9 
REMARK       I    between atoms: N_9  and  C_10 
REMARK       I    between atoms: C_10  and  N_12 
REMARK    5  A    between atoms: N_12  and  C_13 
ROOT
HETATM    1  N   UNL     1     -40.928 -52.832  11.813  1.00  0.00    -0.341 N 
HETATM    2  C   UNL     1     -40.910 -51.498  12.088  1.00  0.00     0.321 C 
HETATM    3  O   UNL     1     -40.962 -51.000  13.191  1.00  0.00    -0.247 OA
HETATM    4  N   UNL     1     -40.740 -50.735  10.902  1.00  0.00    -0.293 N 
HETATM    5  H   UNL     1     -41.099 -53.177  10.883  1.00  0.00     0.164 HD
HETATM    6  H   UNL     1     -40.598 -51.207  10.026  1.00  0.00     0.172 HD
ENDROOT
BRANCH   1   7
HETATM    7  C   UNL     1     -41.025 -53.755  12.938  1.00  0.00     0.154 C 
BRANCH   7   8
HETATM    8  C   UNL     1     -42.440 -54.321  13.072  1.00  0.00     0.292 C 
BRANCH   8   9
HETATM    9  N   UNL     1     -43.104 -54.054  14.358  1.00  0.00     0.093 N 
HETATM   10  C   UNL     1     -44.219 -54.981  14.674  1.00  0.00     0.302 C 
HETATM   11  C   UNL     1     -45.501 -54.796  13.821  1.00  0.00     0.302 C 
HETATM   12  N   UNL     1     -46.006 -53.409  13.708  1.00  0.00     0.091 N 
HETATM   13  C   UNL     1     -44.875 -52.499  13.416  1.00  0.00     0.302 C 
HETATM   14  C   UNL     1     -43.654 -52.678  14.354  1.00  0.00     0.302 C 
BRANCH  12  15
HETATM   15  C   UNL     1     -46.722 -52.931  14.902  1.00  0.00     0.268 C 
HETATM   16  C   UNL     1     -46.934 -51.424  14.962  1.00  0.00     0.037 C 
ENDBRANCH  12  15
ENDBRANCH   8   9
ENDBRANCH   7   8
ENDBRANCH   1   7
BRANCH   4  17
HETATM   17  C   UNL     1     -40.620 -49.349  10.947  1.00  0.00     0.127 A 
HETATM   18  C   UNL     1     -41.577 -48.408  10.636  1.00  0.00     0.076 A 
HETATM   19  C   UNL     1     -40.994 -47.158  10.927  1.00  0.00     0.025 A 
HETATM   20  C   UNL     1     -41.645 -45.830  10.839  1.00  0.00     0.070 C 
HETATM   21  N   UNL     1     -39.731 -47.290  11.344  1.00  0.00    -0.302 N 
HETATM   22  N   UNL     1     -39.523 -48.621  11.344  1.00  0.00    -0.281 N 
ATOM     23  HN  UNL     1     -39.074 -46.552  11.603  1.00  0.00     0.186 HD
HETATM   24  C   UNL     1     -38.274 -49.137  11.850  1.00  0.00     0.179 C 
ENDBRANCH   4  17
TORSDOF 5
ENDMDL
MODEL 4
REMARK VINA RESULT:      -5.8      2.011      7.830
REMARK  5 active torsions:
REMARK  status: ('A' for Active; 'I' for Inactive)
REMARK    1  A    between atoms: C_2  and  N_3 
REMARK    2  A    between atoms: N_6  and  C_7 
REMARK    3  A    between atoms: C_7  and  C_8 
REMARK    4  A    between atoms: C_8  and  N_9 
REMARK       I    between atoms: N_9  and  C_10 
REMARK       I    between atoms: C_10  and  N_12 
REMARK    5  A    between atoms: N_12  and  C_13 
ROOT
HETATM    1  N   UNL     1     -40.817 -50.900  11.075  1.00  0.00    -0.341 N 
HETATM    2  C   UNL     1     -41.511 -51.437  12.117  1.00  0.00     0.321 C 
HETATM    3  O   UNL     1     -41.740 -50.890  13.174  1.00  0.00    -0.247 OA
HETATM    4  N   UNL     1     -42.015 -52.724  11.787  1.00  0.00    -0.293 N 
HETATM    5  H   UNL     1     -40.476 -51.469  10.319  1.00  0.00     0.164 HD
HETATM    6  H   UNL     1     -41.880 -53.083  10.857  1.00  0.00     0.172 HD
ENDROOT
BRANCH   1   7
HETATM    7  C   UNL     1     -40.295 -49.548  11.234  1.00  0.00     0.154 C 
BRANCH   7   8
HETATM    8  C   UNL     1     -41.321 -48.501  10.798  1.00  0.00     0.292 C 
BRANCH   8   9
HETATM    9  N   UNL     1     -41.740 -47.557  11.846  1.00  0.00     0.093 N 
HETATM   10  C   UNL     1     -42.866 -46.673  11.458  1.00  0.00     0.302 C 
HETATM   11  C   UNL     1     -42.524 -45.574  10.418  1.00  0.00     0.302 C 
HETATM   12  N   UNL     1     -41.318 -44.767  10.707  1.00  0.00     0.091 N 
HETATM   13  C   UNL     1     -40.213 -45.665  11.115  1.00  0.00     0.302 C 
HETATM   14  C   UNL     1     -40.597 -46.688  12.214  1.00  0.00     0.302 C 
BRANCH  12  15
HETATM   15  C   UNL     1     -41.517 -43.737  11.741  1.00  0.00     0.268 C 
HETATM   16  C   UNL     1     -40.390 -42.720  11.858  1.00  0.00     0.037 C 
ENDBRANCH  12  15
ENDBRANCH   8   9
ENDBRANCH   7   8
ENDBRANCH   1   7
BRANCH   4  17
HETATM   17  C   UNL     1     -42.816 -53.435  12.675  1.00  0.00     0.127 A 
HETATM   18  C   UNL     1     -44.175 -53.649  12.601  1.00  0.00     0.076 A 
HETATM   19  C   UNL     1     -44.489 -54.497  13.682  1.00  0.00     0.025 A 
HETATM   20  C   UNL     1     -45.811 -55.086  13.998  1.00  0.00     0.070 C 
HETATM   21  N   UNL     1     -43.411 -54.762  14.428  1.00  0.00    -0.302 N 
HETATM   22  N   UNL     1     -42.412 -54.106  13.805  1.00  0.00    -0.281 N 
ATOM     23  HN  UNL     1     -43.357 -55.329  15.275  1.00  0.00     0.186 HD
HETATM   24  C   UNL     1     -41.062 -54.262  14.288  1.00  0.00     0.179 C 
ENDBRANCH   4  17
TORSDOF 5
ENDMDL
MODEL 5
REMARK VINA RESULT:      -5.6      4.161      7.000
REMARK  5 active torsions:
REMARK  status: ('A' for Active; 'I' for Inactive)
REMARK    1  A    between atoms: C_2  and  N_3 
REMARK    2  A    between atoms: N_6  and  C_7 
REMARK    3  A    between atoms: C_7  and  C_8 
REMARK    4  A    between atoms: C_8  and  N_9 
REMARK       I    between atoms: N_9  and  C_10 
REMARK       I    between atoms: C_10  and  N_12 
REMARK    5  A    between atoms: N_12  and  C_13 
ROOT
HETATM    1  N   UNL     1     -42.396 -52.340  11.695  1.00  0.00    -0.341 N 
HETATM    2  C   UNL     1     -43.071 -52.491  12.868  1.00  0.00     0.321 C 
HETATM    3  O   UNL     1     -42.570 -52.580  13.968  1.00  0.00    -0.247 OA
HETATM    4  N   UNL     1     -44.475 -52.459  12.658  1.00  0.00    -0.293 N 
HETATM    5  H   UNL     1     -42.844 -52.489  10.805  1.00  0.00     0.164 HD
HETATM    6  H   UNL     1     -44.833 -52.279  11.736  1.00  0.00     0.172 HD
ENDROOT
BRANCH   1   7
HETATM    7  C   UNL     1     -40.941 -52.281  11.752  1.00  0.00     0.154 C 
BRANCH   7   8
HETATM    8  C   UNL     1     -40.447 -50.839  11.875  1.00  0.00     0.292 C 
BRANCH   8   9
HETATM    9  N   UNL     1     -39.016 -50.689  12.185  1.00  0.00     0.093 N 
HETATM   10  C   UNL     1     -38.680 -50.868  13.619  1.00  0.00     0.302 C 
HETATM   11  C   UNL     1     -39.141 -49.724  14.560  1.00  0.00     0.302 C 
HETATM   12  N   UNL     1     -38.800 -48.353  14.123  1.00  0.00     0.091 N 
HETATM   13  C   UNL     1     -39.121 -48.202  12.685  1.00  0.00     0.302 C 
HETATM   14  C   UNL     1     -38.563 -49.335  11.786  1.00  0.00     0.302 C 
BRANCH  12  15
HETATM   15  C   UNL     1     -37.392 -47.982  14.350  1.00  0.00     0.268 C 
HETATM   16  C   UNL     1     -36.856 -48.321  15.735  1.00  0.00     0.037 C 
ENDBRANCH  12  15
ENDBRANCH   8   9
ENDBRANCH   7   8
ENDBRANCH   1   7
BRANCH   4  17
HETATM   17  C   UNL     1     -45.367 -52.524  13.726  1.00  0.00     0.127 A 
HETATM   18  C   UNL     1     -45.946 -51.477  14.407  1.00  0.00     0.076 A 
HETATM   19  C   UNL     1     -46.831 -52.065  15.333  1.00  0.00     0.025 A 
HETATM   20  C   UNL     1     -47.756 -51.362  16.252  1.00  0.00     0.070 C 
HETATM   21  N   UNL     1     -46.780 -53.400  15.282  1.00  0.00    -0.302 N 
HETATM   22  N   UNL     1     -45.885 -53.657  14.308  1.00  0.00    -0.281 N 
ATOM     23  HN  UNL     1     -47.298 -54.071  15.850  1.00  0.00     0.186 HD
HETATM   24  C   UNL     1     -45.657 -55.023  13.906  1.00  0.00     0.179 C 
ENDBRANCH   4  17
TORSDOF 5
ENDMDL
MODEL 6
REMARK VINA RESULT:      -5.5      2.202      8.058
REMARK  5 active torsions:
REMARK  status: ('A' for Active; 'I' for Inactive)
REMARK    1  A    between atoms: C_2  and  N_3 
REMARK    2  A    between atoms: N_6  and  C_7 
REMARK    3  A    between atoms: C_7  and  C_8 
REMARK    4  A    between atoms: C_8  and  N_9 
REMARK       I    between atoms: N_9  and  C_10 
REMARK       I    between atoms: C_10  and  N_12 
REMARK    5  A    between atoms: N_12  and  C_13 
ROOT
HETATM    1  N   UNL     1     -40.888 -50.989  11.105  1.00  0.00    -0.341 N 
HETATM    2  C   UNL     1     -41.284 -51.577  12.268  1.00  0.00     0.321 C 
HETATM    3  O   UNL     1     -41.284 -51.058  13.362  1.00  0.00    -0.247 OA
HETATM    4  N   UNL     1     -41.785 -52.886  12.033  1.00  0.00    -0.293 N 
HETATM    5  H   UNL     1     -40.707 -51.529  10.275  1.00  0.00     0.164 HD
HETATM    6  H   UNL     1     -41.858 -53.226  11.089  1.00  0.00     0.172 HD
ENDROOT
BRANCH   1   7
HETATM    7  C   UNL     1     -40.413 -49.613  11.170  1.00  0.00     0.154 C 
BRANCH   7   8
HETATM    8  C   UNL     1     -41.558 -48.619  10.968  1.00  0.00     0.292 C 
BRANCH   8   9
HETATM    9  N   UNL     1     -41.641 -47.544  11.969  1.00  0.00     0.093 N 
HETATM   10  C   UNL     1     -42.651 -46.501  11.664  1.00  0.00     0.302 C 
HETATM   11  C   UNL     1     -42.299 -45.557  10.484  1.00  0.00     0.302 C 
HETATM   12  N   UNL     1     -40.944 -44.963  10.516  1.00  0.00     0.091 N 
HETATM   13  C   UNL     1     -39.955 -46.015  10.845  1.00  0.00     0.302 C 
HETATM   14  C   UNL     1     -40.325 -46.872  12.082  1.00  0.00     0.302 C 
BRANCH  12  15
HETATM   15  C   UNL     1     -40.801 -43.844  11.462  1.00  0.00     0.268 C 
HETATM   16  C   UNL     1     -41.801 -42.712  11.273  1.00  0.00     0.037 C 
ENDBRANCH  12  15
ENDBRANCH   8   9
ENDBRANCH   7   8
ENDBRANCH   1   7
BRANCH   4  17
HETATM   17  C   UNL     1     -42.315 -53.653  13.067  1.00  0.00     0.127 A 
HETATM   18  C   UNL     1     -41.630 -54.355  14.033  1.00  0.00     0.076 A 
HETATM   19  C   UNL     1     -42.614 -54.886  14.891  1.00  0.00     0.025 A 
HETATM   20  C   UNL     1     -42.389 -55.657  16.137  1.00  0.00     0.070 C 
HETATM   21  N   UNL     1     -43.847 -54.588  14.469  1.00  0.00    -0.302 N 
HETATM   22  N   UNL     1     -43.644 -53.846  13.362  1.00  0.00    -0.281 N 
ATOM     23  HN  UNL     1     -44.737 -54.859  14.888  1.00  0.00     0.186 HD
HETATM   24  C   UNL     1     -44.778 -53.255  12.696  1.00  0.00     0.179 C 
ENDBRANCH   4  17
TORSDOF 5
ENDMDL
MODEL 7
REMARK VINA RESULT:      -5.4      2.846      7.233
REMARK  5 active torsions:
REMARK  status: ('A' for Active; 'I' for Inactive)
REMARK    1  A    between atoms: C_2  and  N_3 
REMARK    2  A    between atoms: N_6  and  C_7 
REMARK    3  A    between atoms: C_7  and  C_8 
REMARK    4  A    between atoms: C_8  and  N_9 
REMARK       I    between atoms: N_9  and  C_10 
REMARK       I    between atoms: C_10  and  N_12 
REMARK    5  A    between atoms: N_12  and  C_13 
ROOT
HETATM    1  N   UNL     1     -42.202 -51.828  11.786  1.00  0.00    -0.341 N 
HETATM    2  C   UNL     1     -42.896 -52.021  12.942  1.00  0.00     0.321 C 
HETATM    3  O   UNL     1     -42.440 -51.960  14.062  1.00  0.00    -0.247 OA
HETATM    4  N   UNL     1     -44.276 -52.234  12.679  1.00  0.00    -0.293 N 
HETATM    5  H   UNL     1     -42.578 -52.100  10.893  1.00  0.00     0.164 HD
HETATM    6  H   UNL     1     -44.615 -52.170  11.735  1.00  0.00     0.172 HD
ENDROOT
BRANCH   1   7
HETATM    7  C   UNL     1     -40.780 -51.526  11.892  1.00  0.00     0.154 C 
BRANCH   7   8
HETATM    8  C   UNL     1     -40.490 -50.074  11.507  1.00  0.00     0.292 C 
BRANCH   8   9
HETATM    9  N   UNL     1     -41.337 -49.068  12.166  1.00  0.00     0.093 N 
HETATM   10  C   UNL     1     -41.698 -47.914  11.306  1.00  0.00     0.302 C 
HETATM   11  C   UNL     1     -40.542 -46.929  10.992  1.00  0.00     0.302 C 
HETATM   12  N   UNL     1     -39.751 -46.471  12.156  1.00  0.00     0.091 N 
HETATM   13  C   UNL     1     -39.421 -47.632  13.012  1.00  0.00     0.302 C 
HETATM   14  C   UNL     1     -40.634 -48.534  13.357  1.00  0.00     0.302 C 
BRANCH  12  15
HETATM   15  C   UNL     1     -40.418 -45.439  12.967  1.00  0.00     0.268 C 
HETATM   16  C   UNL     1     -39.528 -44.759  13.998  1.00  0.00     0.037 C 
ENDBRANCH  12  15
ENDBRANCH   8   9
ENDBRANCH   7   8
ENDBRANCH   1   7
BRANCH   4  17
HETATM   17  C   UNL     1     -45.194 -52.383  13.715  1.00  0.00     0.127 A 
HETATM   18  C   UNL     1     -45.831 -51.393  14.429  1.00  0.00     0.076 A 
HETATM   19  C   UNL     1     -46.719 -52.057  15.299  1.00  0.00     0.025 A 
HETATM   20  C   UNL     1     -47.694 -51.433  16.223  1.00  0.00     0.070 C 
HETATM   21  N   UNL     1     -46.615 -53.385  15.186  1.00  0.00    -0.302 N 
HETATM   22  N   UNL     1     -45.684 -53.561  14.228  1.00  0.00    -0.281 N 
ATOM     23  HN  UNL     1     -47.123 -54.101  15.706  1.00  0.00     0.186 HD
HETATM   24  C   UNL     1     -45.394 -54.897  13.768  1.00  0.00     0.179 C 
ENDBRANCH   4  17
TORSDOF 5
ENDMDL
MODEL 8
REMARK VINA RESULT:      -5.3      2.219      3.909
REMARK  5 active torsions:
REMARK  status: ('A' for Active; 'I' for Inactive)
REMARK    1  A    between atoms: C_2  and  N_3 
REMARK    2  A    between atoms: N_6  and  C_7 
REMARK    3  A    between atoms: C_7  and  C_8 
REMARK    4  A    between atoms: C_8  and  N_9 
REMARK       I    between atoms: N_9  and  C_10 
REMARK       I    between atoms: C_10  and  N_12 
REMARK    5  A    between atoms: N_12  and  C_13 
ROOT
HETATM    1  N   UNL     1     -42.087 -51.306  12.054  1.00  0.00    -0.341 N 
HETATM    2  C   UNL     1     -42.171 -49.947  12.010  1.00  0.00     0.321 C 
HETATM    3  O   UNL     1     -42.803 -49.250  12.773  1.00  0.00    -0.247 OA
HETATM    4  N   UNL     1     -41.347 -49.417  10.981  1.00  0.00    -0.293 N 
HETATM    5  H   UNL     1     -41.730 -51.838  11.278  1.00  0.00     0.164 HD
HETATM    6  H   UNL     1     -40.765 -50.038  10.445  1.00  0.00     0.172 HD
ENDROOT
BRANCH   1   7
HETATM    7  C   UNL     1     -42.822 -51.996  13.106  1.00  0.00     0.154 C 
BRANCH   7   8
HETATM    8  C   UNL     1     -41.893 -52.430  14.241  1.00  0.00     0.292 C 
BRANCH   8   9
HETATM    9  N   UNL     1     -41.587 -53.869  14.289  1.00  0.00     0.093 N 
HETATM   10  C   UNL     1     -41.512 -54.433  15.658  1.00  0.00     0.302 C 
HETATM   11  C   UNL     1     -40.273 -54.006  16.489  1.00  0.00     0.302 C 
HETATM   12  N   UNL     1     -38.965 -54.139  15.809  1.00  0.00     0.091 N 
HETATM   13  C   UNL     1     -39.068 -53.592  14.437  1.00  0.00     0.302 C 
HETATM   14  C   UNL     1     -40.282 -54.119  13.631  1.00  0.00     0.302 C 
BRANCH  12  15
HETATM   15  C   UNL     1     -38.458 -55.520  15.748  1.00  0.00     0.268 C 
HETATM   16  C   UNL     1     -38.569 -56.303  17.049  1.00  0.00     0.037 C 
ENDBRANCH  12  15
ENDBRANCH   8   9
ENDBRANCH   7   8
ENDBRANCH   1   7
BRANCH   4  17
HETATM   17  C   UNL     1     -41.219 -48.044  10.794  1.00  0.00     0.127 A 
HETATM   18  C   UNL     1     -40.244 -47.211  11.296  1.00  0.00     0.076 A 
HETATM   19  C   UNL     1     -40.508 -45.939  10.750  1.00  0.00     0.025 A 
HETATM   20  C   UNL     1     -39.697 -44.710  10.920  1.00  0.00     0.070 C 
HETATM   21  N   UNL     1     -41.609 -45.948   9.992  1.00  0.00    -0.302 N 
HETATM   22  N   UNL     1     -42.026 -47.229  10.036  1.00  0.00    -0.281 N 
ATOM     23  HN  UNL     1     -42.036 -45.166   9.495  1.00  0.00     0.186 HD
HETATM   24  C   UNL     1     -43.153 -47.628   9.229  1.00  0.00     0.179 C 
ENDBRANCH   4  17
TORSDOF 5
ENDMDL
MODEL 9
REMARK VINA RESULT:      -5.2      4.024      5.736
REMARK  5 active torsions:
REMARK  status: ('A' for Active; 'I' for Inactive)
REMARK    1  A    between atoms: C_2  and  N_3 
REMARK    2  A    between atoms: N_6  and  C_7 
REMARK    3  A    between atoms: C_7  and  C_8 
REMARK    4  A    between atoms: C_8  and  N_9 
REMARK       I    between atoms: N_9  and  C_10 
REMARK       I    between atoms: C_10  and  N_12 
REMARK    5  A    between atoms: N_12  and  C_13 
ROOT
HETATM    1  N   UNL     1     -39.608 -53.217  15.382  1.00  0.00    -0.341 N 
HETATM    2  C   UNL     1     -39.375 -52.823  14.099  1.00  0.00     0.321 C 
HETATM    3  O   UNL     1     -39.773 -53.383  13.101  1.00  0.00    -0.247 OA
HETATM    4  N   UNL     1     -38.653 -51.599  14.063  1.00  0.00    -0.293 N 
HETATM    5  H   UNL     1     -39.079 -52.844  16.153  1.00  0.00     0.164 HD
HETATM    6  H   UNL     1     -38.440 -51.126  14.925  1.00  0.00     0.172 HD
ENDROOT
BRANCH   1   7
HETATM    7  C   UNL     1     -40.401 -54.423  15.587  1.00  0.00     0.154 C 
BRANCH   7   8
HETATM    8  C   UNL     1     -41.768 -54.093  16.191  1.00  0.00     0.292 C 
BRANCH   8   9
HETATM    9  N   UNL     1     -42.923 -54.656  15.474  1.00  0.00     0.093 N 
HETATM   10  C   UNL     1     -43.022 -54.241  14.053  1.00  0.00     0.302 C 
HETATM   11  C   UNL     1     -43.426 -52.762  13.817  1.00  0.00     0.302 C 
HETATM   12  N   UNL     1     -44.608 -52.288  14.571  1.00  0.00     0.091 N 
HETATM   13  C   UNL     1     -44.501 -52.732  15.980  1.00  0.00     0.302 C 
HETATM   14  C   UNL     1     -44.175 -54.238  16.150  1.00  0.00     0.302 C 
BRANCH  12  15
HETATM   15  C   UNL     1     -45.896 -52.737  14.015  1.00  0.00     0.268 C 
HETATM   16  C   UNL     1     -46.142 -52.338  12.566  1.00  0.00     0.037 C 
ENDBRANCH  12  15
ENDBRANCH   8   9
ENDBRANCH   7   8
ENDBRANCH   1   7
BRANCH   4  17
HETATM   17  C   UNL     1     -38.363 -50.967  12.858  1.00  0.00     0.127 A 
HETATM   18  C   UNL     1     -37.196 -51.031  12.130  1.00  0.00     0.076 A 
HETATM   19  C   UNL     1     -37.436 -50.293  10.954  1.00  0.00     0.025 A 
HETATM   20  C   UNL     1     -36.517 -50.124   9.804  1.00  0.00     0.070 C 
HETATM   21  N   UNL     1     -38.657 -49.748  10.956  1.00  0.00    -0.302 N 
HETATM   22  N   UNL     1     -39.199 -50.164  12.118  1.00  0.00    -0.281 N 
ATOM     23  HN  UNL     1     -39.082 -49.155  10.243  1.00  0.00     0.186 HD
HETATM   24  C   UNL     1     -40.576 -49.843  12.405  1.00  0.00     0.179 C 
ENDBRANCH   4  17
TORSDOF 5
ENDMDL
