MODEL 1
REMARK VINA RESULT:      -6.6      0.000      0.000
REMARK  7 active torsions:
REMARK  status: ('A' for Active; 'I' for Inactive)
REMARK    1  A    between atoms: C_2  and  S_4 
REMARK    2  A    between atoms: S_4  and  N_7 
REMARK    3  A    between atoms: N_7  and  C_9 
REMARK    4  A    between atoms: C_9  and  C_10 
REMARK    5  A    between atoms: C_10  and  O_11 
REMARK    6  A    between atoms: C_10  and  C_12 
REMARK    7  A    between atoms: C_12  and  N_13 
ROOT
HETATM    1  C   UNL     1     -41.748 -49.228  12.188  1.00  0.00     0.163 C 
ENDROOT
BRANCH   1   2
HETATM    2  C   UNL     1     -42.429 -48.568  10.979  1.00  0.00     0.155 C 
BRANCH   2   3
HETATM    3  C   UNL     1     -43.077 -47.229  11.408  1.00  0.00     0.167 C 
BRANCH   3   4
HETATM    4  N   UNL     1     -42.818 -46.078  10.495  1.00  0.00    -0.312 N 
HETATM    5  C   UNL     1     -42.363 -44.845  11.167  1.00  0.00     0.162 C 
BRANCH   4   6
HETATM    6  S   UNL     1     -43.688 -45.869   9.060  1.00  0.00     0.231 S 
HETATM    7  O   UNL     1     -42.861 -46.245   7.936  1.00  0.00    -0.205 OA
HETATM    8  O   UNL     1     -44.291 -44.549   9.129  1.00  0.00    -0.205 OA
BRANCH   6   9
HETATM    9  C   UNL     1     -45.055 -47.057   9.134  1.00  0.00     0.121 C 
HETATM   10  C   UNL     1     -46.369 -46.293   8.957  1.00  0.00     0.027 C 
HETATM   11  C   UNL     1     -44.959 -48.166   8.097  1.00  0.00     0.027 C 
ENDBRANCH   6   9
ENDBRANCH   4   6
ENDBRANCH   3   4
ENDBRANCH   2   3
BRANCH   2  12
HETATM   12  O   UNL     1     -41.465 -48.360   9.938  1.00  0.00    -0.392 OA
HETATM   13  H   UNL     1     -40.808 -49.077   9.947  1.00  0.00     0.210 HD
ENDBRANCH   2  12
ENDBRANCH   1   2
BRANCH   1  14
HETATM   14  N   UNL     1     -41.961 -50.663  12.236  1.00  0.00    -0.339 N 
HETATM   15  C   UNL     1     -41.050 -51.597  11.826  1.00  0.00     0.184 A 
HETATM   16  N   UNL     1     -41.468 -52.819  12.050  1.00  0.00    -0.350 N 
HETATM   17  C   UNL     1     -42.715 -52.671  12.601  1.00  0.00     0.060 A 
ATOM     18  HN  UNL     1     -40.973 -53.689  11.857  1.00  0.00     0.166 HD
HETATM   19  C   UNL     1     -43.621 -53.657  13.021  1.00  0.00     0.039 A 
HETATM   20  C   UNL     1     -43.057 -51.331  12.733  1.00  0.00     0.062 A 
HETATM   21  C   UNL     1     -44.859 -53.283  13.581  1.00  0.00    -0.054 A 
HETATM   22  C   UNL     1     -45.790 -54.377  14.032  1.00  0.00     0.049 C 
HETATM   23  C   UNL     1     -45.186 -51.916  13.703  1.00  0.00    -0.054 A 
HETATM   24  C   UNL     1     -46.489 -51.449  14.305  1.00  0.00     0.049 C 
HETATM   25  C   UNL     1     -44.282 -50.919  13.271  1.00  0.00     0.039 A 
ENDBRANCH   1  14
TORSDOF 7
ENDMDL
MODEL 2
REMARK VINA RESULT:      -6.4      3.997      6.995
REMARK  7 active torsions:
REMARK  status: ('A' for Active; 'I' for Inactive)
REMARK    1  A    between atoms: C_2  and  S_4 
REMARK    2  A    between atoms: S_4  and  N_7 
REMARK    3  A    between atoms: N_7  and  C_9 
REMARK    4  A    between atoms: C_9  and  C_10 
REMARK    5  A    between atoms: C_10  and  O_11 
REMARK    6  A    between atoms: C_10  and  C_12 
REMARK    7  A    between atoms: C_12  and  N_13 
ROOT
HETATM    1  C   UNL     1     -41.857 -51.563  12.198  1.00  0.00     0.163 C 
ENDROOT
BRANCH   1   2
HETATM    2  C   UNL     1     -41.219 -52.909  12.574  1.00  0.00     0.155 C 
BRANCH   2   3
HETATM    3  C   UNL     1     -42.293 -53.851  13.172  1.00  0.00     0.167 C 
BRANCH   3   4
HETATM    4  N   UNL     1     -43.345 -53.178  13.986  1.00  0.00    -0.312 N 
HETATM    5  C   UNL     1     -42.950 -52.868  15.375  1.00  0.00     0.162 C 
BRANCH   4   6
HETATM    6  S   UNL     1     -44.991 -53.466  13.725  1.00  0.00     0.231 S 
HETATM    7  O   UNL     1     -45.568 -54.065  14.907  1.00  0.00    -0.205 OA
HETATM    8  O   UNL     1     -45.096 -54.122  12.433  1.00  0.00    -0.205 OA
BRANCH   6   9
HETATM    9  C   UNL     1     -45.753 -51.833  13.530  1.00  0.00     0.121 C 
HETATM   10  C   UNL     1     -46.604 -51.846  12.259  1.00  0.00     0.027 C 
HETATM   11  C   UNL     1     -46.604 -51.410  14.717  1.00  0.00     0.027 C 
ENDBRANCH   6   9
ENDBRANCH   4   6
ENDBRANCH   3   4
ENDBRANCH   2   3
BRANCH   2  12
HETATM   12  O   UNL     1     -40.613 -53.495  11.414  1.00  0.00    -0.392 OA
HETATM   13  H   UNL     1     -40.410 -54.431  11.582  1.00  0.00     0.210 HD
ENDBRANCH   2  12
ENDBRANCH   1   2
BRANCH   1  14
HETATM   14  N   UNL     1     -40.930 -50.453  12.312  1.00  0.00    -0.339 N 
HETATM   15  C   UNL     1     -39.738 -50.502  12.982  1.00  0.00     0.184 A 
HETATM   16  N   UNL     1     -39.064 -49.386  12.863  1.00  0.00    -0.350 N 
HETATM   17  C   UNL     1     -39.865 -48.566  12.109  1.00  0.00     0.060 A 
ATOM     18  HN  UNL     1     -38.143 -49.172  13.247  1.00  0.00     0.166 HD
HETATM   19  C   UNL     1     -39.639 -47.247  11.690  1.00  0.00     0.039 A 
HETATM   20  C   UNL     1     -41.044 -49.205  11.744  1.00  0.00     0.062 A 
HETATM   21  C   UNL     1     -40.598 -46.585  10.898  1.00  0.00    -0.054 A 
HETATM   22  C   UNL     1     -40.303 -45.176  10.458  1.00  0.00     0.049 C 
HETATM   23  C   UNL     1     -41.790 -47.251  10.542  1.00  0.00    -0.054 A 
HETATM   24  C   UNL     1     -42.851 -46.605   9.686  1.00  0.00     0.049 C 
HETATM   25  C   UNL     1     -42.028 -48.577  10.971  1.00  0.00     0.039 A 
ENDBRANCH   1  14
TORSDOF 7
ENDMDL
MODEL 3
REMARK VINA RESULT:      -6.3      4.662      5.748
REMARK  7 active torsions:
REMARK  status: ('A' for Active; 'I' for Inactive)
REMARK    1  A    between atoms: C_2  and  S_4 
REMARK    2  A    between atoms: S_4  and  N_7 
REMARK    3  A    between atoms: N_7  and  C_9 
REMARK    4  A    between atoms: C_9  and  C_10 
REMARK    5  A    between atoms: C_10  and  O_11 
REMARK    6  A    between atoms: C_10  and  C_12 
REMARK    7  A    between atoms: C_12  and  N_13 
ROOT
HETATM    1  C   UNL     1     -42.238 -53.014  13.413  1.00  0.00     0.163 C 
ENDROOT
BRANCH   1   2
HETATM    2  C   UNL     1     -41.822 -52.488  12.031  1.00  0.00     0.155 C 
BRANCH   2   3
HETATM    3  C   UNL     1     -41.440 -50.991  12.132  1.00  0.00     0.167 C 
BRANCH   3   4
HETATM    4  N   UNL     1     -40.812 -50.582  13.421  1.00  0.00    -0.312 N 
HETATM    5  C   UNL     1     -41.497 -49.478  14.122  1.00  0.00     0.162 C 
BRANCH   4   6
HETATM    6  S   UNL     1     -39.144 -50.706  13.675  1.00  0.00     0.231 S 
HETATM    7  O   UNL     1     -38.657 -51.932  13.082  1.00  0.00    -0.205 OA
HETATM    8  O   UNL     1     -38.916 -50.420  15.081  1.00  0.00    -0.205 OA
BRANCH   6   9
HETATM    9  C   UNL     1     -38.400 -49.337  12.750  1.00  0.00     0.121 C 
HETATM   10  C   UNL     1     -37.594 -48.477  13.725  1.00  0.00     0.027 C 
HETATM   11  C   UNL     1     -37.511 -49.786  11.601  1.00  0.00     0.027 C 
ENDBRANCH   6   9
ENDBRANCH   4   6
ENDBRANCH   3   4
ENDBRANCH   2   3
BRANCH   2  12
HETATM   12  O   UNL     1     -40.724 -53.264  11.532  1.00  0.00    -0.392 OA
HETATM   13  H   UNL     1     -39.893 -52.769  11.637  1.00  0.00     0.210 HD
ENDBRANCH   2  12
ENDBRANCH   1   2
BRANCH   1  14
HETATM   14  N   UNL     1     -43.676 -53.145  13.553  1.00  0.00    -0.339 N 
HETATM   15  C   UNL     1     -44.448 -54.029  12.849  1.00  0.00     0.184 A 
HETATM   16  N   UNL     1     -45.702 -53.990  13.224  1.00  0.00    -0.350 N 
HETATM   17  C   UNL     1     -45.752 -53.017  14.190  1.00  0.00     0.060 A 
ATOM     18  HN  UNL     1     -46.473 -54.558  12.874  1.00  0.00     0.166 HD
HETATM   19  C   UNL     1     -46.855 -52.553  14.924  1.00  0.00     0.039 A 
HETATM   20  C   UNL     1     -44.498 -52.467  14.423  1.00  0.00     0.062 A 
HETATM   21  C   UNL     1     -46.682 -51.544  15.893  1.00  0.00    -0.054 A 
HETATM   22  C   UNL     1     -47.892 -51.091  16.666  1.00  0.00     0.049 C 
HETATM   23  C   UNL     1     -45.400 -50.997  16.110  1.00  0.00    -0.054 A 
HETATM   24  C   UNL     1     -45.144 -49.925  17.141  1.00  0.00     0.049 C 
HETATM   25  C   UNL     1     -44.288 -51.454  15.366  1.00  0.00     0.039 A 
ENDBRANCH   1  14
TORSDOF 7
ENDMDL
MODEL 4
REMARK VINA RESULT:      -6.1      1.766      3.054
REMARK  7 active torsions:
REMARK  status: ('A' for Active; 'I' for Inactive)
REMARK    1  A    between atoms: C_2  and  S_4 
REMARK    2  A    between atoms: S_4  and  N_7 
REMARK    3  A    between atoms: N_7  and  C_9 
REMARK    4  A    between atoms: C_9  and  C_10 
REMARK    5  A    between atoms: C_10  and  O_11 
REMARK    6  A    between atoms: C_10  and  C_12 
REMARK    7  A    between atoms: C_12  and  N_13 
ROOT
HETATM    1  C   UNL     1     -40.959 -50.240  12.641  1.00  0.00     0.163 C 
ENDROOT
BRANCH   1   2
HETATM    2  C   UNL     1     -41.227 -49.498  11.323  1.00  0.00     0.155 C 
BRANCH   2   3
HETATM    3  C   UNL     1     -40.906 -47.993  11.491  1.00  0.00     0.167 C 
BRANCH   3   4
HETATM    4  N   UNL     1     -42.032 -47.065  11.184  1.00  0.00    -0.312 N 
HETATM    5  C   UNL     1     -43.013 -47.582  10.209  1.00  0.00     0.162 C 
BRANCH   4   6
HETATM    6  S   UNL     1     -41.837 -45.386  11.227  1.00  0.00     0.231 S 
HETATM    7  O   UNL     1     -42.462 -44.859  12.419  1.00  0.00    -0.205 OA
HETATM    8  O   UNL     1     -42.209 -44.891   9.913  1.00  0.00    -0.205 OA
BRANCH   6   9
HETATM    9  C   UNL     1     -40.055 -45.100  11.392  1.00  0.00     0.121 C 
HETATM   10  C   UNL     1     -39.482 -44.809  10.004  1.00  0.00     0.027 C 
HETATM   11  C   UNL     1     -39.702 -43.967  12.344  1.00  0.00     0.027 C 
ENDBRANCH   6   9
ENDBRANCH   4   6
ENDBRANCH   3   4
ENDBRANCH   2   3
BRANCH   2  12
HETATM   12  O   UNL     1     -40.437 -50.076  10.275  1.00  0.00    -0.392 OA
HETATM   13  H   UNL     1     -39.560 -50.321  10.618  1.00  0.00     0.210 HD
ENDBRANCH   2  12
ENDBRANCH   1   2
BRANCH   1  14
HETATM   14  N   UNL     1     -41.487 -51.591  12.641  1.00  0.00    -0.339 N 
HETATM   15  C   UNL     1     -40.782 -52.700  12.261  1.00  0.00     0.184 A 
HETATM   16  N   UNL     1     -41.474 -53.800  12.430  1.00  0.00    -0.350 N 
HETATM   17  C   UNL     1     -42.689 -53.384  12.911  1.00  0.00     0.060 A 
ATOM     18  HN  UNL     1     -41.173 -54.757  12.244  1.00  0.00     0.166 HD
HETATM   19  C   UNL     1     -43.815 -54.148  13.254  1.00  0.00     0.039 A 
HETATM   20  C   UNL     1     -42.732 -52.003  13.058  1.00  0.00     0.062 A 
HETATM   21  C   UNL     1     -44.971 -53.515  13.751  1.00  0.00    -0.054 A 
HETATM   22  C   UNL     1     -46.148 -54.378  14.121  1.00  0.00     0.049 C 
HETATM   23  C   UNL     1     -44.994 -52.111  13.889  1.00  0.00    -0.054 A 
HETATM   24  C   UNL     1     -46.195 -51.372  14.427  1.00  0.00     0.049 C 
HETATM   25  C   UNL     1     -43.866 -51.335  13.534  1.00  0.00     0.039 A 
ENDBRANCH   1  14
TORSDOF 7
ENDMDL
MODEL 5
REMARK VINA RESULT:      -6.0      4.613      7.141
REMARK  7 active torsions:
REMARK  status: ('A' for Active; 'I' for Inactive)
REMARK    1  A    between atoms: C_2  and  S_4 
REMARK    2  A    between atoms: S_4  and  N_7 
REMARK    3  A    between atoms: N_7  and  C_9 
REMARK    4  A    between atoms: C_9  and  C_10 
REMARK    5  A    between atoms: C_10  and  O_11 
REMARK    6  A    between atoms: C_10  and  C_12 
REMARK    7  A    between atoms: C_12  and  N_13 
ROOT
HETATM    1  C   UNL     1     -41.726 -51.480  12.388  1.00  0.00     0.163 C 
ENDROOT
BRANCH   1   2
HETATM    2  C   UNL     1     -41.250 -52.918  12.648  1.00  0.00     0.155 C 
BRANCH   2   3
HETATM    3  C   UNL     1     -42.457 -53.812  13.020  1.00  0.00     0.167 C 
BRANCH   3   4
HETATM    4  N   UNL     1     -43.387 -53.234  14.033  1.00  0.00    -0.312 N 
HETATM    5  C   UNL     1     -42.830 -53.125  15.395  1.00  0.00     0.162 C 
BRANCH   4   6
HETATM    6  S   UNL     1     -45.061 -53.448  13.926  1.00  0.00     0.231 S 
HETATM    7  O   UNL     1     -45.554 -54.013  15.162  1.00  0.00    -0.205 OA
HETATM    8  O   UNL     1     -45.315 -54.106  12.656  1.00  0.00    -0.205 OA
BRANCH   6   9
HETATM    9  C   UNL     1     -45.764 -51.783  13.786  1.00  0.00     0.121 C 
HETATM   10  C   UNL     1     -46.511 -51.685  12.454  1.00  0.00     0.027 C 
HETATM   11  C   UNL     1     -46.697 -51.414  14.930  1.00  0.00     0.027 C 
ENDBRANCH   6   9
ENDBRANCH   4   6
ENDBRANCH   3   4
ENDBRANCH   2   3
BRANCH   2  12
HETATM   12  O   UNL     1     -40.581 -53.421  11.483  1.00  0.00    -0.392 OA
HETATM   13  H   UNL     1     -39.911 -54.076  11.742  1.00  0.00     0.210 HD
ENDBRANCH   2  12
ENDBRANCH   1   2
BRANCH   1  14
HETATM   14  N   UNL     1     -40.629 -50.536  12.288  1.00  0.00    -0.339 N 
HETATM   15  C   UNL     1     -40.323 -49.818  11.164  1.00  0.00     0.184 A 
HETATM   16  N   UNL     1     -39.333 -48.985  11.371  1.00  0.00    -0.350 N 
HETATM   17  C   UNL     1     -38.961 -49.195  12.675  1.00  0.00     0.060 A 
ATOM     18  HN  UNL     1     -38.927 -48.326  10.707  1.00  0.00     0.166 HD
HETATM   19  C   UNL     1     -37.940 -48.578  13.415  1.00  0.00     0.039 A 
HETATM   20  C   UNL     1     -39.754 -50.161  13.281  1.00  0.00     0.062 A 
HETATM   21  C   UNL     1     -37.734 -48.934  14.763  1.00  0.00    -0.054 A 
HETATM   22  C   UNL     1     -36.638 -48.233  15.520  1.00  0.00     0.049 C 
HETATM   23  C   UNL     1     -38.550 -49.919  15.357  1.00  0.00    -0.054 A 
HETATM   24  C   UNL     1     -38.391 -50.336  16.799  1.00  0.00     0.049 C 
HETATM   25  C   UNL     1     -39.572 -50.552  14.613  1.00  0.00     0.039 A 
ENDBRANCH   1  14
TORSDOF 7
ENDMDL
MODEL 6
REMARK VINA RESULT:      -5.7      3.308      4.583
REMARK  7 active torsions:
REMARK  status: ('A' for Active; 'I' for Inactive)
REMARK    1  A    between atoms: C_2  and  S_4 
REMARK    2  A    between atoms: S_4  and  N_7 
REMARK    3  A    between atoms: N_7  and  C_9 
REMARK    4  A    between atoms: C_9  and  C_10 
REMARK    5  A    between atoms: C_10  and  O_11 
REMARK    6  A    between atoms: C_10  and  C_12 
REMARK    7  A    between atoms: C_12  and  N_13 
ROOT
HETATM    1  C   UNL     1     -41.726 -52.805  13.574  1.00  0.00     0.163 C 
ENDROOT
BRANCH   1   2
HETATM    2  C   UNL     1     -41.128 -52.144  12.322  1.00  0.00     0.155 C 
BRANCH   2   3
HETATM    3  C   UNL     1     -39.995 -51.172  12.732  1.00  0.00     0.167 C 
BRANCH   3   4
HETATM    4  N   UNL     1     -39.769 -50.032  11.797  1.00  0.00    -0.312 N 
HETATM    5  C   UNL     1     -38.354 -49.777  11.461  1.00  0.00     0.162 C 
BRANCH   4   6
HETATM    6  S   UNL     1     -40.796 -48.688  11.771  1.00  0.00     0.231 S 
HETATM    7  O   UNL     1     -41.591 -48.666  12.978  1.00  0.00    -0.205 OA
HETATM    8  O   UNL     1     -41.431 -48.678  10.464  1.00  0.00    -0.205 OA
BRANCH   6   9
HETATM    9  C   UNL     1     -39.713 -47.237  11.821  1.00  0.00     0.121 C 
HETATM   10  C   UNL     1     -40.266 -46.187  10.855  1.00  0.00     0.027 C 
HETATM   11  C   UNL     1     -39.563 -46.633  13.210  1.00  0.00     0.027 C 
ENDBRANCH   6   9
ENDBRANCH   4   6
ENDBRANCH   3   4
ENDBRANCH   2   3
BRANCH   2  12
HETATM   12  O   UNL     1     -40.639 -53.155  11.432  1.00  0.00    -0.392 OA
HETATM   13  H   UNL     1     -41.383 -53.588  10.980  1.00  0.00     0.210 HD
ENDBRANCH   2  12
ENDBRANCH   1   2
BRANCH   1  14
HETATM   14  N   UNL     1     -43.173 -52.909  13.515  1.00  0.00    -0.339 N 
HETATM   15  C   UNL     1     -43.859 -53.680  12.616  1.00  0.00     0.184 A 
HETATM   16  N   UNL     1     -45.151 -53.650  12.834  1.00  0.00    -0.350 N 
HETATM   17  C   UNL     1     -45.311 -52.800  13.899  1.00  0.00     0.060 A 
ATOM     18  HN  UNL     1     -45.878 -54.149  12.322  1.00  0.00     0.166 HD
HETATM   19  C   UNL     1     -46.492 -52.397  14.540  1.00  0.00     0.039 A 
HETATM   20  C   UNL     1     -44.090 -52.318  14.353  1.00  0.00     0.062 A 
HETATM   21  C   UNL     1     -46.431 -51.518  15.641  1.00  0.00    -0.054 A 
HETATM   22  C   UNL     1     -47.723 -51.127  16.307  1.00  0.00     0.049 C 
HETATM   23  C   UNL     1     -45.180 -51.039  16.083  1.00  0.00    -0.054 A 
HETATM   24  C   UNL     1     -45.044 -50.107  17.262  1.00  0.00     0.049 C 
HETATM   25  C   UNL     1     -43.988 -51.434  15.433  1.00  0.00     0.039 A 
ENDBRANCH   1  14
TORSDOF 7
ENDMDL
MODEL 7
REMARK VINA RESULT:      -5.7      5.216      7.810
REMARK  7 active torsions:
REMARK  status: ('A' for Active; 'I' for Inactive)
REMARK    1  A    between atoms: C_2  and  S_4 
REMARK    2  A    between atoms: S_4  and  N_7 
REMARK    3  A    between atoms: N_7  and  C_9 
REMARK    4  A    between atoms: C_9  and  C_10 
REMARK    5  A    between atoms: C_10  and  O_11 
REMARK    6  A    between atoms: C_10  and  C_12 
REMARK    7  A    between atoms: C_12  and  N_13 
ROOT
HETATM    1  C   UNL     1     -40.599 -51.806  13.341  1.00  0.00     0.163 C 
ENDROOT
BRANCH   1   2
HETATM    2  C   UNL     1     -41.122 -53.197  12.951  1.00  0.00     0.155 C 
BRANCH   2   3
HETATM    3  C   UNL     1     -42.668 -53.176  12.878  1.00  0.00     0.167 C 
BRANCH   3   4
HETATM    4  N   UNL     1     -43.366 -53.759  14.060  1.00  0.00    -0.312 N 
HETATM    5  C   UNL     1     -42.599 -54.789  14.787  1.00  0.00     0.162 C 
BRANCH   4   6
HETATM    6  S   UNL     1     -45.050 -53.907  14.112  1.00  0.00     0.231 S 
HETATM    7  O   UNL     1     -45.444 -54.483  15.379  1.00  0.00    -0.205 OA
HETATM    8  O   UNL     1     -45.452 -54.524  12.859  1.00  0.00    -0.205 OA
BRANCH   6   9
HETATM    9  C   UNL     1     -45.696 -52.215  14.075  1.00  0.00     0.121 C 
HETATM   10  C   UNL     1     -46.292 -51.955  12.690  1.00  0.00     0.027 C 
HETATM   11  C   UNL     1     -46.739 -51.934  15.147  1.00  0.00     0.027 C 
ENDBRANCH   6   9
ENDBRANCH   4   6
ENDBRANCH   3   4
ENDBRANCH   2   3
BRANCH   2  12
HETATM   12  O   UNL     1     -40.556 -53.588  11.692  1.00  0.00    -0.392 OA
HETATM   13  H   UNL     1     -41.087 -53.227  10.962  1.00  0.00     0.210 HD
ENDBRANCH   2  12
ENDBRANCH   1   2
BRANCH   1  14
HETATM   14  N   UNL     1     -39.728 -51.841  14.502  1.00  0.00    -0.339 N 
HETATM   15  C   UNL     1     -39.650 -52.886  15.382  1.00  0.00     0.184 A 
HETATM   16  N   UNL     1     -38.731 -52.687  16.295  1.00  0.00    -0.350 N 
HETATM   17  C   UNL     1     -38.213 -51.449  16.013  1.00  0.00     0.060 A 
ATOM     18  HN  UNL     1     -38.460 -53.317  17.050  1.00  0.00     0.166 HD
HETATM   19  C   UNL     1     -37.207 -50.736  16.682  1.00  0.00     0.039 A 
HETATM   20  C   UNL     1     -38.815 -50.889  14.893  1.00  0.00     0.062 A 
HETATM   21  C   UNL     1     -36.809 -49.469  16.211  1.00  0.00    -0.054 A 
HETATM   22  C   UNL     1     -35.714 -48.750  16.952  1.00  0.00     0.049 C 
HETATM   23  C   UNL     1     -37.436 -48.918  15.073  1.00  0.00    -0.054 A 
HETATM   24  C   UNL     1     -37.048 -47.573  14.510  1.00  0.00     0.049 C 
HETATM   25  C   UNL     1     -38.458 -49.628  14.402  1.00  0.00     0.039 A 
ENDBRANCH   1  14
TORSDOF 7
ENDMDL
MODEL 8
REMARK VINA RESULT:      -5.5      4.347      7.001
REMARK  7 active torsions:
REMARK  status: ('A' for Active; 'I' for Inactive)
REMARK    1  A    between atoms: C_2  and  S_4 
REMARK    2  A    between atoms: S_4  and  N_7 
REMARK    3  A    between atoms: N_7  and  C_9 
REMARK    4  A    between atoms: C_9  and  C_10 
REMARK    5  A    between atoms: C_10  and  O_11 
REMARK    6  A    between atoms: C_10  and  C_12 
REMARK    7  A    between atoms: C_12  and  N_13 
ROOT
HETATM    1  C   UNL     1     -39.707 -51.606  12.944  1.00  0.00     0.163 C 
ENDROOT
BRANCH   1   2
HETATM    2  C   UNL     1     -40.885 -52.539  12.625  1.00  0.00     0.155 C 
BRANCH   2   3
HETATM    3  C   UNL     1     -42.214 -51.746  12.680  1.00  0.00     0.167 C 
BRANCH   3   4
HETATM    4  N   UNL     1     -43.140 -52.136  13.781  1.00  0.00    -0.312 N 
HETATM    5  C   UNL     1     -42.477 -52.510  15.046  1.00  0.00     0.162 C 
BRANCH   4   6
HETATM    6  S   UNL     1     -44.627 -52.880  13.470  1.00  0.00     0.231 S 
HETATM    7  O   UNL     1     -45.004 -53.695  14.603  1.00  0.00    -0.205 OA
HETATM    8  O   UNL     1     -44.532 -53.456  12.140  1.00  0.00    -0.205 OA
BRANCH   6   9
HETATM    9  C   UNL     1     -45.837 -51.536  13.357  1.00  0.00     0.121 C 
HETATM   10  C   UNL     1     -46.698 -51.764  12.113  1.00  0.00     0.027 C 
HETATM   11  C   UNL     1     -46.727 -51.409  14.584  1.00  0.00     0.027 C 
ENDBRANCH   6   9
ENDBRANCH   4   6
ENDBRANCH   3   4
ENDBRANCH   2   3
BRANCH   2  12
HETATM   12  O   UNL     1     -40.695 -53.129  11.332  1.00  0.00    -0.392 OA
HETATM   13  H   UNL     1     -41.388 -52.824  10.722  1.00  0.00     0.210 HD
ENDBRANCH   2  12
ENDBRANCH   1   2
BRANCH   1  14
HETATM   14  N   UNL     1     -39.856 -50.291  12.348  1.00  0.00    -0.339 N 
HETATM   15  C   UNL     1     -40.354 -50.060  11.094  1.00  0.00     0.184 A 
HETATM   16  N   UNL     1     -40.450 -48.779  10.836  1.00  0.00    -0.350 N 
HETATM   17  C   UNL     1     -39.966 -48.154  11.957  1.00  0.00     0.060 A 
ATOM     18  HN  UNL     1     -40.807 -48.342   9.986  1.00  0.00     0.166 HD
HETATM   19  C   UNL     1     -39.827 -46.782  12.216  1.00  0.00     0.039 A 
HETATM   20  C   UNL     1     -39.585 -49.073  12.927  1.00  0.00     0.062 A 
HETATM   21  C   UNL     1     -39.315 -46.348  13.455  1.00  0.00    -0.054 A 
HETATM   22  C   UNL     1     -39.200 -44.866  13.694  1.00  0.00     0.049 C 
HETATM   23  C   UNL     1     -38.932 -47.299  14.425  1.00  0.00    -0.054 A 
HETATM   24  C   UNL     1     -38.390 -46.901  15.775  1.00  0.00     0.049 C 
HETATM   25  C   UNL     1     -39.060 -48.683  14.164  1.00  0.00     0.039 A 
ENDBRANCH   1  14
TORSDOF 7
ENDMDL
MODEL 9
REMARK VINA RESULT:      -5.3      3.075      4.113
REMARK  7 active torsions:
REMARK  status: ('A' for Active; 'I' for Inactive)
REMARK    1  A    between atoms: C_2  and  S_4 
REMARK    2  A    between atoms: S_4  and  N_7 
REMARK    3  A    between atoms: N_7  and  C_9 
REMARK    4  A    between atoms: C_9  and  C_10 
REMARK    5  A    between atoms: C_10  and  O_11 
REMARK    6  A    between atoms: C_10  and  C_12 
REMARK    7  A    between atoms: C_12  and  N_13 
ROOT
HETATM    1  C   UNL     1     -40.104 -51.577  13.639  1.00  0.00     0.163 C 
ENDROOT
BRANCH   1   2
HETATM    2  C   UNL     1     -39.229 -50.840  12.614  1.00  0.00     0.155 C 
BRANCH   2   3
HETATM    3  C   UNL     1     -39.243 -49.320  12.907  1.00  0.00     0.167 C 
BRANCH   3   4
HETATM    4  N   UNL     1     -40.489 -48.608  12.501  1.00  0.00    -0.312 N 
HETATM    5  C   UNL     1     -40.976 -48.933  11.145  1.00  0.00     0.162 C 
BRANCH   4   6
HETATM    6  S   UNL     1     -40.852 -47.057  13.072  1.00  0.00     0.231 S 
HETATM    7  O   UNL     1     -41.177 -46.197  11.956  1.00  0.00    -0.205 OA
HETATM    8  O   UNL     1     -39.795 -46.700  14.002  1.00  0.00    -0.205 OA
BRANCH   6   9
HETATM    9  C   UNL     1     -42.360 -47.236  14.060  1.00  0.00     0.121 C 
HETATM   10  C   UNL     1     -41.957 -47.529  15.507  1.00  0.00     0.027 C 
HETATM   11  C   UNL     1     -43.270 -46.018  14.014  1.00  0.00     0.027 C 
ENDBRANCH   6   9
ENDBRANCH   4   6
ENDBRANCH   3   4
ENDBRANCH   2   3
BRANCH   2  12
HETATM   12  O   UNL     1     -37.893 -51.358  12.661  1.00  0.00    -0.392 OA
HETATM   13  H   UNL     1     -37.638 -51.701  11.788  1.00  0.00     0.210 HD
ENDBRANCH   2  12
ENDBRANCH   1   2
BRANCH   1  14
HETATM   14  N   UNL     1     -41.426 -51.886  13.128  1.00  0.00    -0.339 N 
HETATM   15  C   UNL     1     -41.669 -52.565  11.964  1.00  0.00     0.184 A 
HETATM   16  N   UNL     1     -42.949 -52.773  11.778  1.00  0.00    -0.350 N 
HETATM   17  C   UNL     1     -43.564 -52.178  12.850  1.00  0.00     0.060 A 
ATOM     18  HN  UNL     1     -43.392 -53.270  11.005  1.00  0.00     0.166 HD
HETATM   19  C   UNL     1     -44.932 -52.089  13.150  1.00  0.00     0.039 A 
HETATM   20  C   UNL     1     -42.638 -51.613  13.719  1.00  0.00     0.062 A 
HETATM   21  C   UNL     1     -45.355 -51.439  14.327  1.00  0.00    -0.054 A 
HETATM   22  C   UNL     1     -46.832 -51.384  14.613  1.00  0.00     0.049 C 
HETATM   23  C   UNL     1     -44.397 -50.870  15.192  1.00  0.00    -0.054 A 
HETATM   24  C   UNL     1     -44.782 -50.172  16.474  1.00  0.00     0.049 C 
HETATM   25  C   UNL     1     -43.018 -50.947  14.890  1.00  0.00     0.039 A 
ENDBRANCH   1  14
TORSDOF 7
ENDMDL
