MODEL 1
REMARK VINA RESULT:      -6.2      0.000      0.000
REMARK  5 active torsions:
REMARK  status: ('A' for Active; 'I' for Inactive)
REMARK    1  A    between atoms: N_1  and  C_2 
REMARK    2  A    between atoms: C_5  and  C_8 
REMARK    3  A    between atoms: N_17  and  C_18 
REMARK    4  A    between atoms: C_18  and  C_19 
REMARK    5  A    between atoms: C_19  and  O_20 
ROOT
HETATM    1  C   UNL     1     -41.421 -52.275  13.257  1.00  0.00     0.119 A 
HETATM    2  N   UNL     1     -41.377 -51.358  12.304  1.00  0.00    -0.340 N 
ATOM      3  HN  UNL     1     -42.148 -51.076  11.698  1.00  0.00     0.167 HD
HETATM    4  C   UNL     1     -40.102 -50.858  12.285  1.00  0.00     0.060 A 
HETATM    5  C   UNL     1     -39.555 -49.858  11.468  1.00  0.00     0.032 A 
HETATM    6  C   UNL     1     -38.209 -49.514  11.633  1.00  0.00     0.002 A 
HETATM    7  C   UNL     1     -37.424 -50.161  12.588  1.00  0.00     0.002 A 
HETATM    8  C   UNL     1     -37.961 -51.164  13.405  1.00  0.00     0.032 A 
HETATM    9  C   UNL     1     -39.315 -51.491  13.233  1.00  0.00     0.063 A 
HETATM   10  N   UNL     1     -40.165 -52.399  13.843  1.00  0.00    -0.329 N 
ENDROOT
BRANCH   1  11
HETATM   11  C   UNL     1     -42.630 -53.080  13.522  1.00  0.00     0.008 C 
HETATM   12  C   UNL     1     -43.579 -53.214  12.495  1.00  0.00     0.017 C 
HETATM   13  C   UNL     1     -44.712 -54.021  12.656  1.00  0.00     0.024 C 
HETATM   14  C   UNL     1     -44.900 -54.755  13.824  1.00  0.00     0.005 C 
HETATM   15  C   UNL     1     -44.021 -54.540  14.886  1.00  0.00     0.024 C 
HETATM   16  C   UNL     1     -42.904 -53.706  14.740  1.00  0.00     0.017 C 
BRANCH  14  17
HETATM   17  N   UNL     1     -46.068 -55.499  14.014  1.00  0.00    -0.303 NA
HETATM   18  H   UNL     1     -46.307 -56.094  13.226  1.00  0.00     0.124 HD
HETATM   19  H   UNL     1     -46.094 -56.006  14.894  1.00  0.00     0.124 HD
ENDBRANCH  14  17
ENDBRANCH   1  11
BRANCH  10  20
HETATM   20  C   UNL     1     -39.756 -53.287  14.918  1.00  0.00     0.157 C 
BRANCH  20  21
HETATM   21  C   UNL     1     -39.393 -54.711  14.500  1.00  0.00     0.184 C 
BRANCH  21  22
HETATM   22  O   UNL     1     -38.605 -54.727  13.318  1.00  0.00    -0.399 OA
HETATM   23  H   UNL     1     -38.335 -53.808  13.136  1.00  0.00     0.209 HD
ENDBRANCH  21  22
ENDBRANCH  20  21
ENDBRANCH  10  20
TORSDOF 5
ENDMDL
MODEL 2
REMARK VINA RESULT:      -6.1      1.737      2.044
REMARK  5 active torsions:
REMARK  status: ('A' for Active; 'I' for Inactive)
REMARK    1  A    between atoms: N_1  and  C_2 
REMARK    2  A    between atoms: C_5  and  C_8 
REMARK    3  A    between atoms: N_17  and  C_18 
REMARK    4  A    between atoms: C_18  and  C_19 
REMARK    5  A    between atoms: C_19  and  O_20 
ROOT
HETATM    1  C   UNL     1     -42.930 -51.336  13.075  1.00  0.00     0.119 A 
HETATM    2  N   UNL     1     -43.203 -50.217  12.424  1.00  0.00    -0.340 N 
ATOM      3  HN  UNL     1     -44.130 -49.875  12.169  1.00  0.00     0.167 HD
HETATM    4  C   UNL     1     -42.008 -49.604  12.158  1.00  0.00     0.060 A 
HETATM    5  C   UNL     1     -41.762 -48.387  11.504  1.00  0.00     0.032 A 
HETATM    6  C   UNL     1     -40.439 -47.962  11.346  1.00  0.00     0.002 A 
HETATM    7  C   UNL     1     -39.383 -48.738  11.824  1.00  0.00     0.002 A 
HETATM    8  C   UNL     1     -39.618 -49.957  12.474  1.00  0.00     0.032 A 
HETATM    9  C   UNL     1     -40.952 -50.365  12.632  1.00  0.00     0.063 A 
HETATM   10  N   UNL     1     -41.551 -51.471  13.210  1.00  0.00    -0.329 N 
ENDROOT
BRANCH   1  11
HETATM   11  C   UNL     1     -43.980 -52.296  13.469  1.00  0.00     0.008 C 
HETATM   12  C   UNL     1     -44.123 -53.472  12.716  1.00  0.00     0.017 C 
HETATM   13  C   UNL     1     -45.050 -54.457  13.077  1.00  0.00     0.024 C 
HETATM   14  C   UNL     1     -45.820 -54.318  14.228  1.00  0.00     0.005 C 
HETATM   15  C   UNL     1     -45.761 -53.106  14.917  1.00  0.00     0.024 C 
HETATM   16  C   UNL     1     -44.858 -52.103  14.538  1.00  0.00     0.017 C 
BRANCH  14  17
HETATM   17  N   UNL     1     -46.798 -55.264  14.547  1.00  0.00    -0.303 NA
HETATM   18  H   UNL     1     -47.407 -54.982  15.310  1.00  0.00     0.124 HD
HETATM   19  H   UNL     1     -47.324 -55.598  13.746  1.00  0.00     0.124 HD
ENDBRANCH  14  17
ENDBRANCH   1  11
BRANCH  10  20
HETATM   20  C   UNL     1     -40.811 -52.548  13.847  1.00  0.00     0.157 C 
BRANCH  20  21
HETATM   21  C   UNL     1     -40.540 -53.773  12.976  1.00  0.00     0.184 C 
BRANCH  21  22
HETATM   22  O   UNL     1     -40.599 -53.458  11.592  1.00  0.00    -0.399 OA
HETATM   23  H   UNL     1     -41.530 -53.259  11.379  1.00  0.00     0.209 HD
ENDBRANCH  21  22
ENDBRANCH  20  21
ENDBRANCH  10  20
TORSDOF 5
ENDMDL
MODEL 3
REMARK VINA RESULT:      -6.1      2.811      5.974
REMARK  5 active torsions:
REMARK  status: ('A' for Active; 'I' for Inactive)
REMARK    1  A    between atoms: N_1  and  C_2 
REMARK    2  A    between atoms: C_5  and  C_8 
REMARK    3  A    between atoms: N_17  and  C_18 
REMARK    4  A    between atoms: C_18  and  C_19 
REMARK    5  A    between atoms: C_19  and  O_20 
ROOT
HETATM    1  C   UNL     1     -42.740 -53.181  15.241  1.00  0.00     0.119 A 
HETATM    2  N   UNL     1     -43.510 -52.846  16.263  1.00  0.00    -0.340 N 
ATOM      3  HN  UNL     1     -43.285 -52.953  17.252  1.00  0.00     0.167 HD
HETATM    4  C   UNL     1     -44.667 -52.330  15.743  1.00  0.00     0.060 A 
HETATM    5  C   UNL     1     -45.790 -51.821  16.413  1.00  0.00     0.032 A 
HETATM    6  C   UNL     1     -46.868 -51.345  15.658  1.00  0.00     0.002 A 
HETATM    7  C   UNL     1     -46.828 -51.385  14.264  1.00  0.00     0.002 A 
HETATM    8  C   UNL     1     -45.713 -51.895  13.586  1.00  0.00     0.032 A 
HETATM    9  C   UNL     1     -44.637 -52.361  14.359  1.00  0.00     0.063 A 
HETATM   10  N   UNL     1     -43.405 -52.911  14.048  1.00  0.00    -0.329 N 
ENDROOT
BRANCH   1  11
HETATM   11  C   UNL     1     -41.430 -53.837  15.422  1.00  0.00     0.008 C 
HETATM   12  C   UNL     1     -41.394 -55.085  16.063  1.00  0.00     0.017 C 
HETATM   13  C   UNL     1     -40.194 -55.794  16.204  1.00  0.00     0.024 C 
HETATM   14  C   UNL     1     -39.011 -55.301  15.661  1.00  0.00     0.005 C 
HETATM   15  C   UNL     1     -39.021 -54.015  15.121  1.00  0.00     0.024 C 
HETATM   16  C   UNL     1     -40.214 -53.287  15.010  1.00  0.00     0.017 C 
BRANCH  14  17
HETATM   17  N   UNL     1     -37.802 -55.971  15.867  1.00  0.00    -0.303 NA
HETATM   18  H   UNL     1     -37.432 -55.867  16.807  1.00  0.00     0.124 HD
HETATM   19  H   UNL     1     -37.813 -56.941  15.568  1.00  0.00     0.124 HD
ENDBRANCH  14  17
ENDBRANCH   1  11
BRANCH  10  20
HETATM   20  C   UNL     1     -42.939 -53.129  12.689  1.00  0.00     0.157 C 
BRANCH  20  21
HETATM   21  C   UNL     1     -42.003 -52.059  12.129  1.00  0.00     0.184 C 
BRANCH  21  22
HETATM   22  O   UNL     1     -41.280 -52.529  11.001  1.00  0.00    -0.399 OA
HETATM   23  H   UNL     1     -40.858 -51.755  10.583  1.00  0.00     0.209 HD
ENDBRANCH  21  22
ENDBRANCH  20  21
ENDBRANCH  10  20
TORSDOF 5
ENDMDL
MODEL 4
REMARK VINA RESULT:      -6.0      4.165      6.945
REMARK  5 active torsions:
REMARK  status: ('A' for Active; 'I' for Inactive)
REMARK    1  A    between atoms: N_1  and  C_2 
REMARK    2  A    between atoms: C_5  and  C_8 
REMARK    3  A    between atoms: N_17  and  C_18 
REMARK    4  A    between atoms: C_18  and  C_19 
REMARK    5  A    between atoms: C_19  and  O_20 
ROOT
HETATM    1  C   UNL     1     -44.543 -51.373  15.091  1.00  0.00     0.119 A 
HETATM    2  N   UNL     1     -44.310 -50.643  16.170  1.00  0.00    -0.340 N 
ATOM      3  HN  UNL     1     -43.411 -50.261  16.460  1.00  0.00     0.167 HD
HETATM    4  C   UNL     1     -45.505 -50.497  16.823  1.00  0.00     0.060 A 
HETATM    5  C   UNL     1     -45.789 -49.798  18.006  1.00  0.00     0.032 A 
HETATM    6  C   UNL     1     -47.102 -49.794  18.488  1.00  0.00     0.002 A 
HETATM    7  C   UNL     1     -48.109 -50.479  17.807  1.00  0.00     0.002 A 
HETATM    8  C   UNL     1     -47.835 -51.183  16.628  1.00  0.00     0.032 A 
HETATM    9  C   UNL     1     -46.514 -51.171  16.153  1.00  0.00     0.063 A 
HETATM   10  N   UNL     1     -45.888 -51.732  15.053  1.00  0.00    -0.329 N 
ENDROOT
BRANCH   1  11
HETATM   11  C   UNL     1     -43.465 -51.792  14.175  1.00  0.00     0.008 C 
HETATM   12  C   UNL     1     -42.950 -53.092  14.303  1.00  0.00     0.017 C 
HETATM   13  C   UNL     1     -41.977 -53.578  13.421  1.00  0.00     0.024 C 
HETATM   14  C   UNL     1     -41.533 -52.799  12.356  1.00  0.00     0.005 C 
HETATM   15  C   UNL     1     -41.959 -51.472  12.289  1.00  0.00     0.024 C 
HETATM   16  C   UNL     1     -42.907 -50.971  13.192  1.00  0.00     0.017 C 
BRANCH  14  17
HETATM   17  N   UNL     1     -40.508 -53.254  11.522  1.00  0.00    -0.303 NA
HETATM   18  H   UNL     1     -39.605 -53.319  11.982  1.00  0.00     0.124 HD
HETATM   19  H   UNL     1     -40.738 -54.102  11.014  1.00  0.00     0.124 HD
ENDBRANCH  14  17
ENDBRANCH   1  11
BRANCH  10  20
HETATM   20  C   UNL     1     -46.578 -52.534  14.056  1.00  0.00     0.157 C 
BRANCH  20  21
HETATM   21  C   UNL     1     -46.667 -51.922  12.659  1.00  0.00     0.184 C 
BRANCH  21  22
HETATM   22  O   UNL     1     -45.873 -52.633  11.720  1.00  0.00    -0.399 OA
HETATM   23  H   UNL     1     -45.989 -52.199  10.854  1.00  0.00     0.209 HD
ENDBRANCH  21  22
ENDBRANCH  20  21
ENDBRANCH  10  20
TORSDOF 5
ENDMDL
MODEL 5
REMARK VINA RESULT:      -6.0      3.552      6.532
REMARK  5 active torsions:
REMARK  status: ('A' for Active; 'I' for Inactive)
REMARK    1  A    between atoms: N_1  and  C_2 
REMARK    2  A    between atoms: C_5  and  C_8 
REMARK    3  A    between atoms: N_17  and  C_18 
REMARK    4  A    between atoms: C_18  and  C_19 
REMARK    5  A    between atoms: C_19  and  O_20 
ROOT
HETATM    1  C   UNL     1     -43.659 -52.674  15.307  1.00  0.00     0.119 A 
HETATM    2  N   UNL     1     -43.716 -51.899  16.378  1.00  0.00    -0.340 N 
ATOM      3  HN  UNL     1     -42.928 -51.607  16.957  1.00  0.00     0.167 HD
HETATM    4  C   UNL     1     -45.030 -51.561  16.563  1.00  0.00     0.060 A 
HETATM    5  C   UNL     1     -45.606 -50.747  17.550  1.00  0.00     0.032 A 
HETATM    6  C   UNL     1     -46.991 -50.548  17.537  1.00  0.00     0.002 A 
HETATM    7  C   UNL     1     -47.784 -51.156  16.563  1.00  0.00     0.002 A 
HETATM    8  C   UNL     1     -47.219 -51.974  15.576  1.00  0.00     0.032 A 
HETATM    9  C   UNL     1     -45.827 -52.156  15.599  1.00  0.00     0.063 A 
HETATM   10  N   UNL     1     -44.943 -52.869  14.806  1.00  0.00    -0.329 N 
ENDROOT
BRANCH   1  11
HETATM   11  C   UNL     1     -42.400 -53.287  14.842  1.00  0.00     0.008 C 
HETATM   12  C   UNL     1     -41.863 -52.857  13.618  1.00  0.00     0.017 C 
HETATM   13  C   UNL     1     -40.635 -53.346  13.153  1.00  0.00     0.024 C 
HETATM   14  C   UNL     1     -39.889 -54.234  13.922  1.00  0.00     0.005 C 
HETATM   15  C   UNL     1     -40.467 -54.747  15.084  1.00  0.00     0.024 C 
HETATM   16  C   UNL     1     -41.712 -54.286  15.535  1.00  0.00     0.017 C 
BRANCH  14  17
HETATM   17  N   UNL     1     -38.702 -54.780  13.425  1.00  0.00    -0.303 NA
HETATM   18  H   UNL     1     -37.897 -54.168  13.525  1.00  0.00     0.124 HD
HETATM   19  H   UNL     1     -38.509 -55.719  13.759  1.00  0.00     0.124 HD
ENDBRANCH  14  17
ENDBRANCH   1  11
BRANCH  10  20
HETATM   20  C   UNL     1     -45.349 -53.654  13.652  1.00  0.00     0.157 C 
BRANCH  20  21
HETATM   21  C   UNL     1     -45.580 -55.142  13.910  1.00  0.00     0.184 C 
BRANCH  21  22
HETATM   22  O   UNL     1     -46.851 -55.384  14.498  1.00  0.00    -0.399 OA
HETATM   23  H   UNL     1     -46.697 -55.630  15.430  1.00  0.00     0.209 HD
ENDBRANCH  21  22
ENDBRANCH  20  21
ENDBRANCH  10  20
TORSDOF 5
ENDMDL
MODEL 6
REMARK VINA RESULT:      -5.9      3.918      6.285
REMARK  5 active torsions:
REMARK  status: ('A' for Active; 'I' for Inactive)
REMARK    1  A    between atoms: N_1  and  C_2 
REMARK    2  A    between atoms: C_5  and  C_8 
REMARK    3  A    between atoms: N_17  and  C_18 
REMARK    4  A    between atoms: C_18  and  C_19 
REMARK    5  A    between atoms: C_19  and  O_20 
ROOT
HETATM    1  C   UNL     1     -40.614 -48.359  11.633  1.00  0.00     0.119 A 
HETATM    2  N   UNL     1     -39.428 -48.600  11.098  1.00  0.00    -0.340 N 
ATOM      3  HN  UNL     1     -39.038 -48.157  10.266  1.00  0.00     0.167 HD
HETATM    4  C   UNL     1     -38.822 -49.553  11.872  1.00  0.00     0.060 A 
HETATM    5  C   UNL     1     -37.552 -50.134  11.732  1.00  0.00     0.032 A 
HETATM    6  C   UNL     1     -37.148 -51.103  12.657  1.00  0.00     0.002 A 
HETATM    7  C   UNL     1     -37.997 -51.490  13.694  1.00  0.00     0.002 A 
HETATM    8  C   UNL     1     -39.268 -50.919  13.840  1.00  0.00     0.032 A 
HETATM    9  C   UNL     1     -39.655 -49.943  12.909  1.00  0.00     0.063 A 
HETATM   10  N   UNL     1     -40.799 -49.179  12.743  1.00  0.00    -0.329 N 
ENDROOT
BRANCH   1  11
HETATM   11  C   UNL     1     -41.581 -47.427  11.022  1.00  0.00     0.008 C 
HETATM   12  C   UNL     1     -41.587 -46.093  11.461  1.00  0.00     0.017 C 
HETATM   13  C   UNL     1     -42.429 -45.140  10.874  1.00  0.00     0.024 C 
HETATM   14  C   UNL     1     -43.247 -45.482   9.800  1.00  0.00     0.005 C 
HETATM   15  C   UNL     1     -43.325 -46.826   9.434  1.00  0.00     0.024 C 
HETATM   16  C   UNL     1     -42.509 -47.789  10.043  1.00  0.00     0.017 C 
BRANCH  14  17
HETATM   17  N   UNL     1     -44.141 -44.551   9.264  1.00  0.00    -0.303 NA
HETATM   18  H   UNL     1     -45.065 -44.582   9.686  1.00  0.00     0.124 HD
HETATM   19  H   UNL     1     -43.775 -43.606   9.221  1.00  0.00     0.124 HD
ENDBRANCH  14  17
ENDBRANCH   1  11
BRANCH  10  20
HETATM   20  C   UNL     1     -41.953 -49.256  13.623  1.00  0.00     0.157 C 
BRANCH  20  21
HETATM   21  C   UNL     1     -42.929 -50.396  13.339  1.00  0.00     0.184 C 
BRANCH  21  22
HETATM   22  O   UNL     1     -43.925 -50.016  12.400  1.00  0.00    -0.399 OA
HETATM   23  H   UNL     1     -43.663 -49.150  12.035  1.00  0.00     0.209 HD
ENDBRANCH  21  22
ENDBRANCH  20  21
ENDBRANCH  10  20
TORSDOF 5
ENDMDL
MODEL 7
REMARK VINA RESULT:      -5.8      3.147      5.902
REMARK  5 active torsions:
REMARK  status: ('A' for Active; 'I' for Inactive)
REMARK    1  A    between atoms: N_1  and  C_2 
REMARK    2  A    between atoms: C_5  and  C_8 
REMARK    3  A    between atoms: N_17  and  C_18 
REMARK    4  A    between atoms: C_18  and  C_19 
REMARK    5  A    between atoms: C_19  and  O_20 
ROOT
HETATM    1  C   UNL     1     -41.718 -49.910  12.139  1.00  0.00     0.119 A 
HETATM    2  N   UNL     1     -42.650 -50.849  12.138  1.00  0.00    -0.340 N 
ATOM      3  HN  UNL     1     -43.616 -50.744  11.827  1.00  0.00     0.167 HD
HETATM    4  C   UNL     1     -42.074 -51.989  12.632  1.00  0.00     0.060 A 
HETATM    5  C   UNL     1     -42.639 -53.260  12.816  1.00  0.00     0.032 A 
HETATM    6  C   UNL     1     -41.843 -54.281  13.347  1.00  0.00     0.002 A 
HETATM    7  C   UNL     1     -40.514 -54.036  13.694  1.00  0.00     0.002 A 
HETATM    8  C   UNL     1     -39.942 -52.770  13.517  1.00  0.00     0.032 A 
HETATM    9  C   UNL     1     -40.752 -51.758  12.976  1.00  0.00     0.063 A 
HETATM   10  N   UNL     1     -40.537 -50.426  12.663  1.00  0.00    -0.329 N 
ENDROOT
BRANCH   1  11
HETATM   11  C   UNL     1     -41.999 -48.519  11.732  1.00  0.00     0.008 C 
HETATM   12  C   UNL     1     -41.976 -48.209  10.363  1.00  0.00     0.017 C 
HETATM   13  C   UNL     1     -42.303 -46.927   9.904  1.00  0.00     0.024 C 
HETATM   14  C   UNL     1     -42.713 -45.938  10.795  1.00  0.00     0.005 C 
HETATM   15  C   UNL     1     -42.632 -46.208  12.161  1.00  0.00     0.024 C 
HETATM   16  C   UNL     1     -42.271 -47.480  12.626  1.00  0.00     0.017 C 
BRANCH  14  17
HETATM   17  N   UNL     1     -42.966 -44.639  10.346  1.00  0.00    -0.303 NA
HETATM   18  H   UNL     1     -43.536 -44.090  10.982  1.00  0.00     0.124 HD
HETATM   19  H   UNL     1     -42.134 -44.136  10.051  1.00  0.00     0.124 HD
ENDBRANCH  14  17
ENDBRANCH   1  11
BRANCH  10  20
HETATM   20  C   UNL     1     -39.266 -49.748  12.858  1.00  0.00     0.157 C 
BRANCH  20  21
HETATM   21  C   UNL     1     -38.357 -49.679  11.632  1.00  0.00     0.184 C 
BRANCH  21  22
HETATM   22  O   UNL     1     -37.785 -50.943  11.328  1.00  0.00    -0.399 OA
HETATM   23  H   UNL     1     -37.009 -50.781  10.759  1.00  0.00     0.209 HD
ENDBRANCH  21  22
ENDBRANCH  20  21
ENDBRANCH  10  20
TORSDOF 5
ENDMDL
MODEL 8
REMARK VINA RESULT:      -5.6      2.561      3.518
REMARK  5 active torsions:
REMARK  status: ('A' for Active; 'I' for Inactive)
REMARK    1  A    between atoms: N_1  and  C_2 
REMARK    2  A    between atoms: C_5  and  C_8 
REMARK    3  A    between atoms: N_17  and  C_18 
REMARK    4  A    between atoms: C_18  and  C_19 
REMARK    5  A    between atoms: C_19  and  O_20 
ROOT
HETATM    1  C   UNL     1     -41.343 -50.707  13.468  1.00  0.00     0.119 A 
HETATM    2  N   UNL     1     -40.487 -51.279  14.299  1.00  0.00    -0.340 N 
ATOM      3  HN  UNL     1     -40.620 -52.161  14.793  1.00  0.00     0.167 HD
HETATM    4  C   UNL     1     -39.389 -50.464  14.371  1.00  0.00     0.060 A 
HETATM    5  C   UNL     1     -38.204 -50.635  15.103  1.00  0.00     0.032 A 
HETATM    6  C   UNL     1     -37.212 -49.653  15.019  1.00  0.00     0.002 A 
HETATM    7  C   UNL     1     -37.401 -48.521  14.226  1.00  0.00     0.002 A 
HETATM    8  C   UNL     1     -38.582 -48.339  13.495  1.00  0.00     0.032 A 
HETATM    9  C   UNL     1     -39.565 -49.337  13.584  1.00  0.00     0.063 A 
HETATM   10  N   UNL     1     -40.818 -49.499  13.017  1.00  0.00    -0.329 N 
ENDROOT
BRANCH   1  11
HETATM   11  C   UNL     1     -42.679 -51.273  13.197  1.00  0.00     0.008 C 
HETATM   12  C   UNL     1     -42.755 -52.520  12.556  1.00  0.00     0.017 C 
HETATM   13  C   UNL     1     -43.987 -53.147  12.333  1.00  0.00     0.024 C 
HETATM   14  C   UNL     1     -45.169 -52.571  12.791  1.00  0.00     0.005 C 
HETATM   15  C   UNL     1     -45.110 -51.286  13.329  1.00  0.00     0.024 C 
HETATM   16  C   UNL     1     -43.880 -50.639  13.522  1.00  0.00     0.017 C 
BRANCH  14  17
HETATM   17  N   UNL     1     -46.404 -53.159  12.502  1.00  0.00    -0.303 NA
HETATM   18  H   UNL     1     -46.334 -54.005  11.944  1.00  0.00     0.124 HD
HETATM   19  H   UNL     1     -46.998 -53.288  13.315  1.00  0.00     0.124 HD
ENDBRANCH  14  17
ENDBRANCH   1  11
BRANCH  10  20
HETATM   20  C   UNL     1     -41.417 -48.542  12.102  1.00  0.00     0.157 C 
BRANCH  20  21
HETATM   21  C   UNL     1     -41.408 -48.939  10.627  1.00  0.00     0.184 C 
BRANCH  21  22
HETATM   22  O   UNL     1     -40.408 -49.910  10.349  1.00  0.00    -0.399 OA
HETATM   23  H   UNL     1     -39.752 -49.490   9.762  1.00  0.00     0.209 HD
ENDBRANCH  21  22
ENDBRANCH  20  21
ENDBRANCH  10  20
TORSDOF 5
ENDMDL
MODEL 9
REMARK VINA RESULT:      -5.6      2.864      3.426
REMARK  5 active torsions:
REMARK  status: ('A' for Active; 'I' for Inactive)
REMARK    1  A    between atoms: N_1  and  C_2 
REMARK    2  A    between atoms: C_5  and  C_8 
REMARK    3  A    between atoms: N_17  and  C_18 
REMARK    4  A    between atoms: C_18  and  C_19 
REMARK    5  A    between atoms: C_19  and  O_20 
ROOT
HETATM    1  C   UNL     1     -43.084 -50.176  13.759  1.00  0.00     0.119 A 
HETATM    2  N   UNL     1     -42.613 -48.958  13.969  1.00  0.00    -0.340 N 
ATOM      3  HN  UNL     1     -43.016 -48.249  14.582  1.00  0.00     0.167 HD
HETATM    4  C   UNL     1     -41.482 -48.827  13.208  1.00  0.00     0.060 A 
HETATM    5  C   UNL     1     -40.613 -47.731  13.093  1.00  0.00     0.032 A 
HETATM    6  C   UNL     1     -39.510 -47.833  12.239  1.00  0.00     0.002 A 
HETATM    7  C   UNL     1     -39.283 -49.000  11.510  1.00  0.00     0.002 A 
HETATM    8  C   UNL     1     -40.147 -50.098  11.614  1.00  0.00     0.032 A 
HETATM    9  C   UNL     1     -41.245 -49.982  12.482  1.00  0.00     0.063 A 
HETATM   10  N   UNL     1     -42.278 -50.835  12.836  1.00  0.00    -0.329 N 
ENDROOT
BRANCH   1  11
HETATM   11  C   UNL     1     -44.343 -50.651  14.367  1.00  0.00     0.008 C 
HETATM   12  C   UNL     1     -44.462 -50.613  15.766  1.00  0.00     0.017 C 
HETATM   13  C   UNL     1     -45.654 -50.981  16.403  1.00  0.00     0.024 C 
HETATM   14  C   UNL     1     -46.772 -51.345  15.658  1.00  0.00     0.005 C 
HETATM   15  C   UNL     1     -46.626 -51.490  14.278  1.00  0.00     0.024 C 
HETATM   16  C   UNL     1     -45.424 -51.156  13.640  1.00  0.00     0.017 C 
BRANCH  14  17
HETATM   17  N   UNL     1     -47.936 -51.785  16.295  1.00  0.00    -0.303 NA
HETATM   18  H   UNL     1     -47.817 -51.964  17.288  1.00  0.00     0.124 HD
HETATM   19  H   UNL     1     -48.750 -51.208  16.108  1.00  0.00     0.124 HD
ENDBRANCH  14  17
ENDBRANCH   1  11
BRANCH  10  20
HETATM   20  C   UNL     1     -42.426 -52.182  12.310  1.00  0.00     0.157 C 
BRANCH  20  21
HETATM   21  C   UNL     1     -41.339 -53.176  12.716  1.00  0.00     0.184 C 
BRANCH  21  22
HETATM   22  O   UNL     1     -40.520 -53.539  11.614  1.00  0.00    -0.399 OA
HETATM   23  H   UNL     1     -41.107 -53.897  10.921  1.00  0.00     0.209 HD
ENDBRANCH  21  22
ENDBRANCH  20  21
ENDBRANCH  10  20
TORSDOF 5
ENDMDL
