MODEL 1
REMARK VINA RESULT:      -5.5      0.000      0.000
REMARK  7 active torsions:
REMARK  status: ('A' for Active; 'I' for Inactive)
REMARK    1  A    between atoms: N_6  and  C_7 
REMARK    2  A    between atoms: C_7  and  C_8 
REMARK    3  A    between atoms: C_8  and  O_9 
REMARK    4  A    between atoms: C_8  and  C_10 
REMARK    5  A    between atoms: C_10  and  O_11 
REMARK    6  A    between atoms: O_11  and  C_12 
REMARK    7  A    between atoms: C_12  and  C_13 
ROOT
HETATM    1  C   UNL     1     -41.412 -49.950  12.292  1.00  0.00     0.166 C 
ENDROOT
BRANCH   1   2
HETATM    2  N   UNL     1     -42.360 -51.017  12.611  1.00  0.00    -0.307 N 
HETATM    3  C   UNL     1     -42.153 -52.287  12.148  1.00  0.00     0.186 A 
HETATM    4  N   UNL     1     -42.951 -53.282  12.331  1.00  0.00    -0.355 N 
HETATM    5  C   UNL     1     -44.097 -53.049  13.052  1.00  0.00     0.017 A 
ATOM      6  HN  UNL     1     -42.741 -54.206  11.955  1.00  0.00     0.166 HD
HETATM    7  C   UNL     1     -45.010 -54.240  13.176  1.00  0.00     0.069 C 
HETATM    8  C   UNL     1     -44.403 -51.862  13.611  1.00  0.00     0.028 A 
HETATM    9  C   UNL     1     -43.449 -50.739  13.408  1.00  0.00     0.256 A 
HETATM   10  C   UNL     1     -45.644 -51.597  14.407  1.00  0.00     0.056 C 
HETATM   11  O   UNL     1     -43.649 -49.638  13.918  1.00  0.00    -0.267 OA
ENDBRANCH   1   2
BRANCH   1  12
HETATM   12  C   UNL     1     -40.278 -50.412  11.356  1.00  0.00     0.160 C 
BRANCH  12  13
HETATM   13  O   UNL     1     -40.444 -49.839  10.052  1.00  0.00    -0.392 OA
HETATM   14  H   UNL     1     -39.834 -50.277   9.435  1.00  0.00     0.210 HD
ENDBRANCH  12  13
BRANCH  12  15
HETATM   15  C   UNL     1     -38.904 -50.010  11.917  1.00  0.00     0.201 C 
BRANCH  15  16
HETATM   16  O   UNL     1     -38.191 -51.163  12.344  1.00  0.00    -0.382 OA
BRANCH  16  17
HETATM   17  C   UNL     1     -38.121 -51.258  13.767  1.00  0.00     0.232 C 
BRANCH  17  18
HETATM   18  C   UNL     1     -38.978 -52.394  14.185  1.00  0.00     0.076 A 
HETATM   19  C   UNL     1     -40.000 -52.544  15.102  1.00  0.00     0.037 A 
HETATM   20  C   UNL     1     -40.417 -53.894  15.022  1.00  0.00     0.027 A 
HETATM   21  C   UNL     1     -39.627 -54.482  14.063  1.00  0.00     0.142 A 
HETATM   22  O   UNL     1     -38.750 -53.582  13.551  1.00  0.00    -0.325 OA
ENDBRANCH  17  18
ENDBRANCH  16  17
ENDBRANCH  15  16
ENDBRANCH  12  15
ENDBRANCH   1  12
TORSDOF 7
ENDMDL
MODEL 2
REMARK VINA RESULT:      -5.4      2.660      5.823
REMARK  7 active torsions:
REMARK  status: ('A' for Active; 'I' for Inactive)
REMARK    1  A    between atoms: N_6  and  C_7 
REMARK    2  A    between atoms: C_7  and  C_8 
REMARK    3  A    between atoms: C_8  and  O_9 
REMARK    4  A    between atoms: C_8  and  C_10 
REMARK    5  A    between atoms: C_10  and  O_11 
REMARK    6  A    between atoms: O_11  and  C_12 
REMARK    7  A    between atoms: C_12  and  C_13 
ROOT
HETATM    1  C   UNL     1     -39.972 -51.414  12.753  1.00  0.00     0.166 C 
ENDROOT
BRANCH   1   2
HETATM    2  N   UNL     1     -40.059 -50.005  12.373  1.00  0.00    -0.307 N 
HETATM    3  C   UNL     1     -40.624 -49.644  11.181  1.00  0.00     0.186 A 
HETATM    4  N   UNL     1     -40.702 -48.438  10.733  1.00  0.00    -0.355 N 
HETATM    5  C   UNL     1     -40.184 -47.437  11.518  1.00  0.00     0.017 A 
ATOM      6  HN  UNL     1     -41.133 -48.235   9.831  1.00  0.00     0.166 HD
HETATM    7  C   UNL     1     -40.258 -46.063  10.907  1.00  0.00     0.069 C 
HETATM    8  C   UNL     1     -39.647 -47.641  12.736  1.00  0.00     0.028 A 
HETATM    9  C   UNL     1     -39.595 -49.040  13.240  1.00  0.00     0.256 A 
HETATM   10  C   UNL     1     -39.086 -46.558  13.606  1.00  0.00     0.056 C 
HETATM   11  O   UNL     1     -39.148 -49.294  14.357  1.00  0.00    -0.267 OA
ENDBRANCH   1   2
BRANCH   1  12
HETATM   12  C   UNL     1     -41.119 -52.265  12.176  1.00  0.00     0.160 C 
BRANCH  12  13
HETATM   13  O   UNL     1     -40.597 -53.290  11.318  1.00  0.00    -0.392 OA
HETATM   14  H   UNL     1     -39.634 -53.340  11.437  1.00  0.00     0.210 HD
ENDBRANCH  12  13
BRANCH  12  15
HETATM   15  C   UNL     1     -41.943 -52.915  13.300  1.00  0.00     0.201 C 
BRANCH  15  16
HETATM   16  O   UNL     1     -42.929 -53.779  12.750  1.00  0.00    -0.382 OA
BRANCH  16  17
HETATM   17  C   UNL     1     -43.971 -54.071  13.681  1.00  0.00     0.232 C 
BRANCH  17  18
HETATM   18  C   UNL     1     -45.056 -53.082  13.465  1.00  0.00     0.076 A 
HETATM   19  C   UNL     1     -45.680 -52.146  14.265  1.00  0.00     0.037 A 
HETATM   20  C   UNL     1     -46.648 -51.506  13.455  1.00  0.00     0.027 A 
HETATM   21  C   UNL     1     -46.554 -52.088  12.214  1.00  0.00     0.142 A 
HETATM   22  O   UNL     1     -45.593 -53.047  12.210  1.00  0.00    -0.325 OA
ENDBRANCH  17  18
ENDBRANCH  16  17
ENDBRANCH  15  16
ENDBRANCH  12  15
ENDBRANCH   1  12
TORSDOF 7
ENDMDL
MODEL 3
REMARK VINA RESULT:      -5.3      2.359      5.208
REMARK  7 active torsions:
REMARK  status: ('A' for Active; 'I' for Inactive)
REMARK    1  A    between atoms: N_6  and  C_7 
REMARK    2  A    between atoms: C_7  and  C_8 
REMARK    3  A    between atoms: C_8  and  O_9 
REMARK    4  A    between atoms: C_8  and  C_10 
REMARK    5  A    between atoms: C_10  and  O_11 
REMARK    6  A    between atoms: O_11  and  C_12 
REMARK    7  A    between atoms: C_12  and  C_13 
ROOT
HETATM    1  C   UNL     1     -40.494 -51.648  12.858  1.00  0.00     0.166 C 
ENDROOT
BRANCH   1   2
HETATM    2  N   UNL     1     -40.955 -50.376  12.305  1.00  0.00    -0.307 N 
HETATM    3  C   UNL     1     -40.579 -49.992  11.047  1.00  0.00     0.186 A 
HETATM    4  N   UNL     1     -40.890 -48.872  10.490  1.00  0.00    -0.355 N 
HETATM    5  C   UNL     1     -41.664 -47.999  11.215  1.00  0.00     0.017 A 
ATOM      6  HN  UNL     1     -40.573 -48.643   9.548  1.00  0.00     0.166 HD
HETATM    7  C   UNL     1     -41.939 -46.689  10.526  1.00  0.00     0.069 C 
HETATM    8  C   UNL     1     -42.148 -48.267  12.443  1.00  0.00     0.028 A 
HETATM    9  C   UNL     1     -41.797 -49.580  13.050  1.00  0.00     0.256 A 
HETATM   10  C   UNL     1     -43.000 -47.328  13.240  1.00  0.00     0.056 C 
HETATM   11  O   UNL     1     -42.233 -49.903  14.153  1.00  0.00    -0.267 OA
ENDBRANCH   1   2
BRANCH   1  12
HETATM   12  C   UNL     1     -41.301 -52.857  12.345  1.00  0.00     0.160 C 
BRANCH  12  13
HETATM   13  O   UNL     1     -40.521 -53.617  11.411  1.00  0.00    -0.392 OA
HETATM   14  H   UNL     1     -40.615 -53.225  10.527  1.00  0.00     0.210 HD
ENDBRANCH  12  13
BRANCH  12  15
HETATM   15  C   UNL     1     -41.730 -53.766  13.508  1.00  0.00     0.201 C 
BRANCH  15  16
HETATM   16  O   UNL     1     -43.125 -54.031  13.435  1.00  0.00    -0.382 OA
BRANCH  16  17
HETATM   17  C   UNL     1     -43.799 -53.135  12.552  1.00  0.00     0.232 C 
BRANCH  17  18
HETATM   18  C   UNL     1     -44.972 -52.586  13.277  1.00  0.00     0.076 A 
HETATM   19  C   UNL     1     -45.460 -51.314  13.496  1.00  0.00     0.037 A 
HETATM   20  C   UNL     1     -46.634 -51.462  14.272  1.00  0.00     0.027 A 
HETATM   21  C   UNL     1     -46.790 -52.813  14.477  1.00  0.00     0.142 A 
HETATM   22  O   UNL     1     -45.785 -53.503  13.879  1.00  0.00    -0.325 OA
ENDBRANCH  17  18
ENDBRANCH  16  17
ENDBRANCH  15  16
ENDBRANCH  12  15
ENDBRANCH   1  12
TORSDOF 7
ENDMDL
MODEL 4
REMARK VINA RESULT:      -5.3      1.587      3.130
REMARK  7 active torsions:
REMARK  status: ('A' for Active; 'I' for Inactive)
REMARK    1  A    between atoms: N_6  and  C_7 
REMARK    2  A    between atoms: C_7  and  C_8 
REMARK    3  A    between atoms: C_8  and  O_9 
REMARK    4  A    between atoms: C_8  and  C_10 
REMARK    5  A    between atoms: C_10  and  O_11 
REMARK    6  A    between atoms: O_11  and  C_12 
REMARK    7  A    between atoms: C_12  and  C_13 
ROOT
HETATM    1  C   UNL     1     -41.944 -52.275  12.996  1.00  0.00     0.166 C 
ENDROOT
BRANCH   1   2
HETATM    2  N   UNL     1     -43.222 -52.772  13.502  1.00  0.00    -0.307 N 
HETATM    3  C   UNL     1     -43.382 -54.099  13.793  1.00  0.00     0.186 A 
HETATM    4  N   UNL     1     -44.479 -54.644  14.195  1.00  0.00    -0.355 N 
HETATM    5  C   UNL     1     -45.570 -53.825  14.349  1.00  0.00     0.017 A 
ATOM      6  HN  UNL     1     -44.534 -55.643  14.390  1.00  0.00     0.166 HD
HETATM    7  C   UNL     1     -46.831 -54.536  14.765  1.00  0.00     0.069 C 
HETATM    8  C   UNL     1     -45.544 -52.493  14.151  1.00  0.00     0.028 A 
HETATM    9  C   UNL     1     -44.257 -51.887  13.714  1.00  0.00     0.256 A 
HETATM   10  C   UNL     1     -46.724 -51.587  14.325  1.00  0.00     0.056 C 
HETATM   11  O   UNL     1     -44.152 -50.674  13.547  1.00  0.00    -0.267 OA
ENDBRANCH   1   2
BRANCH   1  12
HETATM   12  C   UNL     1     -40.918 -53.397  12.745  1.00  0.00     0.160 C 
BRANCH  12  13
HETATM   13  O   UNL     1     -40.454 -53.356  11.388  1.00  0.00    -0.392 OA
HETATM   14  H   UNL     1     -39.772 -54.037  11.267  1.00  0.00     0.210 HD
ENDBRANCH  12  13
BRANCH  12  15
HETATM   15  C   UNL     1     -39.716 -53.267  13.696  1.00  0.00     0.201 C 
BRANCH  15  16
HETATM   16  O   UNL     1     -39.845 -52.095  14.492  1.00  0.00    -0.382 OA
BRANCH  16  17
HETATM   17  C   UNL     1     -38.601 -51.412  14.651  1.00  0.00     0.232 C 
BRANCH  17  18
HETATM   18  C   UNL     1     -38.253 -50.803  13.344  1.00  0.00     0.076 A 
HETATM   19  C   UNL     1     -37.185 -50.926  12.477  1.00  0.00     0.037 A 
HETATM   20  C   UNL     1     -37.454 -50.069  11.384  1.00  0.00     0.027 A 
HETATM   21  C   UNL     1     -38.666 -49.478  11.649  1.00  0.00     0.142 A 
HETATM   22  O   UNL     1     -39.158 -49.915  12.837  1.00  0.00    -0.325 OA
ENDBRANCH  17  18
ENDBRANCH  16  17
ENDBRANCH  15  16
ENDBRANCH  12  15
ENDBRANCH   1  12
TORSDOF 7
ENDMDL
MODEL 5
REMARK VINA RESULT:      -5.2      2.309      6.265
REMARK  7 active torsions:
REMARK  status: ('A' for Active; 'I' for Inactive)
REMARK    1  A    between atoms: N_6  and  C_7 
REMARK    2  A    between atoms: C_7  and  C_8 
REMARK    3  A    between atoms: C_8  and  O_9 
REMARK    4  A    between atoms: C_8  and  C_10 
REMARK    5  A    between atoms: C_10  and  O_11 
REMARK    6  A    between atoms: O_11  and  C_12 
REMARK    7  A    between atoms: C_12  and  C_13 
ROOT
HETATM    1  C   UNL     1     -41.709 -53.854  12.949  1.00  0.00     0.166 C 
ENDROOT
BRANCH   1   2
HETATM    2  N   UNL     1     -40.872 -52.676  12.734  1.00  0.00    -0.307 N 
HETATM    3  C   UNL     1     -41.117 -51.835  11.683  1.00  0.00     0.186 A 
HETATM    4  N   UNL     1     -40.409 -50.802  11.379  1.00  0.00    -0.355 N 
HETATM    5  C   UNL     1     -39.328 -50.520  12.178  1.00  0.00     0.017 A 
ATOM      6  HN  UNL     1     -40.643 -50.217  10.577  1.00  0.00     0.166 HD
HETATM    7  C   UNL     1     -38.513 -49.335  11.731  1.00  0.00     0.069 C 
HETATM    8  C   UNL     1     -38.999 -51.229  13.275  1.00  0.00     0.028 A 
HETATM    9  C   UNL     1     -39.851 -52.400  13.618  1.00  0.00     0.256 A 
HETATM   10  C   UNL     1     -37.829 -50.927  14.159  1.00  0.00     0.056 C 
HETATM   11  O   UNL     1     -39.629 -53.071  14.624  1.00  0.00    -0.267 OA
ENDBRANCH   1   2
BRANCH   1  12
HETATM   12  C   UNL     1     -43.186 -53.503  13.218  1.00  0.00     0.160 C 
BRANCH  12  13
HETATM   13  O   UNL     1     -43.905 -53.392  11.982  1.00  0.00    -0.392 OA
HETATM   14  H   UNL     1     -44.367 -52.537  11.961  1.00  0.00     0.210 HD
ENDBRANCH  12  13
BRANCH  12  15
HETATM   15  C   UNL     1     -43.854 -54.572  14.100  1.00  0.00     0.201 C 
BRANCH  15  16
HETATM   16  O   UNL     1     -45.082 -54.989  13.519  1.00  0.00    -0.382 OA
BRANCH  16  17
HETATM   17  C   UNL     1     -46.177 -54.870  14.428  1.00  0.00     0.232 C 
BRANCH  17  18
HETATM   18  C   UNL     1     -46.468 -53.425  14.594  1.00  0.00     0.076 A 
HETATM   19  C   UNL     1     -46.702 -52.607  15.681  1.00  0.00     0.037 A 
HETATM   20  C   UNL     1     -46.915 -51.306  15.167  1.00  0.00     0.027 A 
HETATM   21  C   UNL     1     -46.798 -51.409  13.802  1.00  0.00     0.142 A 
HETATM   22  O   UNL     1     -46.529 -52.691  13.443  1.00  0.00    -0.325 OA
ENDBRANCH  17  18
ENDBRANCH  16  17
ENDBRANCH  15  16
ENDBRANCH  12  15
ENDBRANCH   1  12
TORSDOF 7
ENDMDL
MODEL 6
REMARK VINA RESULT:      -5.2      3.883      6.339
REMARK  7 active torsions:
REMARK  status: ('A' for Active; 'I' for Inactive)
REMARK    1  A    between atoms: N_6  and  C_7 
REMARK    2  A    between atoms: C_7  and  C_8 
REMARK    3  A    between atoms: C_8  and  O_9 
REMARK    4  A    between atoms: C_8  and  C_10 
REMARK    5  A    between atoms: C_10  and  O_11 
REMARK    6  A    between atoms: O_11  and  C_12 
REMARK    7  A    between atoms: C_12  and  C_13 
ROOT
HETATM    1  C   UNL     1     -41.210 -47.861  11.846  1.00  0.00     0.166 C 
ENDROOT
BRANCH   1   2
HETATM    2  N   UNL     1     -41.213 -49.304  12.081  1.00  0.00    -0.307 N 
HETATM    3  C   UNL     1     -40.089 -50.046  11.844  1.00  0.00     0.186 A 
HETATM    4  N   UNL     1     -40.005 -51.326  11.971  1.00  0.00    -0.355 N 
HETATM    5  C   UNL     1     -41.131 -51.995  12.383  1.00  0.00     0.017 A 
ATOM      6  HN  UNL     1     -39.136 -51.822  11.774  1.00  0.00     0.166 HD
HETATM    7  C   UNL     1     -40.978 -53.491  12.453  1.00  0.00     0.069 C 
HETATM    8  C   UNL     1     -42.291 -51.388  12.701  1.00  0.00     0.028 A 
HETATM    9  C   UNL     1     -42.351 -49.907  12.572  1.00  0.00     0.256 A 
HETATM   10  C   UNL     1     -43.523 -52.105  13.160  1.00  0.00     0.056 C 
HETATM   11  O   UNL     1     -43.366 -49.285  12.878  1.00  0.00    -0.267 OA
ENDBRANCH   1   2
BRANCH   1  12
HETATM   12  C   UNL     1     -41.632 -47.483  10.412  1.00  0.00     0.160 C 
BRANCH  12  13
HETATM   13  O   UNL     1     -42.412 -48.536   9.828  1.00  0.00    -0.392 OA
HETATM   14  H   UNL     1     -42.260 -48.547   8.868  1.00  0.00     0.210 HD
ENDBRANCH  12  13
BRANCH  12  15
HETATM   15  C   UNL     1     -42.450 -46.181  10.404  1.00  0.00     0.201 C 
BRANCH  15  16
HETATM   16  O   UNL     1     -42.875 -45.877   9.083  1.00  0.00    -0.382 OA
BRANCH  16  17
HETATM   17  C   UNL     1     -44.208 -45.365   9.049  1.00  0.00     0.232 C 
BRANCH  17  18
HETATM   18  C   UNL     1     -45.128 -46.516   8.881  1.00  0.00     0.076 A 
HETATM   19  C   UNL     1     -46.407 -46.800   9.317  1.00  0.00     0.037 A 
HETATM   20  C   UNL     1     -46.731 -48.080   8.809  1.00  0.00     0.027 A 
HETATM   21  C   UNL     1     -45.633 -48.498   8.096  1.00  0.00     0.142 A 
HETATM   22  O   UNL     1     -44.654 -47.558   8.135  1.00  0.00    -0.325 OA
ENDBRANCH  17  18
ENDBRANCH  16  17
ENDBRANCH  15  16
ENDBRANCH  12  15
ENDBRANCH   1  12
TORSDOF 7
ENDMDL
MODEL 7
REMARK VINA RESULT:      -5.2      2.890      5.203
REMARK  7 active torsions:
REMARK  status: ('A' for Active; 'I' for Inactive)
REMARK    1  A    between atoms: N_6  and  C_7 
REMARK    2  A    between atoms: C_7  and  C_8 
REMARK    3  A    between atoms: C_8  and  O_9 
REMARK    4  A    between atoms: C_8  and  C_10 
REMARK    5  A    between atoms: C_10  and  O_11 
REMARK    6  A    between atoms: O_11  and  C_12 
REMARK    7  A    between atoms: C_12  and  C_13 
ROOT
HETATM    1  C   UNL     1     -39.608 -50.507  12.679  1.00  0.00     0.166 C 
ENDROOT
BRANCH   1   2
HETATM    2  N   UNL     1     -40.867 -51.248  12.712  1.00  0.00    -0.307 N 
HETATM    3  C   UNL     1     -40.956 -52.487  12.139  1.00  0.00     0.186 A 
HETATM    4  N   UNL     1     -42.028 -53.198  12.071  1.00  0.00    -0.355 N 
HETATM    5  C   UNL     1     -43.171 -52.671  12.622  1.00  0.00     0.017 A 
ATOM      6  HN  UNL     1     -42.029 -54.115  11.624  1.00  0.00     0.166 HD
HETATM    7  C   UNL     1     -44.397 -53.529  12.455  1.00  0.00     0.069 C 
HETATM    8  C   UNL     1     -43.218 -51.488  13.264  1.00  0.00     0.028 A 
HETATM    9  C   UNL     1     -41.958 -50.702  13.353  1.00  0.00     0.256 A 
HETATM   10  C   UNL     1     -44.455 -50.907  13.878  1.00  0.00     0.056 C 
HETATM   11  O   UNL     1     -41.922 -49.630  13.953  1.00  0.00    -0.267 OA
ENDBRANCH   1   2
BRANCH   1  12
HETATM   12  C   UNL     1     -39.459 -49.628  11.421  1.00  0.00     0.160 C 
BRANCH  12  13
HETATM   13  O   UNL     1     -40.401 -50.031  10.417  1.00  0.00    -0.392 OA
HETATM   14  H   UNL     1     -40.361 -49.403   9.677  1.00  0.00     0.210 HD
ENDBRANCH  12  13
BRANCH  12  15
HETATM   15  C   UNL     1     -39.678 -48.144  11.757  1.00  0.00     0.201 C 
BRANCH  15  16
HETATM   16  O   UNL     1     -41.016 -47.766  11.460  1.00  0.00    -0.382 OA
BRANCH  16  17
HETATM   17  C   UNL     1     -41.078 -46.574  10.675  1.00  0.00     0.232 C 
BRANCH  17  18
HETATM   18  C   UNL     1     -42.345 -46.609   9.904  1.00  0.00     0.076 A 
HETATM   19  C   UNL     1     -43.105 -47.616   9.344  1.00  0.00     0.037 A 
HETATM   20  C   UNL     1     -44.218 -46.989   8.736  1.00  0.00     0.027 A 
HETATM   21  C   UNL     1     -44.070 -45.642   8.964  1.00  0.00     0.142 A 
HETATM   22  O   UNL     1     -42.936 -45.400   9.670  1.00  0.00    -0.325 OA
ENDBRANCH  17  18
ENDBRANCH  16  17
ENDBRANCH  15  16
ENDBRANCH  12  15
ENDBRANCH   1  12
TORSDOF 7
ENDMDL
MODEL 8
REMARK VINA RESULT:      -5.1      1.736      3.788
REMARK  7 active torsions:
REMARK  status: ('A' for Active; 'I' for Inactive)
REMARK    1  A    between atoms: N_6  and  C_7 
REMARK    2  A    between atoms: C_7  and  C_8 
REMARK    3  A    between atoms: C_8  and  O_9 
REMARK    4  A    between atoms: C_8  and  C_10 
REMARK    5  A    between atoms: C_10  and  O_11 
REMARK    6  A    between atoms: O_11  and  C_12 
REMARK    7  A    between atoms: C_12  and  C_13 
ROOT
HETATM    1  C   UNL     1     -42.286 -51.964  12.175  1.00  0.00     0.166 C 
ENDROOT
BRANCH   1   2
HETATM    2  N   UNL     1     -43.413 -52.535  12.910  1.00  0.00    -0.307 N 
HETATM    3  C   UNL     1     -43.470 -53.880  13.152  1.00  0.00     0.186 A 
HETATM    4  N   UNL     1     -44.441 -54.486  13.745  1.00  0.00    -0.355 N 
HETATM    5  C   UNL     1     -45.497 -53.719  14.172  1.00  0.00     0.017 A 
ATOM      6  HN  UNL     1     -44.425 -55.495  13.891  1.00  0.00     0.166 HD
HETATM    7  C   UNL     1     -46.621 -54.499  14.802  1.00  0.00     0.069 C 
HETATM    8  C   UNL     1     -45.551 -52.379  14.048  1.00  0.00     0.028 A 
HETATM    9  C   UNL     1     -44.403 -51.703  13.385  1.00  0.00     0.256 A 
HETATM   10  C   UNL     1     -46.692 -51.530  14.517  1.00  0.00     0.056 C 
HETATM   11  O   UNL     1     -44.371 -50.479  13.268  1.00  0.00    -0.267 OA
ENDBRANCH   1   2
BRANCH   1  12
HETATM   12  C   UNL     1     -40.933 -52.592  12.562  1.00  0.00     0.160 C 
BRANCH  12  13
HETATM   13  O   UNL     1     -40.435 -53.403  11.488  1.00  0.00    -0.392 OA
HETATM   14  H   UNL     1     -40.307 -52.844  10.703  1.00  0.00     0.210 HD
ENDBRANCH  12  13
BRANCH  12  15
HETATM   15  C   UNL     1     -39.898 -51.507  12.900  1.00  0.00     0.201 C 
BRANCH  15  16
HETATM   16  O   UNL     1     -39.735 -50.624  11.799  1.00  0.00    -0.382 OA
BRANCH  16  17
HETATM   17  C   UNL     1     -39.661 -49.258  12.209  1.00  0.00     0.232 C 
BRANCH  17  18
HETATM   18  C   UNL     1     -40.957 -48.618  11.875  1.00  0.00     0.076 A 
HETATM   19  C   UNL     1     -41.946 -48.001  12.615  1.00  0.00     0.037 A 
HETATM   20  C   UNL     1     -42.940 -47.591  11.695  1.00  0.00     0.027 A 
HETATM   21  C   UNL     1     -42.497 -47.981  10.454  1.00  0.00     0.142 A 
HETATM   22  O   UNL     1     -41.296 -48.607  10.552  1.00  0.00    -0.325 OA
ENDBRANCH  17  18
ENDBRANCH  16  17
ENDBRANCH  15  16
ENDBRANCH  12  15
ENDBRANCH   1  12
TORSDOF 7
ENDMDL
MODEL 9
REMARK VINA RESULT:      -5.0      2.631      5.634
REMARK  7 active torsions:
REMARK  status: ('A' for Active; 'I' for Inactive)
REMARK    1  A    between atoms: N_6  and  C_7 
REMARK    2  A    between atoms: C_7  and  C_8 
REMARK    3  A    between atoms: C_8  and  O_9 
REMARK    4  A    between atoms: C_8  and  C_10 
REMARK    5  A    between atoms: C_10  and  O_11 
REMARK    6  A    between atoms: O_11  and  C_12 
REMARK    7  A    between atoms: C_12  and  C_13 
ROOT
HETATM    1  C   UNL     1     -41.683 -53.921  13.276  1.00  0.00     0.166 C 
ENDROOT
BRANCH   1   2
HETATM    2  N   UNL     1     -40.785 -54.435  14.309  1.00  0.00    -0.307 N 
HETATM    3  C   UNL     1     -39.450 -54.587  14.053  1.00  0.00     0.186 A 
HETATM    4  N   UNL     1     -38.588 -55.077  14.876  1.00  0.00    -0.355 N 
HETATM    5  C   UNL     1     -39.046 -55.471  16.109  1.00  0.00     0.017 A 
ATOM      6  HN  UNL     1     -37.605 -55.168  14.621  1.00  0.00     0.166 HD
HETATM    7  C   UNL     1     -37.996 -56.087  16.997  1.00  0.00     0.069 C 
HETATM    8  C   UNL     1     -40.322 -55.331  16.516  1.00  0.00     0.028 A 
HETATM    9  C   UNL     1     -41.290 -54.736  15.556  1.00  0.00     0.256 A 
HETATM   10  C   UNL     1     -40.831 -55.747  17.862  1.00  0.00     0.056 C 
HETATM   11  O   UNL     1     -42.462 -54.549  15.873  1.00  0.00    -0.267 OA
ENDBRANCH   1   2
BRANCH   1  12
HETATM   12  C   UNL     1     -41.090 -52.727  12.503  1.00  0.00     0.160 C 
BRANCH  12  13
HETATM   13  O   UNL     1     -40.738 -53.121  11.169  1.00  0.00    -0.392 OA
HETATM   14  H   UNL     1     -40.869 -52.366  10.572  1.00  0.00     0.210 HD
ENDBRANCH  12  13
BRANCH  12  15
HETATM   15  C   UNL     1     -42.091 -51.561  12.440  1.00  0.00     0.201 C 
BRANCH  15  16
HETATM   16  O   UNL     1     -42.919 -51.562  13.595  1.00  0.00    -0.382 OA
BRANCH  16  17
HETATM   17  C   UNL     1     -44.154 -50.879  13.374  1.00  0.00     0.232 C 
BRANCH  17  18
HETATM   18  C   UNL     1     -45.229 -51.675  14.016  1.00  0.00     0.076 A 
HETATM   19  C   UNL     1     -46.486 -51.380  14.504  1.00  0.00     0.037 A 
HETATM   20  C   UNL     1     -47.023 -52.594  14.994  1.00  0.00     0.027 A 
HETATM   21  C   UNL     1     -46.063 -53.553  14.773  1.00  0.00     0.142 A 
HETATM   22  O   UNL     1     -44.970 -53.006  14.182  1.00  0.00    -0.325 OA
ENDBRANCH  17  18
ENDBRANCH  16  17
ENDBRANCH  15  16
ENDBRANCH  12  15
ENDBRANCH   1  12
TORSDOF 7
ENDMDL
