MODEL 1
REMARK VINA RESULT:      -5.5      0.000      0.000
REMARK  3 active torsions:
REMARK  status: ('A' for Active; 'I' for Inactive)
REMARK       I    between atoms: N_8  and  C_9 
REMARK       I    between atoms: C_9  and  N_11 
REMARK    1  A    between atoms: N_11  and  C_12 
REMARK    2  A    between atoms: C_12  and  C_13 
REMARK    3  A    between atoms: C_12  and  C_16 
ROOT
HETATM    1  C   UNL     1     -46.254 -47.541   9.266  1.00  0.00     0.078 C 
HETATM    2  C   UNL     1     -44.817 -47.343   9.573  1.00  0.00     0.066 A 
HETATM    3  N   UNL     1     -44.117 -48.114  10.381  1.00  0.00    -0.296 N 
ATOM      4  HN  UNL     1     -44.485 -48.950  10.836  1.00  0.00     0.187 HD
HETATM    5  N   UNL     1     -42.830 -47.655  10.537  1.00  0.00    -0.279 N 
ATOM      6  HN  UNL     1     -42.130 -48.105  11.128  1.00  0.00     0.189 HD
HETATM    7  C   UNL     1     -42.609 -46.568   9.835  1.00  0.00     0.169 A 
HETATM    8  N   UNL     1     -41.478 -45.806   9.790  1.00  0.00    -0.288 N 
HETATM    9  C   UNL     1     -40.419 -45.941  10.642  1.00  0.00     0.322 C 
HETATM   10  O   UNL     1     -39.453 -45.189  10.527  1.00  0.00    -0.247 OA
HETATM   11  N   UNL     1     -40.532 -46.873  11.627  1.00  0.00    -0.337 N 
HETATM   12  S   UNL     1     -43.924 -46.035   8.897  1.00  0.00    -0.038 SA
HETATM   13  H   UNL     1     -41.431 -45.031   9.147  1.00  0.00     0.172 HD
HETATM   14  H   UNL     1     -41.269 -47.563  11.545  1.00  0.00     0.164 HD
ENDROOT
BRANCH  11  15
HETATM   15  C   UNL     1     -39.555 -47.074  12.670  1.00  0.00     0.094 C 
BRANCH  15  16
HETATM   16  C   UNL     1     -40.045 -46.366  13.908  1.00  0.00     0.009 A 
HETATM   17  C   UNL     1     -39.276 -45.197  14.487  1.00  0.00     0.007 A 
HETATM   18  C   UNL     1     -39.290 -46.514  15.208  1.00  0.00     0.007 A 
ENDBRANCH  15  16
BRANCH  15  19
HETATM   19  C   UNL     1     -39.391 -48.555  12.895  1.00  0.00     0.009 A 
HETATM   20  C   UNL     1     -38.047 -49.235  12.783  1.00  0.00     0.007 A 
HETATM   21  C   UNL     1     -39.082 -49.446  11.719  1.00  0.00     0.007 A 
ENDBRANCH  15  19
ENDBRANCH  11  15
TORSDOF 3
ENDMDL
MODEL 2
REMARK VINA RESULT:      -5.3      6.103      7.182
REMARK  3 active torsions:
REMARK  status: ('A' for Active; 'I' for Inactive)
REMARK       I    between atoms: N_8  and  C_9 
REMARK       I    between atoms: C_9  and  N_11 
REMARK    1  A    between atoms: N_11  and  C_12 
REMARK    2  A    between atoms: C_12  and  C_13 
REMARK    3  A    between atoms: C_12  and  C_16 
ROOT
HETATM    1  C   UNL     1     -41.718 -47.422  11.057  1.00  0.00     0.078 C 
HETATM    2  C   UNL     1     -41.670 -48.871  11.372  1.00  0.00     0.066 A 
HETATM    3  N   UNL     1     -42.706 -49.578  11.775  1.00  0.00    -0.296 N 
ATOM      4  HN  UNL     1     -43.653 -49.208  11.863  1.00  0.00     0.187 HD
HETATM    5  N   UNL     1     -42.356 -50.877  12.063  1.00  0.00    -0.279 N 
ATOM      6  HN  UNL     1     -43.011 -51.584  12.398  1.00  0.00     0.189 HD
HETATM    7  C   UNL     1     -41.079 -51.098  11.856  1.00  0.00     0.169 A 
HETATM    8  N   UNL     1     -40.370 -52.241  12.087  1.00  0.00    -0.288 N 
HETATM    9  C   UNL     1     -40.845 -53.320  12.778  1.00  0.00     0.322 C 
HETATM   10  O   UNL     1     -40.115 -54.296  12.947  1.00  0.00    -0.247 OA
HETATM   11  N   UNL     1     -42.096 -53.217  13.303  1.00  0.00    -0.337 N 
HETATM   12  S   UNL     1     -40.204 -49.768  11.257  1.00  0.00    -0.038 SA
HETATM   13  H   UNL     1     -39.401 -52.283  11.814  1.00  0.00     0.172 HD
HETATM   14  H   UNL     1     -42.689 -52.466  12.972  1.00  0.00     0.164 HD
ENDROOT
BRANCH  11  15
HETATM   15  C   UNL     1     -42.708 -54.218  14.144  1.00  0.00     0.094 C 
BRANCH  15  16
HETATM   16  C   UNL     1     -42.094 -54.111  15.516  1.00  0.00     0.009 A 
HETATM   17  C   UNL     1     -41.360 -55.285  16.130  1.00  0.00     0.007 A 
HETATM   18  C   UNL     1     -42.699 -54.872  16.673  1.00  0.00     0.007 A 
ENDBRANCH  15  16
BRANCH  15  19
HETATM   19  C   UNL     1     -44.195 -53.977  14.171  1.00  0.00     0.009 A 
HETATM   20  C   UNL     1     -45.182 -55.026  13.716  1.00  0.00     0.007 A 
HETATM   21  C   UNL     1     -44.936 -53.815  12.868  1.00  0.00     0.007 A 
ENDBRANCH  15  19
ENDBRANCH  11  15
TORSDOF 3
ENDMDL
MODEL 3
REMARK VINA RESULT:      -5.1      3.955      5.511
REMARK  3 active torsions:
REMARK  status: ('A' for Active; 'I' for Inactive)
REMARK       I    between atoms: N_8  and  C_9 
REMARK       I    between atoms: C_9  and  N_11 
REMARK    1  A    between atoms: N_11  and  C_12 
REMARK    2  A    between atoms: C_12  and  C_13 
REMARK    3  A    between atoms: C_12  and  C_16 
ROOT
HETATM    1  C   UNL     1     -45.344 -53.656  13.623  1.00  0.00     0.078 C 
HETATM    2  C   UNL     1     -44.366 -52.632  13.184  1.00  0.00     0.066 A 
HETATM    3  N   UNL     1     -44.663 -51.366  12.965  1.00  0.00    -0.296 N 
ATOM      4  HN  UNL     1     -45.586 -50.960  13.123  1.00  0.00     0.187 HD
HETATM    5  N   UNL     1     -43.579 -50.661  12.497  1.00  0.00    -0.279 N 
ATOM      6  HN  UNL     1     -43.602 -49.669  12.259  1.00  0.00     0.189 HD
HETATM    7  C   UNL     1     -42.510 -51.417  12.393  1.00  0.00     0.169 A 
HETATM    8  N   UNL     1     -41.279 -51.078  11.914  1.00  0.00    -0.288 N 
HETATM    9  C   UNL     1     -40.997 -49.912  11.259  1.00  0.00     0.322 C 
HETATM   10  O   UNL     1     -39.854 -49.713  10.849  1.00  0.00    -0.247 OA
HETATM   11  N   UNL     1     -42.034 -49.060  11.038  1.00  0.00    -0.337 N 
HETATM   12  S   UNL     1     -42.716 -53.030  12.892  1.00  0.00    -0.038 SA
HETATM   13  H   UNL     1     -40.530 -51.751  11.959  1.00  0.00     0.172 HD
HETATM   14  H   UNL     1     -42.891 -49.212  11.556  1.00  0.00     0.164 HD
ENDROOT
BRANCH  11  15
HETATM   15  C   UNL     1     -41.933 -47.840  10.274  1.00  0.00     0.094 C 
BRANCH  15  16
HETATM   16  C   UNL     1     -43.255 -47.610   9.587  1.00  0.00     0.009 A 
HETATM   17  C   UNL     1     -43.374 -47.717   8.082  1.00  0.00     0.007 A 
HETATM   18  C   UNL     1     -43.461 -46.372   8.745  1.00  0.00     0.007 A 
ENDBRANCH  15  16
BRANCH  15  19
HETATM   19  C   UNL     1     -41.582 -46.714  11.213  1.00  0.00     0.009 A 
HETATM   20  C   UNL     1     -40.890 -45.460  10.733  1.00  0.00     0.007 A 
HETATM   21  C   UNL     1     -40.134 -46.464  11.549  1.00  0.00     0.007 A 
ENDBRANCH  15  19
ENDBRANCH  11  15
TORSDOF 3
ENDMDL
MODEL 4
REMARK VINA RESULT:      -5.1      4.506      5.581
REMARK  3 active torsions:
REMARK  status: ('A' for Active; 'I' for Inactive)
REMARK       I    between atoms: N_8  and  C_9 
REMARK       I    between atoms: C_9  and  N_11 
REMARK    1  A    between atoms: N_11  and  C_12 
REMARK    2  A    between atoms: C_12  and  C_13 
REMARK    3  A    between atoms: C_12  and  C_16 
ROOT
HETATM    1  C   UNL     1     -43.818 -45.409   9.062  1.00  0.00     0.078 C 
HETATM    2  C   UNL     1     -43.524 -46.501  10.020  1.00  0.00     0.066 A 
HETATM    3  N   UNL     1     -43.957 -47.739   9.891  1.00  0.00    -0.296 N 
ATOM      4  HN  UNL     1     -44.495 -48.077   9.093  1.00  0.00     0.187 HD
HETATM    5  N   UNL     1     -43.594 -48.521  10.963  1.00  0.00    -0.279 N 
ATOM      6  HN  UNL     1     -43.837 -49.507  11.060  1.00  0.00     0.189 HD
HETATM    7  C   UNL     1     -42.896 -47.847  11.848  1.00  0.00     0.169 A 
HETATM    8  N   UNL     1     -42.421 -48.274  13.053  1.00  0.00    -0.288 N 
HETATM    9  C   UNL     1     -42.768 -49.454  13.649  1.00  0.00     0.322 C 
HETATM   10  O   UNL     1     -42.296 -49.735  14.749  1.00  0.00    -0.247 OA
HETATM   11  N   UNL     1     -43.686 -50.225  13.005  1.00  0.00    -0.337 N 
HETATM   12  S   UNL     1     -42.586 -46.225  11.438  1.00  0.00    -0.038 SA
HETATM   13  H   UNL     1     -41.839 -47.659  13.599  1.00  0.00     0.172 HD
HETATM   14  H   UNL     1     -43.887 -50.013  12.035  1.00  0.00     0.164 HD
ENDROOT
BRANCH  11  15
HETATM   15  C   UNL     1     -44.240 -51.445  13.541  1.00  0.00     0.094 C 
BRANCH  15  16
HETATM   16  C   UNL     1     -45.742 -51.332  13.500  1.00  0.00     0.009 A 
HETATM   17  C   UNL     1     -46.558 -51.388  14.774  1.00  0.00     0.007 A 
HETATM   18  C   UNL     1     -46.597 -52.539  13.810  1.00  0.00     0.007 A 
ENDBRANCH  15  16
BRANCH  15  19
HETATM   19  C   UNL     1     -43.738 -52.602  12.716  1.00  0.00     0.009 A 
HETATM   20  C   UNL     1     -43.082 -53.808  13.346  1.00  0.00     0.007 A 
HETATM   21  C   UNL     1     -42.253 -52.820  12.583  1.00  0.00     0.007 A 
ENDBRANCH  15  19
ENDBRANCH  11  15
TORSDOF 3
ENDMDL
MODEL 5
REMARK VINA RESULT:      -5.1      3.502      5.407
REMARK  3 active torsions:
REMARK  status: ('A' for Active; 'I' for Inactive)
REMARK       I    between atoms: N_8  and  C_9 
REMARK       I    between atoms: C_9  and  N_11 
REMARK    1  A    between atoms: N_11  and  C_12 
REMARK    2  A    between atoms: C_12  and  C_13 
REMARK    3  A    between atoms: C_12  and  C_16 
ROOT
HETATM    1  C   UNL     1     -40.810 -54.011  12.759  1.00  0.00     0.078 C 
HETATM    2  C   UNL     1     -41.361 -52.639  12.642  1.00  0.00     0.066 A 
HETATM    3  N   UNL     1     -41.360 -51.930  11.531  1.00  0.00    -0.296 N 
ATOM      4  HN  UNL     1     -41.024 -52.276  10.632  1.00  0.00     0.187 HD
HETATM    5  N   UNL     1     -41.868 -50.667  11.731  1.00  0.00    -0.279 N 
ATOM      6  HN  UNL     1     -41.947 -49.960  11.000  1.00  0.00     0.189 HD
HETATM    7  C   UNL     1     -42.239 -50.479  12.977  1.00  0.00     0.169 A 
HETATM    8  N   UNL     1     -42.728 -49.343  13.551  1.00  0.00    -0.288 N 
HETATM    9  C   UNL     1     -42.731 -48.113  12.955  1.00  0.00     0.322 C 
HETATM   10  O   UNL     1     -43.179 -47.146  13.569  1.00  0.00    -0.247 OA
HETATM   11  N   UNL     1     -42.164 -48.023  11.721  1.00  0.00    -0.337 N 
HETATM   12  S   UNL     1     -42.045 -51.826  13.998  1.00  0.00    -0.038 SA
HETATM   13  H   UNL     1     -43.036 -49.369  14.510  1.00  0.00     0.172 HD
HETATM   14  H   UNL     1     -41.983 -48.883  11.218  1.00  0.00     0.164 HD
ENDROOT
BRANCH  11  15
HETATM   15  C   UNL     1     -41.990 -46.787  10.997  1.00  0.00     0.094 C 
BRANCH  15  16
HETATM   16  C   UNL     1     -40.512 -46.511  10.895  1.00  0.00     0.009 A 
HETATM   17  C   UNL     1     -39.859 -45.457  11.764  1.00  0.00     0.007 A 
HETATM   18  C   UNL     1     -40.028 -45.213  10.291  1.00  0.00     0.007 A 
ENDBRANCH  15  16
BRANCH  15  19
HETATM   19  C   UNL     1     -42.632 -46.931   9.641  1.00  0.00     0.009 A 
HETATM   20  C   UNL     1     -43.657 -45.944   9.133  1.00  0.00     0.007 A 
HETATM   21  C   UNL     1     -44.086 -47.317   9.555  1.00  0.00     0.007 A 
ENDBRANCH  15  19
ENDBRANCH  11  15
TORSDOF 3
ENDMDL
MODEL 6
REMARK VINA RESULT:      -5.0      5.862      6.864
REMARK  3 active torsions:
REMARK  status: ('A' for Active; 'I' for Inactive)
REMARK       I    between atoms: N_8  and  C_9 
REMARK       I    between atoms: C_9  and  N_11 
REMARK    1  A    between atoms: N_11  and  C_12 
REMARK    2  A    between atoms: C_12  and  C_13 
REMARK    3  A    between atoms: C_12  and  C_16 
ROOT
HETATM    1  C   UNL     1     -41.123 -46.891  10.628  1.00  0.00     0.078 C 
HETATM    2  C   UNL     1     -41.499 -48.151  11.313  1.00  0.00     0.066 A 
HETATM    3  N   UNL     1     -42.706 -48.680  11.287  1.00  0.00    -0.296 N 
ATOM      4  HN  UNL     1     -43.487 -48.297  10.752  1.00  0.00     0.187 HD
HETATM    5  N   UNL     1     -42.786 -49.809  12.068  1.00  0.00    -0.279 N 
ATOM      6  HN  UNL     1     -43.635 -50.362  12.189  1.00  0.00     0.189 HD
HETATM    7  C   UNL     1     -41.638 -50.092  12.640  1.00  0.00     0.169 A 
HETATM    8  N   UNL     1     -41.357 -51.095  13.521  1.00  0.00    -0.288 N 
HETATM    9  C   UNL     1     -42.298 -51.880  14.126  1.00  0.00     0.322 C 
HETATM   10  O   UNL     1     -41.938 -52.746  14.922  1.00  0.00    -0.247 OA
HETATM   11  N   UNL     1     -43.602 -51.602  13.856  1.00  0.00    -0.337 N 
HETATM   12  S   UNL     1     -40.359 -49.041  12.248  1.00  0.00    -0.038 SA
HETATM   13  H   UNL     1     -40.406 -51.231  13.826  1.00  0.00     0.172 HD
HETATM   14  H   UNL     1     -43.806 -51.003  13.066  1.00  0.00     0.164 HD
ENDROOT
BRANCH  11  15
HETATM   15  C   UNL     1     -44.719 -52.263  14.487  1.00  0.00     0.094 C 
BRANCH  15  16
HETATM   16  C   UNL     1     -45.704 -51.205  14.915  1.00  0.00     0.009 A 
HETATM   17  C   UNL     1     -46.203 -51.143  16.343  1.00  0.00     0.007 A 
HETATM   18  C   UNL     1     -47.127 -51.590  15.246  1.00  0.00     0.007 A 
ENDBRANCH  15  16
BRANCH  15  19
HETATM   19  C   UNL     1     -45.324 -53.230  13.502  1.00  0.00     0.009 A 
HETATM   20  C   UNL     1     -45.361 -54.717  13.763  1.00  0.00     0.007 A 
HETATM   21  C   UNL     1     -44.418 -54.162  12.739  1.00  0.00     0.007 A 
ENDBRANCH  15  19
ENDBRANCH  11  15
TORSDOF 3
ENDMDL
MODEL 7
REMARK VINA RESULT:      -4.9      4.186      5.090
REMARK  3 active torsions:
REMARK  status: ('A' for Active; 'I' for Inactive)
REMARK       I    between atoms: N_8  and  C_9 
REMARK       I    between atoms: C_9  and  N_11 
REMARK    1  A    between atoms: N_11  and  C_12 
REMARK    2  A    between atoms: C_12  and  C_13 
REMARK    3  A    between atoms: C_12  and  C_16 
ROOT
HETATM    1  C   UNL     1     -42.862 -54.834  14.735  1.00  0.00     0.078 C 
HETATM    2  C   UNL     1     -42.266 -53.725  13.950  1.00  0.00     0.066 A 
HETATM    3  N   UNL     1     -41.025 -53.304  14.084  1.00  0.00    -0.296 N 
ATOM      4  HN  UNL     1     -40.339 -53.732  14.708  1.00  0.00     0.187 HD
HETATM    5  N   UNL     1     -40.765 -52.217  13.282  1.00  0.00    -0.279 N 
ATOM      6  HN  UNL     1     -39.866 -51.737  13.244  1.00  0.00     0.189 HD
HETATM    7  C   UNL     1     -41.814 -51.871  12.571  1.00  0.00     0.169 A 
HETATM    8  N   UNL     1     -41.945 -50.815  11.717  1.00  0.00    -0.288 N 
HETATM    9  C   UNL     1     -41.043 -49.795  11.603  1.00  0.00     0.322 C 
HETATM   10  O   UNL     1     -41.267 -48.878  10.814  1.00  0.00    -0.247 OA
HETATM   11  N   UNL     1     -39.967 -49.824  12.436  1.00  0.00    -0.337 N 
HETATM   12  S   UNL     1     -43.185 -52.856  12.782  1.00  0.00    -0.038 SA
HETATM   13  H   UNL     1     -42.795 -50.715  11.185  1.00  0.00     0.172 HD
HETATM   14  H   UNL     1     -39.766 -50.690  12.921  1.00  0.00     0.164 HD
ENDROOT
BRANCH  11  15
HETATM   15  C   UNL     1     -38.978 -48.777  12.519  1.00  0.00     0.094 C 
BRANCH  15  16
HETATM   16  C   UNL     1     -39.095 -48.133  13.877  1.00  0.00     0.009 A 
HETATM   17  C   UNL     1     -39.121 -46.626  14.021  1.00  0.00     0.007 A 
HETATM   18  C   UNL     1     -37.913 -47.399  14.467  1.00  0.00     0.007 A 
ENDBRANCH  15  16
BRANCH  15  19
HETATM   19  C   UNL     1     -37.616 -49.385  12.299  1.00  0.00     0.009 A 
HETATM   20  C   UNL     1     -37.218 -49.991  10.974  1.00  0.00     0.007 A 
HETATM   21  C   UNL     1     -37.496 -50.880  12.148  1.00  0.00     0.007 A 
ENDBRANCH  15  19
ENDBRANCH  11  15
TORSDOF 3
ENDMDL
MODEL 8
REMARK VINA RESULT:      -4.8      5.600      7.341
REMARK  3 active torsions:
REMARK  status: ('A' for Active; 'I' for Inactive)
REMARK       I    between atoms: N_8  and  C_9 
REMARK       I    between atoms: C_9  and  N_11 
REMARK    1  A    between atoms: N_11  and  C_12 
REMARK    2  A    between atoms: C_12  and  C_13 
REMARK    3  A    between atoms: C_12  and  C_16 
ROOT
HETATM    1  C   UNL     1     -37.713 -49.767  11.351  1.00  0.00     0.078 C 
HETATM    2  C   UNL     1     -38.824 -50.128  12.265  1.00  0.00     0.066 A 
HETATM    3  N   UNL     1     -39.536 -51.232  12.169  1.00  0.00    -0.296 N 
ATOM      4  HN  UNL     1     -39.361 -51.969  11.485  1.00  0.00     0.187 HD
HETATM    5  N   UNL     1     -40.546 -51.271  13.103  1.00  0.00    -0.279 N 
ATOM      6  HN  UNL     1     -41.214 -52.037  13.191  1.00  0.00     0.189 HD
HETATM    7  C   UNL     1     -40.547 -50.204  13.869  1.00  0.00     0.169 A 
HETATM    8  N   UNL     1     -41.428 -49.873  14.855  1.00  0.00    -0.288 N 
HETATM    9  C   UNL     1     -42.608 -50.521  15.089  1.00  0.00     0.322 C 
HETATM   10  O   UNL     1     -43.342 -50.128  15.995  1.00  0.00    -0.247 OA
HETATM   11  N   UNL     1     -42.935 -51.536  14.244  1.00  0.00    -0.337 N 
HETATM   12  S   UNL     1     -39.303 -49.087  13.551  1.00  0.00    -0.038 SA
HETATM   13  H   UNL     1     -41.261 -49.047  15.408  1.00  0.00     0.172 HD
HETATM   14  H   UNL     1     -42.206 -51.909  13.647  1.00  0.00     0.164 HD
ENDROOT
BRANCH  11  15
HETATM   15  C   UNL     1     -44.185 -52.254  14.284  1.00  0.00     0.094 C 
BRANCH  15  16
HETATM   16  C   UNL     1     -45.215 -51.438  13.546  1.00  0.00     0.009 A 
HETATM   17  C   UNL     1     -46.649 -51.380  14.027  1.00  0.00     0.007 A 
HETATM   18  C   UNL     1     -46.311 -52.131  12.771  1.00  0.00     0.007 A 
ENDBRANCH  15  16
BRANCH  15  19
HETATM   19  C   UNL     1     -43.981 -53.609  13.655  1.00  0.00     0.009 A 
HETATM   20  C   UNL     1     -44.172 -54.889  14.435  1.00  0.00     0.007 A 
HETATM   21  C   UNL     1     -42.791 -54.437  14.066  1.00  0.00     0.007 A 
ENDBRANCH  15  19
ENDBRANCH  11  15
TORSDOF 3
ENDMDL
MODEL 9
REMARK VINA RESULT:      -4.6      4.971      6.245
REMARK  3 active torsions:
REMARK  status: ('A' for Active; 'I' for Inactive)
REMARK       I    between atoms: N_8  and  C_9 
REMARK       I    between atoms: C_9  and  N_11 
REMARK    1  A    between atoms: N_11  and  C_12 
REMARK    2  A    between atoms: C_12  and  C_13 
REMARK    3  A    between atoms: C_12  and  C_16 
ROOT
HETATM    1  C   UNL     1     -42.270 -45.430  11.149  1.00  0.00     0.078 C 
HETATM    2  C   UNL     1     -42.369 -46.900  11.309  1.00  0.00     0.066 A 
HETATM    3  N   UNL     1     -43.466 -47.537  11.668  1.00  0.00    -0.296 N 
ATOM      4  HN  UNL     1     -44.366 -47.082  11.825  1.00  0.00     0.187 HD
HETATM    5  N   UNL     1     -43.249 -48.888  11.808  1.00  0.00    -0.279 N 
ATOM      6  HN  UNL     1     -43.968 -49.556  12.087  1.00  0.00     0.189 HD
HETATM    7  C   UNL     1     -42.007 -49.216  11.539  1.00  0.00     0.169 A 
HETATM    8  N   UNL     1     -41.418 -50.444  11.626  1.00  0.00    -0.288 N 
HETATM    9  C   UNL     1     -41.990 -51.536  12.215  1.00  0.00     0.322 C 
HETATM   10  O   UNL     1     -41.365 -52.594  12.258  1.00  0.00    -0.247 OA
HETATM   11  N   UNL     1     -43.212 -51.362  12.788  1.00  0.00    -0.337 N 
HETATM   12  S   UNL     1     -41.009 -47.926  11.054  1.00  0.00    -0.038 SA
HETATM   13  H   UNL     1     -40.465 -50.556  11.319  1.00  0.00     0.172 HD
HETATM   14  H   UNL     1     -43.730 -50.522  12.555  1.00  0.00     0.164 HD
ENDROOT
BRANCH  11  15
HETATM   15  C   UNL     1     -43.909 -52.379  13.538  1.00  0.00     0.094 C 
BRANCH  15  16
HETATM   16  C   UNL     1     -43.081 -52.710  14.753  1.00  0.00     0.009 A 
HETATM   17  C   UNL     1     -42.716 -54.144  15.074  1.00  0.00     0.007 A 
HETATM   18  C   UNL     1     -43.716 -53.417  15.928  1.00  0.00     0.007 A 
ENDBRANCH  15  16
BRANCH  15  19
HETATM   19  C   UNL     1     -45.271 -51.852  13.910  1.00  0.00     0.009 A 
HETATM   20  C   UNL     1     -46.525 -52.673  13.720  1.00  0.00     0.007 A 
HETATM   21  C   UNL     1     -46.249 -51.509  12.816  1.00  0.00     0.007 A 
ENDBRANCH  15  19
ENDBRANCH  11  15
TORSDOF 3
ENDMDL
