MODEL 1
REMARK VINA RESULT:      -5.1      0.000      0.000
REMARK  4 active torsions:
REMARK  status: ('A' for Active; 'I' for Inactive)
REMARK    1  A    between atoms: C_5  and  C_6 
REMARK    2  A    between atoms: C_6  and  C_7 
REMARK    3  A    between atoms: C_7  and  N_8 
REMARK       I    between atoms: N_8  and  C_9 
REMARK    4  A    between atoms: C_9  and  C_11 
ROOT
HETATM    1  C   UNL     1     -40.293 -50.032  11.067  1.00  0.00     0.128 C 
ENDROOT
BRANCH   1   2
HETATM    2  C   UNL     1     -40.815 -48.794  11.800  1.00  0.00     0.077 C 
BRANCH   2   3
HETATM    3  C   UNL     1     -41.680 -47.944  10.927  1.00  0.00     0.018 A 
HETATM    4  N   UNL     1     -42.134 -48.463   9.726  1.00  0.00    -0.357 N 
HETATM    5  C   UNL     1     -42.870 -47.570   9.099  1.00  0.00     0.046 A 
ATOM      6  HN  UNL     1     -41.929 -49.400   9.379  1.00  0.00     0.166 HD
HETATM    7  C   UNL     1     -43.523 -47.790   7.781  1.00  0.00     0.076 C 
HETATM    8  S   UNL     1     -43.054 -46.063   9.905  1.00  0.00    -0.087 SA
HETATM    9  C   UNL     1     -42.083 -46.648  11.188  1.00  0.00     0.076 A 
ENDBRANCH   2   3
ENDBRANCH   1   2
BRANCH   1  10
HETATM   10  N   UNL     1     -40.990 -51.256  11.436  1.00  0.00    -0.360 N 
HETATM   11  C   UNL     1     -40.466 -52.137  12.359  1.00  0.00     0.221 C 
HETATM   12  O   UNL     1     -39.363 -51.936  12.878  1.00  0.00    -0.273 OA
HETATM   13  H   UNL     1     -41.934 -51.385  11.095  1.00  0.00     0.162 HD
BRANCH  11  14
HETATM   14  C   UNL     1     -41.328 -53.369  12.704  1.00  0.00     0.078 C 
HETATM   15  C   UNL     1     -42.826 -53.086  13.018  1.00  0.00     0.014 C 
HETATM   16  C   UNL     1     -42.792 -54.305  13.956  1.00  0.00     0.002 C 
HETATM   17  C   UNL     1     -41.274 -54.064  14.092  1.00  0.00     0.014 C 
ENDBRANCH  11  14
ENDBRANCH   1  10
TORSDOF 4
ENDMDL
MODEL 2
REMARK VINA RESULT:      -5.1      4.148      5.386
REMARK  4 active torsions:
REMARK  status: ('A' for Active; 'I' for Inactive)
REMARK    1  A    between atoms: C_5  and  C_6 
REMARK    2  A    between atoms: C_6  and  C_7 
REMARK    3  A    between atoms: C_7  and  N_8 
REMARK       I    between atoms: N_8  and  C_9 
REMARK    4  A    between atoms: C_9  and  C_11 
ROOT
HETATM    1  C   UNL     1     -42.418 -53.387  13.192  1.00  0.00     0.128 C 
ENDROOT
BRANCH   1   2
HETATM    2  C   UNL     1     -41.846 -52.449  12.126  1.00  0.00     0.077 C 
BRANCH   2   3
HETATM    3  C   UNL     1     -40.523 -51.879  12.527  1.00  0.00     0.018 A 
HETATM    4  N   UNL     1     -39.877 -51.013  11.661  1.00  0.00    -0.357 N 
HETATM    5  C   UNL     1     -38.733 -50.624  12.183  1.00  0.00     0.046 A 
ATOM      6  HN  UNL     1     -40.235 -50.720  10.752  1.00  0.00     0.166 HD
HETATM    7  C   UNL     1     -37.781 -49.689  11.527  1.00  0.00     0.076 C 
HETATM    8  S   UNL     1     -38.365 -51.275  13.731  1.00  0.00    -0.087 SA
HETATM    9  C   UNL     1     -39.845 -52.135  13.704  1.00  0.00     0.076 A 
ENDBRANCH   2   3
ENDBRANCH   1   2
BRANCH   1  10
HETATM   10  N   UNL     1     -43.695 -52.936  13.728  1.00  0.00    -0.360 N 
HETATM   11  C   UNL     1     -44.886 -53.514  13.342  1.00  0.00     0.221 C 
HETATM   12  O   UNL     1     -44.914 -54.413  12.495  1.00  0.00    -0.273 OA
HETATM   13  H   UNL     1     -43.682 -52.271  14.491  1.00  0.00     0.162 HD
BRANCH  11  14
HETATM   14  C   UNL     1     -46.165 -52.983  14.023  1.00  0.00     0.078 C 
HETATM   15  C   UNL     1     -46.454 -51.466  13.839  1.00  0.00     0.014 C 
HETATM   16  C   UNL     1     -47.138 -51.496  15.217  1.00  0.00     0.002 C 
HETATM   17  C   UNL     1     -46.246 -52.709  15.550  1.00  0.00     0.014 C 
ENDBRANCH  11  14
ENDBRANCH   1  10
TORSDOF 4
ENDMDL
MODEL 3
REMARK VINA RESULT:      -5.1      2.805      3.228
REMARK  4 active torsions:
REMARK  status: ('A' for Active; 'I' for Inactive)
REMARK    1  A    between atoms: C_5  and  C_6 
REMARK    2  A    between atoms: C_6  and  C_7 
REMARK    3  A    between atoms: C_7  and  N_8 
REMARK       I    between atoms: N_8  and  C_9 
REMARK    4  A    between atoms: C_9  and  C_11 
ROOT
HETATM    1  C   UNL     1     -42.546 -49.518  12.236  1.00  0.00     0.128 C 
ENDROOT
BRANCH   1   2
HETATM    2  C   UNL     1     -42.571 -47.988  12.168  1.00  0.00     0.077 C 
BRANCH   2   3
HETATM    3  C   UNL     1     -43.207 -47.490  10.910  1.00  0.00     0.018 A 
HETATM    4  N   UNL     1     -44.418 -48.032  10.513  1.00  0.00    -0.357 N 
HETATM    5  C   UNL     1     -44.813 -47.475   9.387  1.00  0.00     0.046 A 
ATOM      6  HN  UNL     1     -44.929 -48.757  11.018  1.00  0.00     0.166 HD
HETATM    7  C   UNL     1     -46.074 -47.814   8.676  1.00  0.00     0.076 C 
HETATM    8  S   UNL     1     -43.759 -46.280   8.742  1.00  0.00    -0.087 SA
HETATM    9  C   UNL     1     -42.700 -46.521  10.065  1.00  0.00     0.076 A 
ENDBRANCH   2   3
ENDBRANCH   1   2
BRANCH   1  10
HETATM   10  N   UNL     1     -43.676 -50.078  12.965  1.00  0.00    -0.360 N 
HETATM   11  C   UNL     1     -43.802 -51.436  13.170  1.00  0.00     0.221 C 
HETATM   12  O   UNL     1     -42.977 -52.231  12.708  1.00  0.00    -0.273 OA
HETATM   13  H   UNL     1     -44.305 -49.437  13.431  1.00  0.00     0.162 HD
BRANCH  11  14
HETATM   14  C   UNL     1     -45.016 -51.899  14.003  1.00  0.00     0.078 C 
HETATM   15  C   UNL     1     -46.414 -51.494  13.453  1.00  0.00     0.014 C 
HETATM   16  C   UNL     1     -46.906 -51.462  14.911  1.00  0.00     0.002 C 
HETATM   17  C   UNL     1     -45.443 -51.194  15.320  1.00  0.00     0.014 C 
ENDBRANCH  11  14
ENDBRANCH   1  10
TORSDOF 4
ENDMDL
MODEL 4
REMARK VINA RESULT:      -5.0      3.072      6.525
REMARK  4 active torsions:
REMARK  status: ('A' for Active; 'I' for Inactive)
REMARK    1  A    between atoms: C_5  and  C_6 
REMARK    2  A    between atoms: C_6  and  C_7 
REMARK    3  A    between atoms: C_7  and  N_8 
REMARK       I    between atoms: N_8  and  C_9 
REMARK    4  A    between atoms: C_9  and  C_11 
ROOT
HETATM    1  C   UNL     1     -41.632 -49.499  12.158  1.00  0.00     0.128 C 
ENDROOT
BRANCH   1   2
HETATM    2  C   UNL     1     -40.915 -50.760  11.670  1.00  0.00     0.077 C 
BRANCH   2   3
HETATM    3  C   UNL     1     -41.441 -51.997  12.324  1.00  0.00     0.018 A 
HETATM    4  N   UNL     1     -42.780 -52.316  12.175  1.00  0.00    -0.357 N 
HETATM    5  C   UNL     1     -43.054 -53.428  12.824  1.00  0.00     0.046 A 
ATOM      6  HN  UNL     1     -43.456 -51.769  11.641  1.00  0.00     0.166 HD
HETATM    7  C   UNL     1     -44.396 -54.066  12.876  1.00  0.00     0.076 C 
HETATM    8  S   UNL     1     -41.729 -54.149  13.649  1.00  0.00    -0.087 SA
HETATM    9  C   UNL     1     -40.716 -52.885  13.096  1.00  0.00     0.076 A 
ENDBRANCH   2   3
ENDBRANCH   1   2
BRANCH   1  10
HETATM   10  N   UNL     1     -42.591 -48.974  11.196  1.00  0.00    -0.360 N 
HETATM   11  C   UNL     1     -42.289 -47.897  10.389  1.00  0.00     0.221 C 
HETATM   12  O   UNL     1     -41.204 -47.314  10.482  1.00  0.00    -0.273 OA
HETATM   13  H   UNL     1     -43.442 -49.498  11.040  1.00  0.00     0.162 HD
BRANCH  11  14
HETATM   14  C   UNL     1     -43.370 -47.471   9.373  1.00  0.00     0.078 C 
HETATM   15  C   UNL     1     -43.546 -45.939   9.169  1.00  0.00     0.014 C 
HETATM   16  C   UNL     1     -45.028 -46.217   8.859  1.00  0.00     0.002 C 
HETATM   17  C   UNL     1     -44.886 -47.499   9.705  1.00  0.00     0.014 C 
ENDBRANCH  11  14
ENDBRANCH   1  10
TORSDOF 4
ENDMDL
MODEL 5
REMARK VINA RESULT:      -4.9      3.224      6.354
REMARK  4 active torsions:
REMARK  status: ('A' for Active; 'I' for Inactive)
REMARK    1  A    between atoms: C_5  and  C_6 
REMARK    2  A    between atoms: C_6  and  C_7 
REMARK    3  A    between atoms: C_7  and  N_8 
REMARK       I    between atoms: N_8  and  C_9 
REMARK    4  A    between atoms: C_9  and  C_11 
ROOT
HETATM    1  C   UNL     1     -41.452 -50.624  12.377  1.00  0.00     0.128 C 
ENDROOT
BRANCH   1   2
HETATM    2  C   UNL     1     -41.752 -52.085  12.033  1.00  0.00     0.077 C 
BRANCH   2   3
HETATM    3  C   UNL     1     -43.063 -52.538  12.589  1.00  0.00     0.018 A 
HETATM    4  N   UNL     1     -44.075 -51.608  12.758  1.00  0.00    -0.357 N 
HETATM    5  C   UNL     1     -45.144 -52.190  13.261  1.00  0.00     0.046 A 
ATOM      6  HN  UNL     1     -44.004 -50.617  12.526  1.00  0.00     0.166 HD
HETATM    7  C   UNL     1     -46.420 -51.491  13.567  1.00  0.00     0.076 C 
HETATM    8  S   UNL     1     -44.995 -53.876  13.564  1.00  0.00    -0.087 SA
HETATM    9  C   UNL     1     -43.388 -53.825  12.976  1.00  0.00     0.076 A 
ENDBRANCH   2   3
ENDBRANCH   1   2
BRANCH   1  10
HETATM   10  N   UNL     1     -41.660 -49.716  11.256  1.00  0.00    -0.360 N 
HETATM   11  C   UNL     1     -42.563 -48.677  11.325  1.00  0.00     0.221 C 
HETATM   12  O   UNL     1     -43.259 -48.501  12.330  1.00  0.00    -0.273 OA
HETATM   13  H   UNL     1     -41.031 -49.787  10.466  1.00  0.00     0.162 HD
BRANCH  11  14
HETATM   14  C   UNL     1     -42.650 -47.755  10.091  1.00  0.00     0.078 C 
HETATM   15  C   UNL     1     -42.551 -46.228  10.374  1.00  0.00     0.014 C 
HETATM   16  C   UNL     1     -43.450 -46.008   9.145  1.00  0.00     0.002 C 
HETATM   17  C   UNL     1     -43.993 -47.432   9.381  1.00  0.00     0.014 C 
ENDBRANCH  11  14
ENDBRANCH   1  10
TORSDOF 4
ENDMDL
MODEL 6
REMARK VINA RESULT:      -4.9      3.847      6.425
REMARK  4 active torsions:
REMARK  status: ('A' for Active; 'I' for Inactive)
REMARK    1  A    between atoms: C_5  and  C_6 
REMARK    2  A    between atoms: C_6  and  C_7 
REMARK    3  A    between atoms: C_7  and  N_8 
REMARK       I    between atoms: N_8  and  C_9 
REMARK    4  A    between atoms: C_9  and  C_11 
ROOT
HETATM    1  C   UNL     1     -41.568 -47.663  10.624  1.00  0.00     0.128 C 
ENDROOT
BRANCH   1   2
HETATM    2  C   UNL     1     -41.414 -48.134  12.073  1.00  0.00     0.077 C 
BRANCH   2   3
HETATM    3  C   UNL     1     -40.224 -49.020  12.254  1.00  0.00     0.018 A 
HETATM    4  N   UNL     1     -39.247 -49.037  11.273  1.00  0.00    -0.357 N 
HETATM    5  C   UNL     1     -38.288 -49.877  11.606  1.00  0.00     0.046 A 
ATOM      6  HN  UNL     1     -39.267 -48.481  10.417  1.00  0.00     0.166 HD
HETATM    7  C   UNL     1     -37.078 -50.143  10.784  1.00  0.00     0.076 C 
HETATM    8  S   UNL     1     -38.505 -50.692  13.103  1.00  0.00    -0.087 SA
HETATM    9  C   UNL     1     -39.985 -49.860  13.325  1.00  0.00     0.076 A 
ENDBRANCH   2   3
ENDBRANCH   1   2
BRANCH   1  10
HETATM   10  N   UNL     1     -42.908 -47.873  10.092  1.00  0.00    -0.360 N 
HETATM   11  C   UNL     1     -43.507 -46.952   9.259  1.00  0.00     0.221 C 
HETATM   12  O   UNL     1     -42.942 -45.894   8.964  1.00  0.00    -0.273 OA
HETATM   13  H   UNL     1     -43.343 -48.774  10.244  1.00  0.00     0.162 HD
BRANCH  11  14
HETATM   14  C   UNL     1     -44.906 -47.317   8.719  1.00  0.00     0.078 C 
HETATM   15  C   UNL     1     -45.999 -46.218   8.860  1.00  0.00     0.014 C 
HETATM   16  C   UNL     1     -47.032 -47.353   8.975  1.00  0.00     0.002 C 
HETATM   17  C   UNL     1     -45.884 -48.245   9.490  1.00  0.00     0.014 C 
ENDBRANCH  11  14
ENDBRANCH   1  10
TORSDOF 4
ENDMDL
MODEL 7
REMARK VINA RESULT:      -4.8      4.077      5.774
REMARK  4 active torsions:
REMARK  status: ('A' for Active; 'I' for Inactive)
REMARK    1  A    between atoms: C_5  and  C_6 
REMARK    2  A    between atoms: C_6  and  C_7 
REMARK    3  A    between atoms: C_7  and  N_8 
REMARK       I    between atoms: N_8  and  C_9 
REMARK    4  A    between atoms: C_9  and  C_11 
ROOT
HETATM    1  C   UNL     1     -41.496 -53.477  14.249  1.00  0.00     0.128 C 
ENDROOT
BRANCH   1   2
HETATM    2  C   UNL     1     -42.380 -53.915  13.079  1.00  0.00     0.077 C 
BRANCH   2   3
HETATM    3  C   UNL     1     -43.822 -53.599  13.312  1.00  0.00     0.018 A 
HETATM    4  N   UNL     1     -44.489 -52.798  12.400  1.00  0.00    -0.357 N 
HETATM    5  C   UNL     1     -45.739 -52.629  12.777  1.00  0.00     0.046 A 
ATOM      6  HN  UNL     1     -44.072 -52.397  11.559  1.00  0.00     0.166 HD
HETATM    7  C   UNL     1     -46.744 -51.827  12.030  1.00  0.00     0.076 C 
HETATM    8  S   UNL     1     -46.183 -53.412  14.241  1.00  0.00    -0.087 SA
HETATM    9  C   UNL     1     -44.591 -54.025  14.379  1.00  0.00     0.076 A 
ENDBRANCH   2   3
ENDBRANCH   1   2
BRANCH   1  10
HETATM   10  N   UNL     1     -40.697 -52.295  13.955  1.00  0.00    -0.360 N 
HETATM   11  C   UNL     1     -39.352 -52.386  13.663  1.00  0.00     0.221 C 
HETATM   12  O   UNL     1     -38.768 -53.475  13.678  1.00  0.00    -0.273 OA
HETATM   13  H   UNL     1     -41.179 -51.413  13.843  1.00  0.00     0.162 HD
BRANCH  11  14
HETATM   14  C   UNL     1     -38.631 -51.067  13.315  1.00  0.00     0.078 C 
HETATM   15  C   UNL     1     -39.153 -50.317  12.057  1.00  0.00     0.014 C 
HETATM   16  C   UNL     1     -37.721 -49.790  11.857  1.00  0.00     0.002 C 
HETATM   17  C   UNL     1     -37.237 -51.033  12.632  1.00  0.00     0.014 C 
ENDBRANCH  11  14
ENDBRANCH   1  10
TORSDOF 4
ENDMDL
MODEL 8
REMARK VINA RESULT:      -4.8      3.103      3.846
REMARK  4 active torsions:
REMARK  status: ('A' for Active; 'I' for Inactive)
REMARK    1  A    between atoms: C_5  and  C_6 
REMARK    2  A    between atoms: C_6  and  C_7 
REMARK    3  A    between atoms: C_7  and  N_8 
REMARK       I    between atoms: N_8  and  C_9 
REMARK    4  A    between atoms: C_9  and  C_11 
ROOT
HETATM    1  C   UNL     1     -42.394 -52.317  12.210  1.00  0.00     0.128 C 
ENDROOT
BRANCH   1   2
HETATM    2  C   UNL     1     -41.312 -51.242  12.345  1.00  0.00     0.077 C 
BRANCH   2   3
HETATM    3  C   UNL     1     -41.890 -49.864  12.389  1.00  0.00     0.018 A 
HETATM    4  N   UNL     1     -42.338 -49.288  11.212  1.00  0.00    -0.357 N 
HETATM    5  C   UNL     1     -42.803 -48.079  11.451  1.00  0.00     0.046 A 
ATOM      6  HN  UNL     1     -42.310 -49.734  10.295  1.00  0.00     0.166 HD
HETATM    7  C   UNL     1     -43.369 -47.174  10.415  1.00  0.00     0.076 C 
HETATM    8  S   UNL     1     -42.727 -47.566  13.089  1.00  0.00    -0.087 SA
HETATM    9  C   UNL     1     -42.025 -49.069  13.512  1.00  0.00     0.076 A 
ENDBRANCH   2   3
ENDBRANCH   1   2
BRANCH   1  10
HETATM   10  N   UNL     1     -43.672 -51.922  12.786  1.00  0.00    -0.360 N 
HETATM   11  C   UNL     1     -44.755 -52.776  12.797  1.00  0.00     0.221 C 
HETATM   12  O   UNL     1     -44.689 -53.897  12.283  1.00  0.00    -0.273 OA
HETATM   13  H   UNL     1     -43.713 -51.048  13.295  1.00  0.00     0.162 HD
BRANCH  11  14
HETATM   14  C   UNL     1     -46.035 -52.258  13.485  1.00  0.00     0.078 C 
HETATM   15  C   UNL     1     -45.824 -51.217  14.622  1.00  0.00     0.014 C 
HETATM   16  C   UNL     1     -47.100 -51.773  15.279  1.00  0.00     0.002 C 
HETATM   17  C   UNL     1     -46.817 -53.094  14.534  1.00  0.00     0.014 C 
ENDBRANCH  11  14
ENDBRANCH   1  10
TORSDOF 4
ENDMDL
MODEL 9
REMARK VINA RESULT:      -4.7      1.469      2.086
REMARK  4 active torsions:
REMARK  status: ('A' for Active; 'I' for Inactive)
REMARK    1  A    between atoms: C_5  and  C_6 
REMARK    2  A    between atoms: C_6  and  C_7 
REMARK    3  A    between atoms: C_7  and  N_8 
REMARK       I    between atoms: N_8  and  C_9 
REMARK    4  A    between atoms: C_9  and  C_11 
ROOT
HETATM    1  C   UNL     1     -40.840 -50.315  12.680  1.00  0.00     0.128 C 
ENDROOT
BRANCH   1   2
HETATM    2  C   UNL     1     -40.613 -49.941  11.213  1.00  0.00     0.077 C 
BRANCH   2   3
HETATM    3  C   UNL     1     -41.004 -48.528  10.923  1.00  0.00     0.018 A 
HETATM    4  N   UNL     1     -40.054 -47.530  11.056  1.00  0.00    -0.357 N 
HETATM    5  C   UNL     1     -40.585 -46.361  10.766  1.00  0.00     0.046 A 
ATOM      6  HN  UNL     1     -39.085 -47.679  11.338  1.00  0.00     0.166 HD
HETATM    7  C   UNL     1     -39.849 -45.069  10.800  1.00  0.00     0.076 C 
HETATM    8  S   UNL     1     -42.245 -46.390  10.324  1.00  0.00    -0.087 SA
HETATM    9  C   UNL     1     -42.255 -48.089  10.531  1.00  0.00     0.076 A 
ENDBRANCH   2   3
ENDBRANCH   1   2
BRANCH   1  10
HETATM   10  N   UNL     1     -41.669 -51.501  12.849  1.00  0.00    -0.360 N 
HETATM   11  C   UNL     1     -41.116 -52.760  12.955  1.00  0.00     0.221 C 
HETATM   12  O   UNL     1     -39.895 -52.930  12.871  1.00  0.00    -0.273 OA
HETATM   13  H   UNL     1     -42.658 -51.368  13.017  1.00  0.00     0.162 HD
BRANCH  11  14
HETATM   14  C   UNL     1     -42.098 -53.928  13.186  1.00  0.00     0.078 C 
HETATM   15  C   UNL     1     -43.608 -53.554  13.203  1.00  0.00     0.014 C 
HETATM   16  C   UNL     1     -43.818 -54.722  14.182  1.00  0.00     0.002 C 
HETATM   17  C   UNL     1     -42.340 -54.550  14.588  1.00  0.00     0.014 C 
ENDBRANCH  11  14
ENDBRANCH   1  10
TORSDOF 4
ENDMDL
