MODEL 1
REMARK VINA RESULT:      -6.1      0.000      0.000
REMARK  3 active torsions:
REMARK  status: ('A' for Active; 'I' for Inactive)
REMARK    1  A    between atoms: C_7  and  N_8 
REMARK       I    between atoms: N_8  and  C_9 
REMARK    2  A    between atoms: C_9  and  C_11 
REMARK    3  A    between atoms: C_11  and  N_12 
ROOT
HETATM    1  N   UNL     1     -42.112 -51.509  11.955  1.00  0.00    -0.355 N 
HETATM    2  C   UNL     1     -41.683 -50.224  12.233  1.00  0.00     0.236 C 
HETATM    3  O   UNL     1     -41.836 -49.677  13.324  1.00  0.00    -0.272 OA
HETATM    4  H   UNL     1     -41.669 -51.983  11.170  1.00  0.00     0.162 HD
ENDROOT
BRANCH   2   5
HETATM    5  C   UNL     1     -40.958 -49.532  11.082  1.00  0.00     0.235 C 
BRANCH   5   6
HETATM    6  N   UNL     1     -41.479 -48.186  10.849  1.00  0.00    -0.301 N 
HETATM    7  C   UNL     1     -42.766 -48.028  10.394  1.00  0.00     0.102 A 
HETATM    8  C   UNL     1     -43.275 -46.824  10.139  1.00  0.00     0.092 A 
HETATM    9  C   UNL     1     -42.438 -45.629  10.334  1.00  0.00     0.252 A 
HETATM   10  O   UNL     1     -42.920 -44.526  10.084  1.00  0.00    -0.268 OA
HETATM   11  N   UNL     1     -41.153 -45.852  10.791  1.00  0.00    -0.271 N 
HETATM   12  C   UNL     1     -40.276 -44.713  10.977  1.00  0.00     0.164 C 
HETATM   13  C   UNL     1     -40.643 -47.107  11.116  1.00  0.00     0.331 A 
HETATM   14  O   UNL     1     -39.522 -47.265  11.610  1.00  0.00    -0.246 OA
ENDBRANCH   5   6
ENDBRANCH   2   5
BRANCH   1  15
HETATM   15  C   UNL     1     -42.800 -52.312  12.958  1.00  0.00     0.088 C 
HETATM   16  C   UNL     1     -41.833 -53.176  13.799  1.00  0.00     0.004 C 
HETATM   17  C   UNL     1     -40.982 -54.134  12.955  1.00  0.00     0.012 C 
HETATM   18  C   UNL     1     -42.630 -53.946  14.867  1.00  0.00     0.006 C 
HETATM   19  C   UNL     1     -43.775 -54.771  14.280  1.00  0.00     0.001 C 
HETATM   20  C   UNL     1     -44.690 -53.933  13.390  1.00  0.00     0.002 C 
HETATM   21  C   UNL     1     -43.918 -53.153  12.327  1.00  0.00     0.025 C 
ENDBRANCH   1  15
TORSDOF 3
ENDMDL
MODEL 2
REMARK VINA RESULT:      -6.0      1.446      1.796
REMARK  3 active torsions:
REMARK  status: ('A' for Active; 'I' for Inactive)
REMARK    1  A    between atoms: C_7  and  N_8 
REMARK       I    between atoms: N_8  and  C_9 
REMARK    2  A    between atoms: C_9  and  C_11 
REMARK    3  A    between atoms: C_11  and  N_12 
ROOT
HETATM    1  N   UNL     1     -43.422 -51.150  12.705  1.00  0.00    -0.355 N 
HETATM    2  C   UNL     1     -42.481 -50.176  12.981  1.00  0.00     0.236 C 
HETATM    3  O   UNL     1     -42.351 -49.649  14.084  1.00  0.00    -0.272 OA
HETATM    4  H   UNL     1     -43.248 -51.743  11.895  1.00  0.00     0.162 HD
ENDROOT
BRANCH   2   5
HETATM    5  C   UNL     1     -41.568 -49.821  11.810  1.00  0.00     0.235 C 
BRANCH   5   6
HETATM    6  N   UNL     1     -41.814 -48.463  11.328  1.00  0.00    -0.301 N 
HETATM    7  C   UNL     1     -43.092 -48.085  10.990  1.00  0.00     0.102 A 
HETATM    8  C   UNL     1     -43.360 -46.869  10.519  1.00  0.00     0.092 A 
HETATM    9  C   UNL     1     -42.263 -45.904  10.340  1.00  0.00     0.252 A 
HETATM   10  O   UNL     1     -42.526 -44.790   9.894  1.00  0.00    -0.268 OA
HETATM   11  N   UNL     1     -41.000 -46.342  10.695  1.00  0.00    -0.271 N 
HETATM   12  C   UNL     1     -39.879 -45.443  10.516  1.00  0.00     0.164 C 
HETATM   13  C   UNL     1     -40.731 -47.594  11.245  1.00  0.00     0.331 A 
HETATM   14  O   UNL     1     -39.608 -47.923  11.638  1.00  0.00    -0.246 OA
ENDBRANCH   5   6
ENDBRANCH   2   5
BRANCH   1  15
HETATM   15  C   UNL     1     -44.352 -51.617  13.726  1.00  0.00     0.088 C 
HETATM   16  C   UNL     1     -44.159 -53.111  14.073  1.00  0.00     0.004 C 
HETATM   17  C   UNL     1     -44.309 -54.041  12.863  1.00  0.00     0.012 C 
HETATM   18  C   UNL     1     -45.136 -53.506  15.194  1.00  0.00     0.006 C 
HETATM   19  C   UNL     1     -46.592 -53.177  14.863  1.00  0.00     0.001 C 
HETATM   20  C   UNL     1     -46.771 -51.718  14.449  1.00  0.00     0.002 C 
HETATM   21  C   UNL     1     -45.804 -51.301  13.343  1.00  0.00     0.025 C 
ENDBRANCH   1  15
TORSDOF 3
ENDMDL
MODEL 3
REMARK VINA RESULT:      -5.8      3.472      5.132
REMARK  3 active torsions:
REMARK  status: ('A' for Active; 'I' for Inactive)
REMARK    1  A    between atoms: C_7  and  N_8 
REMARK       I    between atoms: N_8  and  C_9 
REMARK    2  A    between atoms: C_9  and  C_11 
REMARK    3  A    between atoms: C_11  and  N_12 
ROOT
HETATM    1  N   UNL     1     -43.531 -51.839  13.446  1.00  0.00    -0.355 N 
HETATM    2  C   UNL     1     -42.768 -52.907  13.012  1.00  0.00     0.236 C 
HETATM    3  O   UNL     1     -42.943 -54.065  13.386  1.00  0.00    -0.272 OA
HETATM    4  H   UNL     1     -43.534 -51.006  12.859  1.00  0.00     0.162 HD
ENDROOT
BRANCH   2   5
HETATM    5  C   UNL     1     -41.696 -52.548  11.986  1.00  0.00     0.235 C 
BRANCH   5   6
HETATM    6  N   UNL     1     -40.505 -51.989  12.624  1.00  0.00    -0.301 N 
HETATM    7  C   UNL     1     -39.881 -52.693  13.626  1.00  0.00     0.102 A 
HETATM    8  C   UNL     1     -38.811 -52.211  14.257  1.00  0.00     0.092 A 
HETATM    9  C   UNL     1     -38.288 -50.886  13.887  1.00  0.00     0.252 A 
HETATM   10  O   UNL     1     -37.307 -50.452  14.487  1.00  0.00    -0.268 OA
HETATM   11  N   UNL     1     -38.960 -50.226  12.874  1.00  0.00    -0.271 N 
HETATM   12  C   UNL     1     -38.504 -48.907  12.486  1.00  0.00     0.164 C 
HETATM   13  C   UNL     1     -40.040 -50.758  12.174  1.00  0.00     0.331 A 
HETATM   14  O   UNL     1     -40.561 -50.184  11.213  1.00  0.00    -0.246 OA
ENDBRANCH   5   6
ENDBRANCH   2   5
BRANCH   1  15
HETATM   15  C   UNL     1     -44.611 -52.021  14.407  1.00  0.00     0.088 C 
HETATM   16  C   UNL     1     -45.923 -52.506  13.749  1.00  0.00     0.004 C 
HETATM   17  C   UNL     1     -46.441 -51.561  12.657  1.00  0.00     0.012 C 
HETATM   18  C   UNL     1     -46.991 -52.727  14.835  1.00  0.00     0.006 C 
HETATM   19  C   UNL     1     -47.211 -51.497  15.717  1.00  0.00     0.001 C 
HETATM   20  C   UNL     1     -45.905 -50.974  16.310  1.00  0.00     0.002 C 
HETATM   21  C   UNL     1     -44.827 -50.756  15.249  1.00  0.00     0.025 C 
ENDBRANCH   1  15
TORSDOF 3
ENDMDL
MODEL 4
REMARK VINA RESULT:      -5.7      2.642      4.345
REMARK  3 active torsions:
REMARK  status: ('A' for Active; 'I' for Inactive)
REMARK    1  A    between atoms: C_7  and  N_8 
REMARK       I    between atoms: N_8  and  C_9 
REMARK    2  A    between atoms: C_9  and  C_11 
REMARK    3  A    between atoms: C_11  and  N_12 
ROOT
HETATM    1  N   UNL     1     -43.592 -51.726  12.979  1.00  0.00    -0.355 N 
HETATM    2  C   UNL     1     -42.402 -52.429  12.961  1.00  0.00     0.236 C 
HETATM    3  O   UNL     1     -42.122 -53.313  13.769  1.00  0.00    -0.272 OA
HETATM    4  H   UNL     1     -43.868 -51.265  12.113  1.00  0.00     0.162 HD
ENDROOT
BRANCH   2   5
HETATM    5  C   UNL     1     -41.456 -52.052  11.823  1.00  0.00     0.235 C 
BRANCH   5   6
HETATM    6  N   UNL     1     -40.475 -51.053  12.246  1.00  0.00    -0.301 N 
HETATM    7  C   UNL     1     -39.294 -51.465  12.817  1.00  0.00     0.102 A 
HETATM    8  C   UNL     1     -38.383 -50.593  13.245  1.00  0.00     0.092 A 
HETATM    9  C   UNL     1     -38.648 -49.150  13.119  1.00  0.00     0.252 A 
HETATM   10  O   UNL     1     -37.802 -48.359  13.529  1.00  0.00    -0.268 OA
HETATM   11  N   UNL     1     -39.853 -48.798  12.540  1.00  0.00    -0.271 N 
HETATM   12  C   UNL     1     -40.178 -47.392  12.415  1.00  0.00     0.164 C 
HETATM   13  C   UNL     1     -40.777 -49.712  12.037  1.00  0.00     0.331 A 
HETATM   14  O   UNL     1     -41.803 -49.367  11.442  1.00  0.00    -0.246 OA
ENDBRANCH   5   6
ENDBRANCH   2   5
BRANCH   1  15
HETATM   15  C   UNL     1     -44.611 -51.985  13.988  1.00  0.00     0.088 C 
HETATM   16  C   UNL     1     -45.930 -52.519  13.384  1.00  0.00     0.004 C 
HETATM   17  C   UNL     1     -46.549 -51.574  12.346  1.00  0.00     0.012 C 
HETATM   18  C   UNL     1     -46.928 -52.820  14.516  1.00  0.00     0.006 C 
HETATM   19  C   UNL     1     -47.161 -51.626  15.442  1.00  0.00     0.001 C 
HETATM   20  C   UNL     1     -45.853 -51.053  15.982  1.00  0.00     0.002 C 
HETATM   21  C   UNL     1     -44.844 -50.755  14.874  1.00  0.00     0.025 C 
ENDBRANCH   1  15
TORSDOF 3
ENDMDL
MODEL 5
REMARK VINA RESULT:      -5.7      3.115      4.520
REMARK  3 active torsions:
REMARK  status: ('A' for Active; 'I' for Inactive)
REMARK    1  A    between atoms: C_7  and  N_8 
REMARK       I    between atoms: N_8  and  C_9 
REMARK    2  A    between atoms: C_9  and  C_11 
REMARK    3  A    between atoms: C_11  and  N_12 
ROOT
HETATM    1  N   UNL     1     -43.611 -51.806  13.029  1.00  0.00    -0.355 N 
HETATM    2  C   UNL     1     -42.564 -52.692  12.849  1.00  0.00     0.236 C 
HETATM    3  O   UNL     1     -42.432 -53.729  13.495  1.00  0.00    -0.272 OA
HETATM    4  H   UNL     1     -43.815 -51.171  12.260  1.00  0.00     0.162 HD
ENDROOT
BRANCH   2   5
HETATM    5  C   UNL     1     -41.586 -52.304  11.742  1.00  0.00     0.235 C 
BRANCH   5   6
HETATM    6  N   UNL     1     -40.751 -51.169  12.135  1.00  0.00    -0.301 N 
HETATM    7  C   UNL     1     -41.144 -49.894  11.804  1.00  0.00     0.102 A 
HETATM    8  C   UNL     1     -40.403 -48.832  12.113  1.00  0.00     0.092 A 
HETATM    9  C   UNL     1     -39.122 -49.022  12.815  1.00  0.00     0.252 A 
HETATM   10  O   UNL     1     -38.446 -48.032  13.084  1.00  0.00    -0.268 OA
HETATM   11  N   UNL     1     -38.781 -50.327  13.119  1.00  0.00    -0.271 N 
HETATM   12  C   UNL     1     -37.520 -50.576  13.786  1.00  0.00     0.164 C 
HETATM   13  C   UNL     1     -39.587 -51.431  12.849  1.00  0.00     0.331 A 
HETATM   14  O   UNL     1     -39.298 -52.575  13.215  1.00  0.00    -0.246 OA
ENDBRANCH   5   6
ENDBRANCH   2   5
BRANCH   1  15
HETATM   15  C   UNL     1     -44.642 -52.047  14.030  1.00  0.00     0.088 C 
HETATM   16  C   UNL     1     -45.965 -52.560  13.415  1.00  0.00     0.004 C 
HETATM   17  C   UNL     1     -46.559 -51.607  12.370  1.00  0.00     0.012 C 
HETATM   18  C   UNL     1     -46.977 -52.842  14.540  1.00  0.00     0.006 C 
HETATM   19  C   UNL     1     -47.199 -51.641  15.460  1.00  0.00     0.001 C 
HETATM   20  C   UNL     1     -45.886 -51.089  16.011  1.00  0.00     0.002 C 
HETATM   21  C   UNL     1     -44.863 -50.810  14.912  1.00  0.00     0.025 C 
ENDBRANCH   1  15
TORSDOF 3
ENDMDL
MODEL 6
REMARK VINA RESULT:      -5.4      2.985      4.110
REMARK  3 active torsions:
REMARK  status: ('A' for Active; 'I' for Inactive)
REMARK    1  A    between atoms: C_7  and  N_8 
REMARK       I    between atoms: N_8  and  C_9 
REMARK    2  A    between atoms: C_9  and  C_11 
REMARK    3  A    between atoms: C_11  and  N_12 
ROOT
HETATM    1  N   UNL     1     -42.546 -51.814  12.355  1.00  0.00    -0.355 N 
HETATM    2  C   UNL     1     -41.232 -51.745  11.929  1.00  0.00     0.236 C 
HETATM    3  O   UNL     1     -40.469 -52.709  11.921  1.00  0.00    -0.272 OA
HETATM    4  H   UNL     1     -43.175 -51.082  12.030  1.00  0.00     0.162 HD
ENDROOT
BRANCH   2   5
HETATM    5  C   UNL     1     -40.798 -50.372  11.422  1.00  0.00     0.235 C 
BRANCH   5   6
HETATM    6  N   UNL     1     -39.823 -49.751  12.318  1.00  0.00    -0.301 N 
HETATM    7  C   UNL     1     -38.485 -49.813  12.009  1.00  0.00     0.102 A 
HETATM    8  C   UNL     1     -37.558 -49.289  12.808  1.00  0.00     0.092 A 
HETATM    9  C   UNL     1     -37.969 -48.637  14.063  1.00  0.00     0.252 A 
HETATM   10  O   UNL     1     -37.100 -48.168  14.794  1.00  0.00    -0.268 OA
HETATM   11  N   UNL     1     -39.327 -48.608  14.319  1.00  0.00    -0.271 N 
HETATM   12  C   UNL     1     -39.787 -48.003  15.552  1.00  0.00     0.164 C 
HETATM   13  C   UNL     1     -40.299 -49.103  13.453  1.00  0.00     0.331 A 
HETATM   14  O   UNL     1     -41.509 -48.981  13.666  1.00  0.00    -0.246 OA
ENDBRANCH   5   6
ENDBRANCH   2   5
BRANCH   1  15
HETATM   15  C   UNL     1     -43.120 -53.061  12.845  1.00  0.00     0.088 C 
HETATM   16  C   UNL     1     -44.640 -53.165  12.581  1.00  0.00     0.004 C 
HETATM   17  C   UNL     1     -45.445 -52.018  13.204  1.00  0.00     0.012 C 
HETATM   18  C   UNL     1     -45.153 -54.529  13.075  1.00  0.00     0.006 C 
HETATM   19  C   UNL     1     -44.804 -54.806  14.538  1.00  0.00     0.001 C 
HETATM   20  C   UNL     1     -43.313 -54.632  14.815  1.00  0.00     0.002 C 
HETATM   21  C   UNL     1     -42.779 -53.288  14.324  1.00  0.00     0.025 C 
ENDBRANCH   1  15
TORSDOF 3
ENDMDL
MODEL 7
REMARK VINA RESULT:      -5.4      5.436      7.566
REMARK  3 active torsions:
REMARK  status: ('A' for Active; 'I' for Inactive)
REMARK    1  A    between atoms: C_7  and  N_8 
REMARK       I    between atoms: N_8  and  C_9 
REMARK    2  A    between atoms: C_9  and  C_11 
REMARK    3  A    between atoms: C_11  and  N_12 
ROOT
HETATM    1  N   UNL     1     -43.784 -53.732  14.516  1.00  0.00    -0.355 N 
HETATM    2  C   UNL     1     -44.829 -54.218  13.753  1.00  0.00     0.236 C 
HETATM    3  O   UNL     1     -44.753 -54.414  12.542  1.00  0.00    -0.272 OA
HETATM    4  H   UNL     1     -43.824 -53.907  15.519  1.00  0.00     0.162 HD
ENDROOT
BRANCH   2   5
HETATM    5  C   UNL     1     -46.097 -54.539  14.541  1.00  0.00     0.235 C 
BRANCH   5   6
HETATM    6  N   UNL     1     -46.400 -53.498  15.521  1.00  0.00    -0.301 N 
HETATM    7  C   UNL     1     -47.089 -52.376  15.125  1.00  0.00     0.102 A 
HETATM    8  C   UNL     1     -47.362 -51.387  15.975  1.00  0.00     0.092 A 
HETATM    9  C   UNL     1     -46.906 -51.486  17.371  1.00  0.00     0.252 A 
HETATM   10  O   UNL     1     -47.157 -50.560  18.139  1.00  0.00    -0.268 OA
HETATM   11  N   UNL     1     -46.216 -52.636  17.708  1.00  0.00    -0.271 N 
HETATM   12  C   UNL     1     -45.720 -52.775  19.062  1.00  0.00     0.164 C 
HETATM   13  C   UNL     1     -45.985 -53.696  16.834  1.00  0.00     0.331 A 
HETATM   14  O   UNL     1     -45.447 -54.749  17.188  1.00  0.00    -0.246 OA
ENDBRANCH   5   6
ENDBRANCH   2   5
BRANCH   1  15
HETATM   15  C   UNL     1     -42.498 -53.400  13.916  1.00  0.00     0.088 C 
HETATM   16  C   UNL     1     -41.409 -54.458  14.211  1.00  0.00     0.004 C 
HETATM   17  C   UNL     1     -41.168 -54.682  15.709  1.00  0.00     0.012 C 
HETATM   18  C   UNL     1     -40.104 -54.063  13.496  1.00  0.00     0.006 C 
HETATM   19  C   UNL     1     -39.638 -52.648  13.841  1.00  0.00     0.001 C 
HETATM   20  C   UNL     1     -40.737 -51.611  13.620  1.00  0.00     0.002 C 
HETATM   21  C   UNL     1     -42.045 -51.988  14.312  1.00  0.00     0.025 C 
ENDBRANCH   1  15
TORSDOF 3
ENDMDL
MODEL 8
REMARK VINA RESULT:      -5.4      1.892      2.677
REMARK  3 active torsions:
REMARK  status: ('A' for Active; 'I' for Inactive)
REMARK    1  A    between atoms: C_7  and  N_8 
REMARK       I    between atoms: N_8  and  C_9 
REMARK    2  A    between atoms: C_9  and  C_11 
REMARK    3  A    between atoms: C_11  and  N_12 
ROOT
HETATM    1  N   UNL     1     -43.161 -51.032  12.610  1.00  0.00    -0.355 N 
HETATM    2  C   UNL     1     -41.834 -50.844  12.952  1.00  0.00     0.236 C 
HETATM    3  O   UNL     1     -41.386 -51.051  14.078  1.00  0.00    -0.272 OA
HETATM    4  H   UNL     1     -43.369 -51.153  11.621  1.00  0.00     0.162 HD
ENDROOT
BRANCH   2   5
HETATM    5  C   UNL     1     -40.938 -50.393  11.801  1.00  0.00     0.235 C 
BRANCH   5   6
HETATM    6  N   UNL     1     -40.573 -48.982  11.925  1.00  0.00    -0.301 N 
HETATM    7  C   UNL     1     -39.637 -48.605  12.858  1.00  0.00     0.102 A 
HETATM    8  C   UNL     1     -39.293 -47.330  13.028  1.00  0.00     0.092 A 
HETATM    9  C   UNL     1     -39.940 -46.291  12.208  1.00  0.00     0.252 A 
HETATM   10  O   UNL     1     -39.619 -45.118  12.386  1.00  0.00    -0.268 OA
HETATM   11  N   UNL     1     -40.874 -46.732  11.290  1.00  0.00    -0.271 N 
HETATM   12  C   UNL     1     -41.561 -45.751  10.474  1.00  0.00     0.164 C 
HETATM   13  C   UNL     1     -41.187 -48.072  11.071  1.00  0.00     0.331 A 
HETATM   14  O   UNL     1     -41.957 -48.441  10.180  1.00  0.00    -0.246 OA
ENDBRANCH   5   6
ENDBRANCH   2   5
BRANCH   1  15
HETATM   15  C   UNL     1     -44.139 -51.486  13.591  1.00  0.00     0.088 C 
HETATM   16  C   UNL     1     -44.004 -52.990  13.919  1.00  0.00     0.004 C 
HETATM   17  C   UNL     1     -44.141 -53.896  12.689  1.00  0.00     0.012 C 
HETATM   18  C   UNL     1     -45.031 -53.373  15.000  1.00  0.00     0.006 C 
HETATM   19  C   UNL     1     -46.464 -52.993  14.626  1.00  0.00     0.001 C 
HETATM   20  C   UNL     1     -46.583 -51.523  14.231  1.00  0.00     0.002 C 
HETATM   21  C   UNL     1     -45.566 -51.118  13.165  1.00  0.00     0.025 C 
ENDBRANCH   1  15
TORSDOF 3
ENDMDL
MODEL 9
REMARK VINA RESULT:      -5.2      2.329      7.331
REMARK  3 active torsions:
REMARK  status: ('A' for Active; 'I' for Inactive)
REMARK    1  A    between atoms: C_7  and  N_8 
REMARK       I    between atoms: N_8  and  C_9 
REMARK    2  A    between atoms: C_9  and  C_11 
REMARK    3  A    between atoms: C_11  and  N_12 
ROOT
HETATM    1  N   UNL     1     -39.672 -47.755  11.335  1.00  0.00    -0.355 N 
HETATM    2  C   UNL     1     -38.927 -48.454  12.267  1.00  0.00     0.236 C 
HETATM    3  O   UNL     1     -38.683 -48.033  13.397  1.00  0.00    -0.272 OA
HETATM    4  H   UNL     1     -40.088 -48.296  10.579  1.00  0.00     0.162 HD
ENDROOT
BRANCH   2   5
HETATM    5  C   UNL     1     -38.452 -49.828  11.802  1.00  0.00     0.235 C 
BRANCH   5   6
HETATM    6  N   UNL     1     -39.115 -50.904  12.538  1.00  0.00    -0.301 N 
HETATM    7  C   UNL     1     -38.431 -51.566  13.531  1.00  0.00     0.102 A 
HETATM    8  C   UNL     1     -38.982 -52.571  14.208  1.00  0.00     0.092 A 
HETATM    9  C   UNL     1     -40.353 -53.000  13.880  1.00  0.00     0.252 A 
HETATM   10  O   UNL     1     -40.842 -53.936  14.507  1.00  0.00    -0.268 OA
HETATM   11  N   UNL     1     -40.987 -52.298  12.872  1.00  0.00    -0.271 N 
HETATM   12  C   UNL     1     -42.327 -52.693  12.490  1.00  0.00     0.164 C 
HETATM   13  C   UNL     1     -40.431 -51.206  12.207  1.00  0.00     0.331 A 
HETATM   14  O   UNL     1     -41.057 -50.542  11.376  1.00  0.00    -0.246 OA
ENDBRANCH   5   6
ENDBRANCH   2   5
BRANCH   1  15
HETATM   15  C   UNL     1     -40.218 -46.438  11.635  1.00  0.00     0.088 C 
HETATM   16  C   UNL     1     -41.744 -46.465  11.882  1.00  0.00     0.004 C 
HETATM   17  C   UNL     1     -42.542 -47.029  10.700  1.00  0.00     0.012 C 
HETATM   18  C   UNL     1     -42.229 -45.051  12.247  1.00  0.00     0.006 C 
HETATM   19  C   UNL     1     -41.833 -43.997  11.212  1.00  0.00     0.001 C 
HETATM   20  C   UNL     1     -40.336 -44.019  10.914  1.00  0.00     0.002 C 
HETATM   21  C   UNL     1     -39.831 -45.416  10.559  1.00  0.00     0.025 C 
ENDBRANCH   1  15
TORSDOF 3
ENDMDL
