MODEL 1
REMARK VINA RESULT:      -6.6      0.000      0.000
REMARK  7 active torsions:
REMARK  status: ('A' for Active; 'I' for Inactive)
REMARK    1  A    between atoms: N_2  and  C_3 
REMARK    2  A    between atoms: N_4  and  C_17 
REMARK    3  A    between atoms: N_9  and  C_21 
REMARK    4  A    between atoms: C_17  and  C_18 
REMARK    5  A    between atoms: C_18  and  C_25 
REMARK    6  A    between atoms: C_21  and  C_29 
REMARK    7  A    between atoms: C_25  and  O_26 
ROOT
HETATM    1  C   UNL     1     -42.375 -49.201  12.305  1.00  0.00     0.122 A 
HETATM    2  C   UNL     1     -41.636 -48.117  11.748  1.00  0.00     0.136 A 
HETATM    3  N   UNL     1     -42.778 -51.345  12.708  1.00  0.00    -0.326 N 
HETATM    4  C   UNL     1     -41.878 -50.489  12.112  1.00  0.00     0.140 A 
HETATM    5  N   UNL     1     -43.543 -49.269  13.046  1.00  0.00    -0.346 N 
ATOM      6  HN  UNL     1     -44.134 -48.491  13.338  1.00  0.00     0.167 HD
HETATM    7  C   UNL     1     -43.733 -50.551  13.295  1.00  0.00     0.185 A 
HETATM    8  N   UNL     1     -40.480 -48.462  11.098  1.00  0.00    -0.337 N 
ATOM      9  HN  UNL     1     -39.883 -47.734  10.708  1.00  0.00     0.168 HD
HETATM   10  N   UNL     1     -40.772 -50.845  11.440  1.00  0.00    -0.336 N 
ATOM     11  HN  UNL     1     -40.461 -51.807  11.306  1.00  0.00     0.168 HD
HETATM   12  C   UNL     1     -40.126 -49.758  10.969  1.00  0.00     0.183 A 
ENDROOT
BRANCH   2  13
HETATM   13  N   UNL     1     -41.967 -46.757  11.849  1.00  0.00    -0.351 N 
HETATM   14  C   UNL     1     -42.009 -46.187  13.222  1.00  0.00     0.174 C 
HETATM   15  C   UNL     1     -42.686 -44.796  13.270  1.00  0.00     0.242 C 
HETATM   16  C   UNL     1     -40.606 -45.946  13.807  1.00  0.00     0.042 C 
HETATM   17  N   UNL     1     -42.388 -43.955  12.196  1.00  0.00    -0.348 N 
HETATM   18  O   UNL     1     -43.229 -44.388  14.298  1.00  0.00    -0.271 OA
HETATM   19  C   UNL     1     -42.220 -44.517  10.856  1.00  0.00     0.145 C 
HETATM   20  C   UNL     1     -41.452 -45.852  10.818  1.00  0.00     0.145 C 
BRANCH  17  21
HETATM   21  C   UNL     1     -42.176 -42.535  12.450  1.00  0.00     0.129 C 
BRANCH  21  22
HETATM   22  C   UNL     1     -40.833 -41.941  12.006  1.00  0.00    -0.005 C 
HETATM   23  C   UNL     1     -40.867 -40.415  11.963  1.00  0.00     0.011 C 
HETATM   24  C   UNL     1     -39.743 -42.413  12.975  1.00  0.00     0.011 C 
ENDBRANCH  21  22
ENDBRANCH  17  21
ENDBRANCH   2  13
BRANCH   3  25
HETATM   25  C   UNL     1     -42.725 -52.804  12.719  1.00  0.00     0.143 C 
BRANCH  25  26
HETATM   26  C   UNL     1     -41.788 -53.419  13.820  1.00  0.00     0.001 C 
HETATM   27  C   UNL     1     -42.450 -54.671  14.449  1.00  0.00     0.039 C 
HETATM   28  C   UNL     1     -43.571 -54.287  15.413  1.00  0.00     0.168 C 
HETATM   29  O   UNL     1     -43.027 -53.548  16.495  1.00  0.00    -0.391 OA
HETATM   30  C   UNL     1     -42.516 -52.285  16.077  1.00  0.00     0.168 C 
HETATM   31  C   UNL     1     -41.466 -52.427  14.985  1.00  0.00     0.039 C 
BRANCH  26  32
HETATM   32  C   UNL     1     -40.418 -53.764  13.182  1.00  0.00     0.175 C 
BRANCH  32  33
HETATM   33  O   UNL     1     -40.525 -53.767  11.759  1.00  0.00    -0.400 OA
HETATM   34  H   UNL     1     -40.305 -54.669  11.445  1.00  0.00     0.209 HD
ENDBRANCH  32  33
ENDBRANCH  26  32
ENDBRANCH  25  26
ENDBRANCH   3  25
TORSDOF 7
ENDMDL
MODEL 2
REMARK VINA RESULT:      -6.6      1.517      2.069
REMARK  7 active torsions:
REMARK  status: ('A' for Active; 'I' for Inactive)
REMARK    1  A    between atoms: N_2  and  C_3 
REMARK    2  A    between atoms: N_4  and  C_17 
REMARK    3  A    between atoms: N_9  and  C_21 
REMARK    4  A    between atoms: C_17  and  C_18 
REMARK    5  A    between atoms: C_18  and  C_25 
REMARK    6  A    between atoms: C_21  and  C_29 
REMARK    7  A    between atoms: C_25  and  O_26 
ROOT
HETATM    1  C   UNL     1     -41.347 -49.152  12.308  1.00  0.00     0.122 A 
HETATM    2  C   UNL     1     -40.275 -48.282  11.955  1.00  0.00     0.136 A 
HETATM    3  N   UNL     1     -42.318 -51.134  12.537  1.00  0.00    -0.326 N 
HETATM    4  C   UNL     1     -41.140 -50.524  12.168  1.00  0.00     0.140 A 
HETATM    5  N   UNL     1     -42.624 -48.932  12.796  1.00  0.00    -0.346 N 
ATOM      6  HN  UNL     1     -43.061 -48.033  12.995  1.00  0.00     0.167 HD
HETATM    7  C   UNL     1     -43.158 -50.129  12.951  1.00  0.00     0.185 A 
HETATM    8  N   UNL     1     -39.126 -48.900  11.537  1.00  0.00    -0.337 N 
ATOM      9  HN  UNL     1     -38.307 -48.339  11.303  1.00  0.00     0.168 HD
HETATM   10  N   UNL     1     -40.035 -51.140  11.719  1.00  0.00    -0.336 N 
ATOM     11  HN  UNL     1     -39.939 -52.150  11.611  1.00  0.00     0.168 HD
HETATM   12  C   UNL     1     -39.069 -50.244  11.431  1.00  0.00     0.183 A 
ENDROOT
BRANCH   2  13
HETATM   13  N   UNL     1     -40.289 -46.882  12.041  1.00  0.00    -0.351 N 
HETATM   14  C   UNL     1     -40.596 -46.145  10.786  1.00  0.00     0.174 C 
HETATM   15  C   UNL     1     -40.277 -44.634  10.889  1.00  0.00     0.242 C 
HETATM   16  C   UNL     1     -42.090 -46.193  10.422  1.00  0.00     0.042 C 
HETATM   17  N   UNL     1     -40.590 -44.043  12.115  1.00  0.00    -0.348 N 
HETATM   18  O   UNL     1     -40.012 -43.970   9.885  1.00  0.00    -0.271 OA
HETATM   19  C   UNL     1     -40.412 -44.801  13.353  1.00  0.00     0.145 C 
HETATM   20  C   UNL     1     -40.832 -46.280  13.263  1.00  0.00     0.145 C 
BRANCH  17  21
HETATM   21  C   UNL     1     -41.164 -42.703  12.127  1.00  0.00     0.129 C 
BRANCH  21  22
HETATM   22  C   UNL     1     -42.679 -42.596  12.337  1.00  0.00    -0.005 C 
HETATM   23  C   UNL     1     -43.053 -41.401  13.212  1.00  0.00     0.011 C 
HETATM   24  C   UNL     1     -43.359 -42.476  10.968  1.00  0.00     0.011 C 
ENDBRANCH  21  22
ENDBRANCH  17  21
ENDBRANCH   2  13
BRANCH   3  25
HETATM   25  C   UNL     1     -42.614 -52.564  12.500  1.00  0.00     0.143 C 
BRANCH  25  26
HETATM   26  C   UNL     1     -42.084 -53.376  13.736  1.00  0.00     0.001 C 
HETATM   27  C   UNL     1     -43.107 -54.468  14.139  1.00  0.00     0.039 C 
HETATM   28  C   UNL     1     -44.309 -53.867  14.868  1.00  0.00     0.168 C 
HETATM   29  O   UNL     1     -43.873 -53.273  16.080  1.00  0.00    -0.391 OA
HETATM   30  C   UNL     1     -43.038 -52.142  15.852  1.00  0.00     0.168 C 
HETATM   31  C   UNL     1     -41.827 -52.488  14.998  1.00  0.00     0.039 C 
BRANCH  26  32
HETATM   32  C   UNL     1     -40.708 -53.994  13.380  1.00  0.00     0.175 C 
BRANCH  32  33
HETATM   33  O   UNL     1     -40.581 -54.130  11.965  1.00  0.00    -0.400 OA
HETATM   34  H   UNL     1     -41.482 -54.213  11.592  1.00  0.00     0.209 HD
ENDBRANCH  32  33
ENDBRANCH  26  32
ENDBRANCH  25  26
ENDBRANCH   3  25
TORSDOF 7
ENDMDL
MODEL 3
REMARK VINA RESULT:      -6.2      1.737      8.508
REMARK  7 active torsions:
REMARK  status: ('A' for Active; 'I' for Inactive)
REMARK    1  A    between atoms: N_2  and  C_3 
REMARK    2  A    between atoms: N_4  and  C_17 
REMARK    3  A    between atoms: N_9  and  C_21 
REMARK    4  A    between atoms: C_17  and  C_18 
REMARK    5  A    between atoms: C_18  and  C_25 
REMARK    6  A    between atoms: C_21  and  C_29 
REMARK    7  A    between atoms: C_25  and  O_26 
ROOT
HETATM    1  C   UNL     1     -41.850 -48.765  11.469  1.00  0.00     0.122 A 
HETATM    2  C   UNL     1     -41.178 -49.925  11.952  1.00  0.00     0.136 A 
HETATM    3  N   UNL     1     -41.943 -46.681  10.714  1.00  0.00    -0.326 N 
HETATM    4  C   UNL     1     -41.067 -47.668  11.109  1.00  0.00     0.140 A 
HETATM    5  N   UNL     1     -43.184 -48.462  11.257  1.00  0.00    -0.346 N 
ATOM      6  HN  UNL     1     -43.988 -49.064  11.434  1.00  0.00     0.167 HD
HETATM    7  C   UNL     1     -43.199 -47.232  10.778  1.00  0.00     0.185 A 
HETATM    8  N   UNL     1     -39.810 -49.847  11.982  1.00  0.00    -0.337 N 
ATOM      9  HN  UNL     1     -39.264 -50.655  12.282  1.00  0.00     0.168 HD
HETATM   10  N   UNL     1     -39.731 -47.563  11.174  1.00  0.00    -0.336 N 
ATOM     11  HN  UNL     1     -39.203 -46.728  10.920  1.00  0.00     0.168 HD
HETATM   12  C   UNL     1     -39.180 -48.711  11.619  1.00  0.00     0.183 A 
ENDROOT
BRANCH   2  13
HETATM   13  N   UNL     1     -41.789 -51.125  12.348  1.00  0.00    -0.351 N 
HETATM   14  C   UNL     1     -40.884 -52.199  12.837  1.00  0.00     0.174 C 
HETATM   15  C   UNL     1     -41.589 -53.572  12.941  1.00  0.00     0.242 C 
HETATM   16  C   UNL     1     -40.362 -51.931  14.259  1.00  0.00     0.042 C 
HETATM   17  N   UNL     1     -42.904 -53.529  13.410  1.00  0.00    -0.348 N 
HETATM   18  O   UNL     1     -40.951 -54.623  12.862  1.00  0.00    -0.271 OA
HETATM   19  C   UNL     1     -43.772 -52.412  13.039  1.00  0.00     0.145 C 
HETATM   20  C   UNL     1     -43.078 -51.037  13.041  1.00  0.00     0.145 C 
BRANCH  17  21
HETATM   21  C   UNL     1     -43.361 -54.567  14.327  1.00  0.00     0.129 C 
BRANCH  21  22
HETATM   22  C   UNL     1     -42.900 -54.460  15.786  1.00  0.00    -0.005 C 
HETATM   23  C   UNL     1     -44.056 -54.140  16.730  1.00  0.00     0.011 C 
HETATM   24  C   UNL     1     -42.242 -55.784  16.192  1.00  0.00     0.011 C 
ENDBRANCH  21  22
ENDBRANCH  17  21
ENDBRANCH   2  13
BRANCH   3  25
HETATM   25  C   UNL     1     -41.603 -45.321  10.303  1.00  0.00     0.143 C 
BRANCH  25  26
HETATM   26  C   UNL     1     -41.842 -44.224  11.401  1.00  0.00     0.001 C 
HETATM   27  C   UNL     1     -40.546 -43.407  11.633  1.00  0.00     0.039 C 
HETATM   28  C   UNL     1     -39.522 -44.200  12.444  1.00  0.00     0.168 C 
HETATM   29  O   UNL     1     -40.051 -44.469  13.733  1.00  0.00    -0.391 OA
HETATM   30  C   UNL     1     -41.170 -45.350  13.680  1.00  0.00     0.168 C 
HETATM   31  C   UNL     1     -42.276 -44.813  12.783  1.00  0.00     0.039 C 
BRANCH  26  32
HETATM   32  C   UNL     1     -43.013 -43.311  10.956  1.00  0.00     0.175 C 
BRANCH  32  33
HETATM   33  O   UNL     1     -43.684 -43.883   9.833  1.00  0.00    -0.400 OA
HETATM   34  H   UNL     1     -43.206 -43.601   9.026  1.00  0.00     0.209 HD
ENDBRANCH  32  33
ENDBRANCH  26  32
ENDBRANCH  25  26
ENDBRANCH   3  25
TORSDOF 7
ENDMDL
MODEL 4
REMARK VINA RESULT:      -5.9      1.923      8.785
REMARK  7 active torsions:
REMARK  status: ('A' for Active; 'I' for Inactive)
REMARK    1  A    between atoms: N_2  and  C_3 
REMARK    2  A    between atoms: N_4  and  C_17 
REMARK    3  A    between atoms: N_9  and  C_21 
REMARK    4  A    between atoms: C_17  and  C_18 
REMARK    5  A    between atoms: C_18  and  C_25 
REMARK    6  A    between atoms: C_21  and  C_29 
REMARK    7  A    between atoms: C_25  and  O_26 
ROOT
HETATM    1  C   UNL     1     -40.647 -47.665  12.203  1.00  0.00     0.122 A 
HETATM    2  C   UNL     1     -41.221 -48.917  11.838  1.00  0.00     0.136 A 
HETATM    3  N   UNL     1     -40.252 -45.497  11.943  1.00  0.00    -0.326 N 
HETATM    4  C   UNL     1     -40.945 -46.560  11.406  1.00  0.00     0.140 A 
HETATM    5  N   UNL     1     -39.814 -47.269  13.237  1.00  0.00    -0.346 N 
ATOM      6  HN  UNL     1     -39.425 -47.857  13.974  1.00  0.00     0.167 HD
HETATM    7  C   UNL     1     -39.629 -45.974  13.070  1.00  0.00     0.185 A 
HETATM    8  N   UNL     1     -42.042 -48.894  10.742  1.00  0.00    -0.337 N 
ATOM      9  HN  UNL     1     -42.516 -49.747  10.446  1.00  0.00     0.168 HD
HETATM   10  N   UNL     1     -41.713 -46.532  10.306  1.00  0.00    -0.336 N 
ATOM     11  HN  UNL     1     -41.882 -45.700   9.740  1.00  0.00     0.168 HD
HETATM   12  C   UNL     1     -42.230 -47.751  10.049  1.00  0.00     0.183 A 
ENDROOT
BRANCH   2  13
HETATM   13  N   UNL     1     -41.050 -50.131  12.521  1.00  0.00    -0.351 N 
HETATM   14  C   UNL     1     -41.648 -50.215  13.880  1.00  0.00     0.174 C 
HETATM   15  C   UNL     1     -41.145 -51.442  14.678  1.00  0.00     0.242 C 
HETATM   16  C   UNL     1     -43.177 -50.386  13.844  1.00  0.00     0.042 C 
HETATM   17  N   UNL     1     -40.992 -52.612  13.932  1.00  0.00    -0.348 N 
HETATM   18  O   UNL     1     -41.134 -51.439  15.910  1.00  0.00    -0.271 OA
HETATM   19  C   UNL     1     -40.522 -52.537  12.549  1.00  0.00     0.145 C 
HETATM   20  C   UNL     1     -41.114 -51.368  11.738  1.00  0.00     0.145 C 
BRANCH  17  21
HETATM   21  C   UNL     1     -41.379 -53.886  14.528  1.00  0.00     0.129 C 
BRANCH  21  22
HETATM   22  C   UNL     1     -42.880 -54.143  14.709  1.00  0.00    -0.005 C 
HETATM   23  C   UNL     1     -43.633 -54.098  13.381  1.00  0.00     0.011 C 
HETATM   24  C   UNL     1     -43.068 -55.512  15.372  1.00  0.00     0.011 C 
ENDBRANCH  21  22
ENDBRANCH  17  21
ENDBRANCH   2  13
BRANCH   3  25
HETATM   25  C   UNL     1     -40.196 -44.134  11.421  1.00  0.00     0.143 C 
BRANCH  25  26
HETATM   26  C   UNL     1     -41.233 -43.143  12.061  1.00  0.00     0.001 C 
HETATM   27  C   UNL     1     -40.697 -41.691  11.996  1.00  0.00     0.039 C 
HETATM   28  C   UNL     1     -39.606 -41.450  13.039  1.00  0.00     0.168 C 
HETATM   29  O   UNL     1     -40.156 -41.606  14.338  1.00  0.00    -0.391 OA
HETATM   30  C   UNL     1     -40.553 -42.950  14.593  1.00  0.00     0.168 C 
HETATM   31  C   UNL     1     -41.548 -43.458  13.560  1.00  0.00     0.039 C 
BRANCH  26  32
HETATM   32  C   UNL     1     -42.587 -43.279  11.318  1.00  0.00     0.175 C 
BRANCH  32  33
HETATM   33  O   UNL     1     -42.610 -42.421  10.177  1.00  0.00    -0.400 OA
HETATM   34  H   UNL     1     -42.177 -41.579  10.429  1.00  0.00     0.209 HD
ENDBRANCH  32  33
ENDBRANCH  26  32
ENDBRANCH  25  26
ENDBRANCH   3  25
TORSDOF 7
ENDMDL
MODEL 5
REMARK VINA RESULT:      -5.8      1.553      1.920
REMARK  7 active torsions:
REMARK  status: ('A' for Active; 'I' for Inactive)
REMARK    1  A    between atoms: N_2  and  C_3 
REMARK    2  A    between atoms: N_4  and  C_17 
REMARK    3  A    between atoms: N_9  and  C_21 
REMARK    4  A    between atoms: C_17  and  C_18 
REMARK    5  A    between atoms: C_18  and  C_25 
REMARK    6  A    between atoms: C_21  and  C_29 
REMARK    7  A    between atoms: C_25  and  O_26 
ROOT
HETATM    1  C   UNL     1     -42.371 -47.735  13.010  1.00  0.00     0.122 A 
HETATM    2  C   UNL     1     -41.998 -46.558  12.299  1.00  0.00     0.136 A 
HETATM    3  N   UNL     1     -42.816 -49.901  13.192  1.00  0.00    -0.326 N 
HETATM    4  C   UNL     1     -42.400 -48.936  12.302  1.00  0.00     0.140 A 
HETATM    5  N   UNL     1     -42.726 -47.974  14.327  1.00  0.00    -0.346 N 
ATOM      6  HN  UNL     1     -42.799 -47.290  15.079  1.00  0.00     0.167 HD
HETATM    7  C   UNL     1     -42.950 -49.272  14.406  1.00  0.00     0.185 A 
HETATM    8  N   UNL     1     -41.673 -46.741  10.981  1.00  0.00    -0.337 N 
ATOM      9  HN  UNL     1     -41.361 -45.947  10.422  1.00  0.00     0.168 HD
HETATM   10  N   UNL     1     -42.126 -49.123  11.001  1.00  0.00    -0.336 N 
ATOM     11  HN  UNL     1     -42.184 -50.021  10.521  1.00  0.00     0.168 HD
HETATM   12  C   UNL     1     -41.762 -47.963  10.416  1.00  0.00     0.183 A 
ENDROOT
BRANCH   2  13
HETATM   13  N   UNL     1     -41.898 -45.267  12.840  1.00  0.00    -0.351 N 
HETATM   14  C   UNL     1     -40.638 -44.949  13.564  1.00  0.00     0.174 C 
HETATM   15  C   UNL     1     -40.739 -43.646  14.393  1.00  0.00     0.242 C 
HETATM   16  C   UNL     1     -39.454 -44.702  12.612  1.00  0.00     0.042 C 
HETATM   17  N   UNL     1     -41.450 -42.610  13.785  1.00  0.00    -0.348 N 
HETATM   18  O   UNL     1     -40.030 -43.467  15.386  1.00  0.00    -0.271 OA
HETATM   19  C   UNL     1     -42.622 -42.916  12.965  1.00  0.00     0.145 C 
HETATM   20  C   UNL     1     -42.465 -44.158  12.068  1.00  0.00     0.145 C 
BRANCH  17  21
HETATM   21  C   UNL     1     -40.960 -41.243  13.920  1.00  0.00     0.129 C 
BRANCH  21  22
HETATM   22  C   UNL     1     -40.028 -40.725  12.819  1.00  0.00    -0.005 C 
HETATM   23  C   UNL     1     -40.757 -39.818  11.830  1.00  0.00     0.011 C 
HETATM   24  C   UNL     1     -38.869 -39.963  13.473  1.00  0.00     0.011 C 
ENDBRANCH  21  22
ENDBRANCH  17  21
ENDBRANCH   2  13
BRANCH   3  25
HETATM   25  C   UNL     1     -43.060 -51.312  12.905  1.00  0.00     0.143 C 
BRANCH  25  26
HETATM   26  C   UNL     1     -41.855 -52.266  13.230  1.00  0.00     0.001 C 
HETATM   27  C   UNL     1     -42.342 -53.735  13.313  1.00  0.00     0.039 C 
HETATM   28  C   UNL     1     -43.092 -54.002  14.618  1.00  0.00     0.168 C 
HETATM   29  O   UNL     1     -42.208 -53.821  15.713  1.00  0.00    -0.391 OA
HETATM   30  C   UNL     1     -41.799 -52.463  15.851  1.00  0.00     0.168 C 
HETATM   31  C   UNL     1     -41.146 -51.932  14.583  1.00  0.00     0.039 C 
BRANCH  26  32
HETATM   32  C   UNL     1     -40.766 -52.093  12.140  1.00  0.00     0.175 C 
BRANCH  32  33
HETATM   33  O   UNL     1     -40.579 -53.319  11.433  1.00  0.00    -0.400 OA
HETATM   34  H   UNL     1     -39.621 -53.414  11.251  1.00  0.00     0.209 HD
ENDBRANCH  32  33
ENDBRANCH  26  32
ENDBRANCH  25  26
ENDBRANCH   3  25
TORSDOF 7
ENDMDL
MODEL 6
REMARK VINA RESULT:      -5.7      1.903      8.543
REMARK  7 active torsions:
REMARK  status: ('A' for Active; 'I' for Inactive)
REMARK    1  A    between atoms: N_2  and  C_3 
REMARK    2  A    between atoms: N_4  and  C_17 
REMARK    3  A    between atoms: N_9  and  C_21 
REMARK    4  A    between atoms: C_17  and  C_18 
REMARK    5  A    between atoms: C_18  and  C_25 
REMARK    6  A    between atoms: C_21  and  C_29 
REMARK    7  A    between atoms: C_25  and  O_26 
ROOT
HETATM    1  C   UNL     1     -41.202 -47.403  12.040  1.00  0.00     0.122 A 
HETATM    2  C   UNL     1     -41.819 -48.615  11.614  1.00  0.00     0.136 A 
HETATM    3  N   UNL     1     -40.660 -45.261  11.840  1.00  0.00    -0.326 N 
HETATM    4  C   UNL     1     -41.370 -46.276  11.237  1.00  0.00     0.140 A 
HETATM    5  N   UNL     1     -40.433 -47.067  13.141  1.00  0.00    -0.346 N 
ATOM      6  HN  UNL     1     -40.140 -47.684  13.899  1.00  0.00     0.167 HD
HETATM    7  C   UNL     1     -40.158 -45.784  13.007  1.00  0.00     0.185 A 
HETATM    8  N   UNL     1     -42.549 -48.533  10.457  1.00  0.00    -0.337 N 
ATOM      9  HN  UNL     1     -43.047 -49.353  10.114  1.00  0.00     0.168 HD
HETATM   10  N   UNL     1     -42.045 -46.191  10.079  1.00  0.00    -0.336 N 
ATOM     11  HN  UNL     1     -42.119 -45.346   9.513  1.00  0.00     0.168 HD
HETATM   12  C   UNL     1     -42.612 -47.375   9.767  1.00  0.00     0.183 A 
ENDROOT
BRANCH   2  13
HETATM   13  N   UNL     1     -41.776 -49.843  12.293  1.00  0.00    -0.351 N 
HETATM   14  C   UNL     1     -40.751 -50.817  11.832  1.00  0.00     0.174 C 
HETATM   15  C   UNL     1     -40.981 -52.238  12.401  1.00  0.00     0.242 C 
HETATM   16  C   UNL     1     -39.332 -50.447  12.296  1.00  0.00     0.042 C 
HETATM   17  N   UNL     1     -41.409 -52.282  13.730  1.00  0.00    -0.348 N 
HETATM   18  O   UNL     1     -40.570 -53.236  11.807  1.00  0.00    -0.271 OA
HETATM   19  C   UNL     1     -42.322 -51.257  14.234  1.00  0.00     0.145 C 
HETATM   20  C   UNL     1     -42.015 -49.831  13.739  1.00  0.00     0.145 C 
BRANCH  17  21
HETATM   21  C   UNL     1     -40.873 -53.314  14.610  1.00  0.00     0.129 C 
BRANCH  21  22
HETATM   22  C   UNL     1     -39.366 -53.276  14.890  1.00  0.00    -0.005 C 
HETATM   23  C   UNL     1     -38.990 -52.151  15.852  1.00  0.00     0.011 C 
HETATM   24  C   UNL     1     -38.940 -54.629  15.473  1.00  0.00     0.011 C 
ENDBRANCH  21  22
ENDBRANCH  17  21
ENDBRANCH   2  13
BRANCH   3  25
HETATM   25  C   UNL     1     -40.481 -43.900  11.342  1.00  0.00     0.143 C 
BRANCH  25  26
HETATM   26  C   UNL     1     -41.577 -42.879  11.815  1.00  0.00     0.001 C 
HETATM   27  C   UNL     1     -40.912 -41.651  12.485  1.00  0.00     0.039 C 
HETATM   28  C   UNL     1     -40.411 -41.983  13.891  1.00  0.00     0.168 C 
HETATM   29  O   UNL     1     -41.514 -42.327  14.713  1.00  0.00    -0.391 OA
HETATM   30  C   UNL     1     -42.133 -43.541  14.297  1.00  0.00     0.168 C 
HETATM   31  C   UNL     1     -42.586 -43.484  12.845  1.00  0.00     0.039 C 
BRANCH  26  32
HETATM   32  C   UNL     1     -42.436 -42.459  10.594  1.00  0.00     0.175 C 
BRANCH  32  33
HETATM   33  O   UNL     1     -43.397 -43.472  10.297  1.00  0.00    -0.400 OA
HETATM   34  H   UNL     1     -43.342 -43.663   9.338  1.00  0.00     0.209 HD
ENDBRANCH  32  33
ENDBRANCH  26  32
ENDBRANCH  25  26
ENDBRANCH   3  25
TORSDOF 7
ENDMDL
MODEL 7
REMARK VINA RESULT:      -5.7      2.082      8.404
REMARK  7 active torsions:
REMARK  status: ('A' for Active; 'I' for Inactive)
REMARK    1  A    between atoms: N_2  and  C_3 
REMARK    2  A    between atoms: N_4  and  C_17 
REMARK    3  A    between atoms: N_9  and  C_21 
REMARK    4  A    between atoms: C_17  and  C_18 
REMARK    5  A    between atoms: C_18  and  C_25 
REMARK    6  A    between atoms: C_21  and  C_29 
REMARK    7  A    between atoms: C_25  and  O_26 
ROOT
HETATM    1  C   UNL     1     -40.529 -49.752  12.571  1.00  0.00     0.122 A 
HETATM    2  C   UNL     1     -40.085 -50.721  13.516  1.00  0.00     0.136 A 
HETATM    3  N   UNL     1     -40.394 -47.835  11.463  1.00  0.00    -0.326 N 
HETATM    4  C   UNL     1     -39.740 -48.618  12.388  1.00  0.00     0.140 A 
HETATM    5  N   UNL     1     -41.631 -49.680  11.735  1.00  0.00    -0.346 N 
ATOM      6  HN  UNL     1     -42.387 -50.360  11.651  1.00  0.00     0.167 HD
HETATM    7  C   UNL     1     -41.501 -48.548  11.070  1.00  0.00     0.185 A 
HETATM    8  N   UNL     1     -38.893 -50.443  14.132  1.00  0.00    -0.337 N 
ATOM      9  HN  UNL     1     -38.497 -51.111  14.793  1.00  0.00     0.168 HD
HETATM   10  N   UNL     1     -38.593 -48.312  13.015  1.00  0.00    -0.336 N 
ATOM     11  HN  UNL     1     -38.062 -47.454  12.864  1.00  0.00     0.168 HD
HETATM   12  C   UNL     1     -38.239 -49.292  13.872  1.00  0.00     0.183 A 
ENDROOT
BRANCH   2  13
HETATM   13  N   UNL     1     -40.732 -51.927  13.825  1.00  0.00    -0.351 N 
HETATM   14  C   UNL     1     -41.645 -51.906  15.000  1.00  0.00     0.174 C 
HETATM   15  C   UNL     1     -42.057 -53.324  15.460  1.00  0.00     0.242 C 
HETATM   16  C   UNL     1     -42.979 -51.201  14.700  1.00  0.00     0.042 C 
HETATM   17  N   UNL     1     -42.301 -54.235  14.430  1.00  0.00    -0.348 N 
HETATM   18  O   UNL     1     -42.389 -53.544  16.627  1.00  0.00    -0.271 OA
HETATM   19  C   UNL     1     -41.492 -54.189  13.212  1.00  0.00     0.145 C 
HETATM   20  C   UNL     1     -41.178 -52.767  12.709  1.00  0.00     0.145 C 
BRANCH  17  21
HETATM   21  C   UNL     1     -43.414 -55.168  14.561  1.00  0.00     0.129 C 
BRANCH  21  22
HETATM   22  C   UNL     1     -44.785 -54.692  14.063  1.00  0.00    -0.005 C 
HETATM   23  C   UNL     1     -45.536 -53.896  15.127  1.00  0.00     0.011 C 
HETATM   24  C   UNL     1     -44.581 -53.831  12.811  1.00  0.00     0.011 C 
ENDBRANCH  21  22
ENDBRANCH  17  21
ENDBRANCH   2  13
BRANCH   3  25
HETATM   25  C   UNL     1     -39.990 -46.514  10.988  1.00  0.00     0.143 C 
BRANCH  25  26
HETATM   26  C   UNL     1     -40.759 -45.315  11.649  1.00  0.00     0.001 C 
HETATM   27  C   UNL     1     -39.851 -44.060  11.702  1.00  0.00     0.039 C 
HETATM   28  C   UNL     1     -38.797 -44.177  12.802  1.00  0.00     0.168 C 
HETATM   29  O   UNL     1     -39.442 -44.247  14.064  1.00  0.00    -0.391 OA
HETATM   30  C   UNL     1     -40.197 -45.445  14.214  1.00  0.00     0.168 C 
HETATM   31  C   UNL     1     -41.232 -45.611  13.110  1.00  0.00     0.039 C 
BRANCH  26  32
HETATM   32  C   UNL     1     -42.055 -45.041  10.844  1.00  0.00     0.175 C 
BRANCH  32  33
HETATM   33  O   UNL     1     -43.074 -44.539  11.707  1.00  0.00    -0.400 OA
HETATM   34  H   UNL     1     -43.732 -44.073  11.151  1.00  0.00     0.209 HD
ENDBRANCH  32  33
ENDBRANCH  26  32
ENDBRANCH  25  26
ENDBRANCH   3  25
TORSDOF 7
ENDMDL
MODEL 8
REMARK VINA RESULT:      -5.7      2.081      3.187
REMARK  7 active torsions:
REMARK  status: ('A' for Active; 'I' for Inactive)
REMARK    1  A    between atoms: N_2  and  C_3 
REMARK    2  A    between atoms: N_4  and  C_17 
REMARK    3  A    between atoms: N_9  and  C_21 
REMARK    4  A    between atoms: C_17  and  C_18 
REMARK    5  A    between atoms: C_18  and  C_25 
REMARK    6  A    between atoms: C_21  and  C_29 
REMARK    7  A    between atoms: C_25  and  O_26 
ROOT
HETATM    1  C   UNL     1     -41.629 -46.832  12.742  1.00  0.00     0.122 A 
HETATM    2  C   UNL     1     -42.352 -45.847  12.009  1.00  0.00     0.136 A 
HETATM    3  N   UNL     1     -41.145 -48.908  13.357  1.00  0.00    -0.326 N 
HETATM    4  C   UNL     1     -41.948 -48.170  12.516  1.00  0.00     0.140 A 
HETATM    5  N   UNL     1     -40.614 -46.759  13.680  1.00  0.00    -0.346 N 
ATOM      6  HN  UNL     1     -40.176 -45.915  14.050  1.00  0.00     0.167 HD
HETATM    7  C   UNL     1     -40.329 -48.008  13.997  1.00  0.00     0.185 A 
HETATM    8  N   UNL     1     -43.279 -46.331  11.123  1.00  0.00    -0.337 N 
ATOM      9  HN  UNL     1     -43.806 -45.683  10.538  1.00  0.00     0.168 HD
HETATM   10  N   UNL     1     -42.883 -48.657  11.683  1.00  0.00    -0.336 N 
ATOM     11  HN  UNL     1     -43.097 -49.647  11.570  1.00  0.00     0.168 HD
HETATM   12  C   UNL     1     -43.499 -47.658  11.018  1.00  0.00     0.183 A 
ENDROOT
BRANCH   2  13
HETATM   13  N   UNL     1     -42.164 -44.459  12.089  1.00  0.00    -0.351 N 
HETATM   14  C   UNL     1     -42.878 -43.757  13.189  1.00  0.00     0.174 C 
HETATM   15  C   UNL     1     -42.879 -42.220  13.014  1.00  0.00     0.242 C 
HETATM   16  C   UNL     1     -42.218 -43.982  14.561  1.00  0.00     0.042 C 
HETATM   17  N   UNL     1     -41.689 -41.677  12.525  1.00  0.00    -0.348 N 
HETATM   18  O   UNL     1     -43.767 -41.523  13.510  1.00  0.00    -0.271 OA
HETATM   19  C   UNL     1     -40.909 -42.414  11.531  1.00  0.00     0.145 C 
HETATM   20  C   UNL     1     -40.831 -43.933  11.780  1.00  0.00     0.145 C 
BRANCH  17  21
HETATM   21  C   UNL     1     -41.210 -40.415  13.075  1.00  0.00     0.129 C 
BRANCH  21  22
HETATM   22  C   UNL     1     -40.007 -40.482  14.025  1.00  0.00    -0.005 C 
HETATM   23  C   UNL     1     -39.047 -39.313  13.817  1.00  0.00     0.011 C 
HETATM   24  C   UNL     1     -40.521 -40.488  15.470  1.00  0.00     0.011 C 
ENDBRANCH  21  22
ENDBRANCH  17  21
ENDBRANCH   2  13
BRANCH   3  25
HETATM   25  C   UNL     1     -41.154 -50.358  13.529  1.00  0.00     0.143 C 
BRANCH  25  26
HETATM   26  C   UNL     1     -40.137 -51.134  12.616  1.00  0.00     0.001 C 
HETATM   27  C   UNL     1     -40.832 -52.349  11.951  1.00  0.00     0.039 C 
HETATM   28  C   UNL     1     -41.033 -53.492  12.946  1.00  0.00     0.168 C 
HETATM   29  O   UNL     1     -39.768 -53.959  13.386  1.00  0.00    -0.391 OA
HETATM   30  C   UNL     1     -39.075 -52.981  14.157  1.00  0.00     0.168 C 
HETATM   31  C   UNL     1     -38.894 -51.676  13.395  1.00  0.00     0.039 C 
BRANCH  26  32
HETATM   32  C   UNL     1     -39.566 -50.159  11.555  1.00  0.00     0.175 C 
BRANCH  32  33
HETATM   33  O   UNL     1     -40.365 -50.196  10.373  1.00  0.00    -0.400 OA
HETATM   34  H   UNL     1     -41.272 -50.457  10.635  1.00  0.00     0.209 HD
ENDBRANCH  32  33
ENDBRANCH  26  32
ENDBRANCH  25  26
ENDBRANCH   3  25
TORSDOF 7
ENDMDL
MODEL 9
REMARK VINA RESULT:      -5.7      6.273     10.754
REMARK  7 active torsions:
REMARK  status: ('A' for Active; 'I' for Inactive)
REMARK    1  A    between atoms: N_2  and  C_3 
REMARK    2  A    between atoms: N_4  and  C_17 
REMARK    3  A    between atoms: N_9  and  C_21 
REMARK    4  A    between atoms: C_17  and  C_18 
REMARK    5  A    between atoms: C_18  and  C_25 
REMARK    6  A    between atoms: C_21  and  C_29 
REMARK    7  A    between atoms: C_25  and  O_26 
ROOT
HETATM    1  C   UNL     1     -40.938 -54.673  15.788  1.00  0.00     0.122 A 
HETATM    2  C   UNL     1     -39.657 -55.284  15.662  1.00  0.00     0.136 A 
HETATM    3  N   UNL     1     -42.575 -53.317  15.151  1.00  0.00    -0.326 N 
HETATM    4  C   UNL     1     -41.335 -53.791  14.783  1.00  0.00     0.140 A 
HETATM    5  N   UNL     1     -41.943 -54.765  16.736  1.00  0.00    -0.346 N 
ATOM      6  HN  UNL     1     -41.937 -55.327  17.587  1.00  0.00     0.167 HD
HETATM    7  C   UNL     1     -42.910 -53.975  16.309  1.00  0.00     0.185 A 
HETATM    8  N   UNL     1     -38.954 -54.958  14.531  1.00  0.00    -0.337 N 
ATOM      9  HN  UNL     1     -38.046 -55.388  14.359  1.00  0.00     0.168 HD
HETATM   10  N   UNL     1     -40.639 -53.429  13.693  1.00  0.00    -0.336 N 
ATOM     11  HN  UNL     1     -40.964 -52.760  12.996  1.00  0.00     0.168 HD
HETATM   12  C   UNL     1     -39.454 -54.072  13.645  1.00  0.00     0.183 A 
ENDROOT
BRANCH   2  13
HETATM   13  N   UNL     1     -39.092 -56.204  16.559  1.00  0.00    -0.351 N 
HETATM   14  C   UNL     1     -37.993 -55.697  17.423  1.00  0.00     0.174 C 
HETATM   15  C   UNL     1     -37.222 -56.833  18.135  1.00  0.00     0.242 C 
HETATM   16  C   UNL     1     -38.504 -54.807  18.569  1.00  0.00     0.042 C 
HETATM   17  N   UNL     1     -38.012 -57.888  18.596  1.00  0.00    -0.348 N 
HETATM   18  O   UNL     1     -36.050 -56.683  18.487  1.00  0.00    -0.271 OA
HETATM   19  C   UNL     1     -39.173 -58.320  17.818  1.00  0.00     0.145 C 
HETATM   20  C   UNL     1     -39.990 -57.169  17.201  1.00  0.00     0.145 C 
BRANCH  17  21
HETATM   21  C   UNL     1     -37.703 -58.490  19.887  1.00  0.00     0.129 C 
BRANCH  21  22
HETATM   22  C   UNL     1     -37.300 -59.970  19.887  1.00  0.00    -0.005 C 
HETATM   23  C   UNL     1     -35.978 -60.203  19.159  1.00  0.00     0.011 C 
HETATM   24  C   UNL     1     -37.189 -60.449  21.339  1.00  0.00     0.011 C 
ENDBRANCH  21  22
ENDBRANCH  17  21
ENDBRANCH   2  13
BRANCH   3  25
HETATM   25  C   UNL     1     -43.376 -52.320  14.447  1.00  0.00     0.143 C 
BRANCH  25  26
HETATM   26  C   UNL     1     -44.494 -52.913  13.516  1.00  0.00     0.001 C 
HETATM   27  C   UNL     1     -45.555 -51.830  13.196  1.00  0.00     0.039 C 
HETATM   28  C   UNL     1     -46.479 -51.583  14.389  1.00  0.00     0.168 C 
HETATM   29  O   UNL     1     -47.204 -52.769  14.674  1.00  0.00    -0.391 OA
HETATM   30  C   UNL     1     -46.356 -53.816  15.137  1.00  0.00     0.168 C 
HETATM   31  C   UNL     1     -45.244 -54.131  14.146  1.00  0.00     0.039 C 
BRANCH  26  32
HETATM   32  C   UNL     1     -43.836 -53.458  12.222  1.00  0.00     0.175 C 
BRANCH  32  33
HETATM   33  O   UNL     1     -42.829 -52.556  11.765  1.00  0.00    -0.400 OA
HETATM   34  H   UNL     1     -43.206 -51.652  11.789  1.00  0.00     0.209 HD
ENDBRANCH  32  33
ENDBRANCH  26  32
ENDBRANCH  25  26
ENDBRANCH   3  25
TORSDOF 7
ENDMDL
