MODEL 1
REMARK VINA RESULT:      -6.3      0.000      0.000
REMARK  2 active torsions:
REMARK  status: ('A' for Active; 'I' for Inactive)
REMARK       I    between atoms: C_2  and  N_3 
REMARK       I    between atoms: C_2  and  N_12 
REMARK    1  A    between atoms: N_3  and  C_4 
REMARK    2  A    between atoms: N_12  and  C_13 
ROOT
HETATM    1  O   UNL     1     -42.201 -47.853  11.894  1.00  0.00    -0.247 OA
HETATM    2  C   UNL     1     -41.846 -48.372  10.847  1.00  0.00     0.321 C 
HETATM    3  N   UNL     1     -40.802 -49.264  10.764  1.00  0.00    -0.330 N 
HETATM    4  N   UNL     1     -42.472 -48.213   9.619  1.00  0.00    -0.309 N 
HETATM    5  H   UNL     1     -40.250 -49.145   9.924  1.00  0.00     0.165 HD
HETATM    6  H   UNL     1     -42.219 -48.888   8.913  1.00  0.00     0.170 HD
ENDROOT
BRANCH   3   7
HETATM    7  C   UNL     1     -39.984 -49.649  11.932  1.00  0.00     0.172 C 
HETATM    8  C   UNL     1     -38.568 -49.056  11.947  1.00  0.00     0.034 C 
HETATM    9  C   UNL     1     -37.910 -49.146  13.316  1.00  0.00     0.004 C 
HETATM   10  C   UNL     1     -37.197 -50.470  13.564  1.00  0.00     0.015 C 
HETATM   11  C   UNL     1     -37.838 -51.707  12.950  1.00  0.00     0.095 C 
HETATM   12  N   UNL     1     -39.278 -51.793  13.063  1.00  0.00    -0.261 NA
HETATM   13  C   UNL     1     -40.116 -51.168  12.170  1.00  0.00     0.220 C 
HETATM   14  H   UNL     1     -39.609 -52.742  13.201  1.00  0.00     0.130 HD
HETATM   15  O   UNL     1     -41.084 -51.803  11.738  1.00  0.00    -0.278 OA
ENDBRANCH   3   7
BRANCH   4  16
HETATM   16  C   UNL     1     -43.603 -47.400   9.373  1.00  0.00     0.038 A 
HETATM   17  C   UNL     1     -44.898 -47.900   9.296  1.00  0.00     0.046 A 
HETATM   18  C   UNL     1     -45.936 -47.031   9.004  1.00  0.00     0.090 A 
HETATM   19  N   UNL     1     -45.771 -45.709   8.800  1.00  0.00    -0.375 N 
HETATM   20  C   UNL     1     -44.511 -45.238   8.901  1.00  0.00     0.090 A 
ATOM     21  HN  UNL     1     -46.558 -45.096   8.581  1.00  0.00     0.164 HD
HETATM   22  C   UNL     1     -43.407 -46.029   9.188  1.00  0.00     0.046 A 
ENDBRANCH   4  16
TORSDOF 2
ENDMDL
MODEL 2
REMARK VINA RESULT:      -6.1      4.307      5.667
REMARK  2 active torsions:
REMARK  status: ('A' for Active; 'I' for Inactive)
REMARK       I    between atoms: C_2  and  N_3 
REMARK       I    between atoms: C_2  and  N_12 
REMARK    1  A    between atoms: N_3  and  C_4 
REMARK    2  A    between atoms: N_12  and  C_13 
ROOT
HETATM    1  O   UNL     1     -42.615 -51.675  14.119  1.00  0.00    -0.247 OA
HETATM    2  C   UNL     1     -42.769 -51.882  12.926  1.00  0.00     0.321 C 
HETATM    3  N   UNL     1     -41.855 -51.498  11.971  1.00  0.00    -0.330 N 
HETATM    4  N   UNL     1     -43.821 -52.588  12.361  1.00  0.00    -0.309 N 
HETATM    5  H   UNL     1     -42.292 -51.166  11.120  1.00  0.00     0.165 HD
HETATM    6  H   UNL     1     -43.682 -52.885  11.407  1.00  0.00     0.170 HD
ENDROOT
BRANCH   3   7
HETATM    7  C   UNL     1     -40.617 -50.763  12.297  1.00  0.00     0.172 C 
HETATM    8  C   UNL     1     -40.255 -49.646  11.310  1.00  0.00     0.034 C 
HETATM    9  C   UNL     1     -39.224 -48.677  11.872  1.00  0.00     0.004 C 
HETATM   10  C   UNL     1     -37.784 -49.128  11.660  1.00  0.00     0.015 C 
HETATM   11  C   UNL     1     -37.530 -50.628  11.728  1.00  0.00     0.095 C 
HETATM   12  N   UNL     1     -38.208 -51.335  12.792  1.00  0.00    -0.261 NA
HETATM   13  C   UNL     1     -39.506 -51.769  12.664  1.00  0.00     0.220 C 
HETATM   14  H   UNL     1     -37.655 -52.090  13.183  1.00  0.00     0.130 HD
HETATM   15  O   UNL     1     -39.777 -52.912  13.047  1.00  0.00    -0.278 OA
ENDBRANCH   3   7
BRANCH   4  16
HETATM   16  C   UNL     1     -44.903 -53.157  13.073  1.00  0.00     0.038 A 
HETATM   17  C   UNL     1     -45.975 -52.413  13.552  1.00  0.00     0.046 A 
HETATM   18  C   UNL     1     -46.965 -53.054  14.279  1.00  0.00     0.090 A 
HETATM   19  N   UNL     1     -46.963 -54.376  14.543  1.00  0.00    -0.375 N 
HETATM   20  C   UNL     1     -45.927 -55.085  14.051  1.00  0.00     0.090 A 
ATOM     21  HN  UNL     1     -47.706 -54.816  15.087  1.00  0.00     0.164 HD
HETATM   22  C   UNL     1     -44.888 -54.534  13.313  1.00  0.00     0.046 A 
ENDBRANCH   4  16
TORSDOF 2
ENDMDL
MODEL 3
REMARK VINA RESULT:      -6.0      3.863      5.491
REMARK  2 active torsions:
REMARK  status: ('A' for Active; 'I' for Inactive)
REMARK       I    between atoms: C_2  and  N_3 
REMARK       I    between atoms: C_2  and  N_12 
REMARK    1  A    between atoms: N_3  and  C_4 
REMARK    2  A    between atoms: N_12  and  C_13 
ROOT
HETATM    1  O   UNL     1     -42.106 -51.355  13.415  1.00  0.00    -0.247 OA
HETATM    2  C   UNL     1     -42.151 -51.826  12.289  1.00  0.00     0.321 C 
HETATM    3  N   UNL     1     -41.167 -51.627  11.349  1.00  0.00    -0.330 N 
HETATM    4  N   UNL     1     -43.137 -52.680  11.814  1.00  0.00    -0.309 N 
HETATM    5  H   UNL     1     -41.536 -51.508  10.413  1.00  0.00     0.165 HD
HETATM    6  H   UNL     1     -42.910 -53.174  10.964  1.00  0.00     0.170 HD
ENDROOT
BRANCH   3   7
HETATM    7  C   UNL     1     -39.976 -50.790  11.601  1.00  0.00     0.172 C 
HETATM    8  C   UNL     1     -39.228 -51.114  12.901  1.00  0.00     0.034 C 
HETATM    9  C   UNL     1     -37.826 -50.524  12.933  1.00  0.00     0.004 C 
HETATM   10  C   UNL     1     -37.781 -49.088  13.440  1.00  0.00     0.015 C 
HETATM   11  C   UNL     1     -38.965 -48.205  13.072  1.00  0.00     0.095 C 
HETATM   12  N   UNL     1     -39.443 -48.325  11.712  1.00  0.00    -0.261 NA
HETATM   13  C   UNL     1     -40.325 -49.311  11.336  1.00  0.00     0.220 C 
HETATM   14  H   UNL     1     -39.764 -47.444  11.325  1.00  0.00     0.130 HD
HETATM   15  O   UNL     1     -41.277 -48.995  10.614  1.00  0.00    -0.278 OA
ENDBRANCH   3   7
BRANCH   4  16
HETATM   16  C   UNL     1     -44.264 -53.119  12.546  1.00  0.00     0.038 A 
HETATM   17  C   UNL     1     -45.392 -52.333  12.753  1.00  0.00     0.046 A 
HETATM   18  C   UNL     1     -46.428 -52.835  13.524  1.00  0.00     0.090 A 
HETATM   19  N   UNL     1     -46.419 -54.062  14.083  1.00  0.00    -0.375 N 
HETATM   20  C   UNL     1     -45.327 -54.819  13.852  1.00  0.00     0.090 A 
ATOM     21  HN  UNL     1     -47.197 -54.399  14.650  1.00  0.00     0.164 HD
HETATM   22  C   UNL     1     -44.239 -54.404  13.096  1.00  0.00     0.046 A 
ENDBRANCH   4  16
TORSDOF 2
ENDMDL
MODEL 4
REMARK VINA RESULT:      -5.8      2.557      3.853
REMARK  2 active torsions:
REMARK  status: ('A' for Active; 'I' for Inactive)
REMARK       I    between atoms: C_2  and  N_3 
REMARK       I    between atoms: C_2  and  N_12 
REMARK    1  A    between atoms: N_3  and  C_4 
REMARK    2  A    between atoms: N_12  and  C_13 
ROOT
HETATM    1  O   UNL     1     -41.920 -49.890  12.637  1.00  0.00    -0.247 OA
HETATM    2  C   UNL     1     -41.315 -50.164  11.613  1.00  0.00     0.321 C 
HETATM    3  N   UNL     1     -40.879 -51.434  11.312  1.00  0.00    -0.330 N 
HETATM    4  N   UNL     1     -41.046 -49.280  10.578  1.00  0.00    -0.309 N 
HETATM    5  H   UNL     1     -39.973 -51.441  10.859  1.00  0.00     0.165 HD
HETATM    6  H   UNL     1     -40.764 -49.705   9.707  1.00  0.00     0.170 HD
ENDROOT
BRANCH   3   7
HETATM    7  C   UNL     1     -41.068 -52.582  12.221  1.00  0.00     0.172 C 
HETATM    8  C   UNL     1     -42.514 -52.799  12.688  1.00  0.00     0.034 C 
HETATM    9  C   UNL     1     -42.737 -54.181  13.284  1.00  0.00     0.004 C 
HETATM   10  C   UNL     1     -42.402 -54.266  14.768  1.00  0.00     0.015 C 
HETATM   11  C   UNL     1     -41.234 -53.415  15.245  1.00  0.00     0.095 C 
HETATM   12  N   UNL     1     -40.069 -53.404  14.388  1.00  0.00    -0.261 NA
HETATM   13  C   UNL     1     -39.971 -52.563  13.305  1.00  0.00     0.220 C 
HETATM   14  H   UNL     1     -39.196 -53.364  14.904  1.00  0.00     0.130 HD
HETATM   15  O   UNL     1     -38.905 -51.964  13.129  1.00  0.00    -0.278 OA
ENDBRANCH   3   7
BRANCH   4  16
HETATM   16  C   UNL     1     -41.402 -47.911  10.553  1.00  0.00     0.038 A 
HETATM   17  C   UNL     1     -40.596 -46.905  11.075  1.00  0.00     0.046 A 
HETATM   18  C   UNL     1     -41.052 -45.598  11.047  1.00  0.00     0.090 A 
HETATM   19  N   UNL     1     -42.240 -45.230  10.525  1.00  0.00    -0.375 N 
HETATM   20  C   UNL     1     -42.998 -46.216  10.003  1.00  0.00     0.090 A 
ATOM     21  HN  UNL     1     -42.548 -44.258  10.525  1.00  0.00     0.164 HD
HETATM   22  C   UNL     1     -42.628 -47.554   9.986  1.00  0.00     0.046 A 
ENDBRANCH   4  16
TORSDOF 2
ENDMDL
MODEL 5
REMARK VINA RESULT:      -5.6      4.440      5.942
REMARK  2 active torsions:
REMARK  status: ('A' for Active; 'I' for Inactive)
REMARK       I    between atoms: C_2  and  N_3 
REMARK       I    between atoms: C_2  and  N_12 
REMARK    1  A    between atoms: N_3  and  C_4 
REMARK    2  A    between atoms: N_12  and  C_13 
ROOT
HETATM    1  O   UNL     1     -42.960 -50.356  14.108  1.00  0.00    -0.247 OA
HETATM    2  C   UNL     1     -43.587 -50.113  13.089  1.00  0.00     0.321 C 
HETATM    3  N   UNL     1     -43.241 -49.111  12.212  1.00  0.00    -0.330 N 
HETATM    4  N   UNL     1     -44.672 -50.840  12.621  1.00  0.00    -0.309 N 
HETATM    5  H   UNL     1     -44.044 -48.632  11.825  1.00  0.00     0.165 HD
HETATM    6  H   UNL     1     -44.922 -50.674  11.657  1.00  0.00     0.170 HD
ENDROOT
BRANCH   3   7
HETATM    7  C   UNL     1     -42.097 -48.206  12.441  1.00  0.00     0.172 C 
HETATM    8  C   UNL     1     -42.472 -46.727  12.607  1.00  0.00     0.034 C 
HETATM    9  C   UNL     1     -41.349 -45.903  13.220  1.00  0.00     0.004 C 
HETATM   10  C   UNL     1     -40.348 -45.380  12.196  1.00  0.00     0.015 C 
HETATM   11  C   UNL     1     -40.059 -46.290  11.011  1.00  0.00     0.095 C 
HETATM   12  N   UNL     1     -39.895 -47.694  11.318  1.00  0.00    -0.261 NA
HETATM   13  C   UNL     1     -40.970 -48.541  11.441  1.00  0.00     0.220 C 
HETATM   14  H   UNL     1     -39.195 -48.147  10.740  1.00  0.00     0.130 HD
HETATM   15  O   UNL     1     -40.903 -49.649  10.898  1.00  0.00    -0.278 OA
ENDBRANCH   3   7
BRANCH   4  16
HETATM   16  C   UNL     1     -45.249 -51.960  13.263  1.00  0.00     0.038 A 
HETATM   17  C   UNL     1     -44.819 -53.265  13.051  1.00  0.00     0.046 A 
HETATM   18  C   UNL     1     -45.478 -54.301  13.691  1.00  0.00     0.090 A 
HETATM   19  N   UNL     1     -46.517 -54.122  14.531  1.00  0.00    -0.375 N 
HETATM   20  C   UNL     1     -46.906 -52.848  14.742  1.00  0.00     0.090 A 
ATOM     21  HN  UNL     1     -46.984 -54.909  14.983  1.00  0.00     0.164 HD
HETATM   22  C   UNL     1     -46.309 -51.745  14.147  1.00  0.00     0.046 A 
ENDBRANCH   4  16
TORSDOF 2
ENDMDL
MODEL 6
REMARK VINA RESULT:      -5.6      3.566      4.756
REMARK  2 active torsions:
REMARK  status: ('A' for Active; 'I' for Inactive)
REMARK       I    between atoms: C_2  and  N_3 
REMARK       I    between atoms: C_2  and  N_12 
REMARK    1  A    between atoms: N_3  and  C_4 
REMARK    2  A    between atoms: N_12  and  C_13 
ROOT
HETATM    1  O   UNL     1     -42.126 -49.469  13.395  1.00  0.00    -0.247 OA
HETATM    2  C   UNL     1     -42.146 -50.016  12.304  1.00  0.00     0.321 C 
HETATM    3  N   UNL     1     -42.464 -51.343  12.132  1.00  0.00    -0.330 N 
HETATM    4  N   UNL     1     -41.934 -49.387  11.086  1.00  0.00    -0.309 N 
HETATM    5  H   UNL     1     -41.904 -51.792  11.418  1.00  0.00     0.165 HD
HETATM    6  H   UNL     1     -42.224 -49.908  10.272  1.00  0.00     0.170 HD
ENDROOT
BRANCH   3   7
HETATM    7  C   UNL     1     -42.776 -52.245  13.259  1.00  0.00     0.172 C 
HETATM    8  C   UNL     1     -42.017 -53.578  13.244  1.00  0.00     0.034 C 
HETATM    9  C   UNL     1     -42.060 -54.293  14.586  1.00  0.00     0.004 C 
HETATM   10  C   UNL     1     -43.293 -55.168  14.772  1.00  0.00     0.015 C 
HETATM   11  C   UNL     1     -44.583 -54.658  14.144  1.00  0.00     0.095 C 
HETATM   12  N   UNL     1     -44.846 -53.245  14.304  1.00  0.00    -0.261 NA
HETATM   13  C   UNL     1     -44.305 -52.305  13.458  1.00  0.00     0.220 C 
HETATM   14  H   UNL     1     -45.831 -53.035  14.426  1.00  0.00     0.130 HD
HETATM   15  O   UNL     1     -45.042 -51.405  13.041  1.00  0.00    -0.278 OA
ENDBRANCH   3   7
BRANCH   4  16
HETATM   16  C   UNL     1     -41.631 -48.016  10.912  1.00  0.00     0.038 A 
HETATM   17  C   UNL     1     -42.549 -47.087  10.434  1.00  0.00     0.046 A 
HETATM   18  C   UNL     1     -42.144 -45.775  10.253  1.00  0.00     0.090 A 
HETATM   19  N   UNL     1     -40.902 -45.331  10.528  1.00  0.00    -0.375 N 
HETATM   20  C   UNL     1     -40.032 -46.240  11.012  1.00  0.00     0.090 A 
ATOM     21  HN  UNL     1     -40.634 -44.357  10.378  1.00  0.00     0.164 HD
HETATM   22  C   UNL     1     -40.343 -47.576  11.226  1.00  0.00     0.046 A 
ENDBRANCH   4  16
TORSDOF 2
ENDMDL
MODEL 7
REMARK VINA RESULT:      -5.4      4.358      6.984
REMARK  2 active torsions:
REMARK  status: ('A' for Active; 'I' for Inactive)
REMARK       I    between atoms: C_2  and  N_3 
REMARK       I    between atoms: C_2  and  N_12 
REMARK    1  A    between atoms: N_3  and  C_4 
REMARK    2  A    between atoms: N_12  and  C_13 
ROOT
HETATM    1  O   UNL     1     -42.433 -51.166  13.855  1.00  0.00    -0.247 OA
HETATM    2  C   UNL     1     -42.400 -51.716  12.766  1.00  0.00     0.321 C 
HETATM    3  N   UNL     1     -43.461 -52.418  12.243  1.00  0.00    -0.330 N 
HETATM    4  N   UNL     1     -41.344 -51.656  11.868  1.00  0.00    -0.309 N 
HETATM    5  H   UNL     1     -43.173 -53.248  11.741  1.00  0.00     0.165 HD
HETATM    6  H   UNL     1     -41.559 -51.946  10.925  1.00  0.00     0.170 HD
ENDROOT
BRANCH   3   7
HETATM    7  C   UNL     1     -44.732 -52.606  12.970  1.00  0.00     0.172 C 
HETATM    8  C   UNL     1     -45.385 -51.310  13.469  1.00  0.00     0.034 C 
HETATM    9  C   UNL     1     -46.845 -51.497  13.853  1.00  0.00     0.004 C 
HETATM   10  C   UNL     1     -47.042 -51.973  15.287  1.00  0.00     0.015 C 
HETATM   11  C   UNL     1     -45.987 -52.925  15.833  1.00  0.00     0.095 C 
HETATM   12  N   UNL     1     -45.552 -53.969  14.931  1.00  0.00    -0.261 NA
HETATM   13  C   UNL     1     -44.574 -53.754  13.989  1.00  0.00     0.220 C 
HETATM   14  H   UNL     1     -45.355 -54.845  15.403  1.00  0.00     0.130 HD
HETATM   15  O   UNL     1     -43.697 -54.614  13.855  1.00  0.00    -0.278 OA
ENDBRANCH   3   7
BRANCH   4  16
HETATM   16  C   UNL     1     -40.123 -50.975  12.080  1.00  0.00     0.038 A 
HETATM   17  C   UNL     1     -39.103 -51.472  12.884  1.00  0.00     0.046 A 
HETATM   18  C   UNL     1     -37.962 -50.709  13.068  1.00  0.00     0.090 A 
HETATM   19  N   UNL     1     -37.767 -49.503  12.499  1.00  0.00    -0.375 N 
HETATM   20  C   UNL     1     -38.757 -49.047  11.705  1.00  0.00     0.090 A 
ATOM     21  HN  UNL     1     -36.916 -48.964  12.660  1.00  0.00     0.164 HD
HETATM   22  C   UNL     1     -39.937 -49.737  11.460  1.00  0.00     0.046 A 
ENDBRANCH   4  16
TORSDOF 2
ENDMDL
MODEL 8
REMARK VINA RESULT:      -5.4      2.913      6.982
REMARK  2 active torsions:
REMARK  status: ('A' for Active; 'I' for Inactive)
REMARK       I    between atoms: C_2  and  N_3 
REMARK       I    between atoms: C_2  and  N_12 
REMARK    1  A    between atoms: N_3  and  C_4 
REMARK    2  A    between atoms: N_12  and  C_13 
ROOT
HETATM    1  O   UNL     1     -40.265 -47.138  12.706  1.00  0.00    -0.247 OA
HETATM    2  C   UNL     1     -40.025 -47.417  11.542  1.00  0.00     0.321 C 
HETATM    3  N   UNL     1     -40.201 -46.533  10.503  1.00  0.00    -0.330 N 
HETATM    4  N   UNL     1     -39.473 -48.611  11.101  1.00  0.00    -0.309 N 
HETATM    5  H   UNL     1     -40.555 -46.978   9.665  1.00  0.00     0.165 HD
HETATM    6  H   UNL     1     -39.107 -48.598  10.160  1.00  0.00     0.170 HD
ENDROOT
BRANCH   3   7
HETATM    7  C   UNL     1     -40.738 -45.171  10.693  1.00  0.00     0.172 C 
HETATM    8  C   UNL     1     -39.985 -44.323  11.728  1.00  0.00     0.034 C 
HETATM    9  C   UNL     1     -40.304 -42.840  11.615  1.00  0.00     0.004 C 
HETATM   10  C   UNL     1     -41.545 -42.422  12.394  1.00  0.00     0.015 C 
HETATM   11  C   UNL     1     -42.677 -43.437  12.455  1.00  0.00     0.095 C 
HETATM   12  N   UNL     1     -42.975 -44.125  11.217  1.00  0.00    -0.261 NA
HETATM   13  C   UNL     1     -42.274 -45.238  10.818  1.00  0.00     0.220 C 
HETATM   14  H   UNL     1     -43.965 -44.309  11.093  1.00  0.00     0.130 HD
HETATM   15  O   UNL     1     -42.912 -46.199  10.374  1.00  0.00    -0.278 OA
ENDBRANCH   3   7
BRANCH   4  16
HETATM   16  C   UNL     1     -39.128 -49.710  11.922  1.00  0.00     0.038 A 
HETATM   17  C   UNL     1     -40.054 -50.646  12.369  1.00  0.00     0.046 A 
HETATM   18  C   UNL     1     -39.629 -51.662  13.209  1.00  0.00     0.090 A 
HETATM   19  N   UNL     1     -38.352 -51.812  13.616  1.00  0.00    -0.375 N 
HETATM   20  C   UNL     1     -37.464 -50.908  13.154  1.00  0.00     0.090 A 
ATOM     21  HN  UNL     1     -38.073 -52.569  14.240  1.00  0.00     0.164 HD
HETATM   22  C   UNL     1     -37.794 -49.856  12.310  1.00  0.00     0.046 A 
ENDBRANCH   4  16
TORSDOF 2
ENDMDL
MODEL 9
REMARK VINA RESULT:      -5.3      2.582      6.418
REMARK  2 active torsions:
REMARK  status: ('A' for Active; 'I' for Inactive)
REMARK       I    between atoms: C_2  and  N_3 
REMARK       I    between atoms: C_2  and  N_12 
REMARK    1  A    between atoms: N_3  and  C_4 
REMARK    2  A    between atoms: N_12  and  C_13 
ROOT
HETATM    1  O   UNL     1     -41.430 -49.246  12.771  1.00  0.00    -0.247 OA
HETATM    2  C   UNL     1     -41.307 -49.703  11.645  1.00  0.00     0.321 C 
HETATM    3  N   UNL     1     -41.204 -48.918  10.520  1.00  0.00    -0.330 N 
HETATM    4  N   UNL     1     -41.173 -51.048  11.334  1.00  0.00    -0.309 N 
HETATM    5  H   UNL     1     -41.693 -49.307   9.724  1.00  0.00     0.165 HD
HETATM    6  H   UNL     1     -40.835 -51.247  10.404  1.00  0.00     0.170 HD
ENDROOT
BRANCH   3   7
HETATM    7  C   UNL     1     -41.273 -47.443  10.564  1.00  0.00     0.172 C 
HETATM    8  C   UNL     1     -40.136 -46.771  11.345  1.00  0.00     0.034 C 
HETATM    9  C   UNL     1     -40.018 -45.283  11.045  1.00  0.00     0.004 C 
HETATM   10  C   UNL     1     -40.924 -44.413  11.907  1.00  0.00     0.015 C 
HETATM   11  C   UNL     1     -42.278 -45.006  12.274  1.00  0.00     0.095 C 
HETATM   12  N   UNL     1     -42.975 -45.694  11.210  1.00  0.00    -0.261 NA
HETATM   13  C   UNL     1     -42.715 -47.008  10.901  1.00  0.00     0.220 C 
HETATM   14  H   UNL     1     -43.981 -45.568  11.249  1.00  0.00     0.130 HD
HETATM   15  O   UNL     1     -43.675 -47.759  10.701  1.00  0.00    -0.278 OA
ENDBRANCH   3   7
BRANCH   4  16
HETATM   16  C   UNL     1     -41.188 -52.112  12.266  1.00  0.00     0.038 A 
HETATM   17  C   UNL     1     -42.306 -52.907  12.497  1.00  0.00     0.046 A 
HETATM   18  C   UNL     1     -42.237 -53.895  13.465  1.00  0.00     0.090 A 
HETATM   19  N   UNL     1     -41.136 -54.150  14.199  1.00  0.00    -0.375 N 
HETATM   20  C   UNL     1     -40.055 -53.384  13.946  1.00  0.00     0.090 A 
ATOM     21  HN  UNL     1     -41.121 -54.883  14.909  1.00  0.00     0.164 HD
HETATM   22  C   UNL     1     -40.026 -52.370  12.998  1.00  0.00     0.046 A 
ENDBRANCH   4  16
TORSDOF 2
ENDMDL
