MODEL 1
REMARK VINA RESULT:      -5.4      0.000      0.000
REMARK  1 active torsions:
REMARK  status: ('A' for Active; 'I' for Inactive)
REMARK    1  A    between atoms: C_2  and  C_9 
ROOT
HETATM    1  C   UNL     1     -43.841 -54.064  15.987  1.00  0.00     0.054 C 
HETATM    2  C   UNL     1     -44.245 -53.535  14.616  1.00  0.00     0.139 C 
HETATM    3  N   UNL     1     -44.943 -52.264  14.718  1.00  0.00    -0.321 N 
HETATM    4  C   UNL     1     -46.145 -52.265  14.057  1.00  0.00     0.324 C 
HETATM    5  O   UNL     1     -46.877 -51.299  13.943  1.00  0.00    -0.247 OA
HETATM    6  N   UNL     1     -46.388 -53.512  13.602  1.00  0.00    -0.277 N 
HETATM    7  C   UNL     1     -45.413 -54.363  14.017  1.00  0.00     0.258 C 
HETATM    8  O   UNL     1     -45.461 -55.580  13.893  1.00  0.00    -0.270 OA
HETATM    9  H   UNL     1     -44.577 -51.412  15.115  1.00  0.00     0.165 HD
HETATM   10  H   UNL     1     -47.249 -53.792  13.164  1.00  0.00     0.173 HD
ENDROOT
BRANCH   2  11
HETATM   11  C   UNL     1     -43.046 -53.441  13.679  1.00  0.00    -0.018 A 
HETATM   12  C   UNL     1     -41.980 -54.348  13.761  1.00  0.00     0.027 A 
HETATM   13  C   UNL     1     -40.915 -54.226  12.882  1.00  0.00     0.088 A 
HETATM   14  N   UNL     1     -40.823 -53.262  11.944  1.00  0.00    -0.375 N 
HETATM   15  C   UNL     1     -41.837 -52.378  11.888  1.00  0.00     0.088 A 
ATOM     16  HN  UNL     1     -40.026 -53.205  11.310  1.00  0.00     0.164 HD
HETATM   17  C   UNL     1     -42.946 -52.419  12.722  1.00  0.00     0.027 A 
ENDBRANCH   2  11
TORSDOF 1
ENDMDL
MODEL 2
REMARK VINA RESULT:      -5.3      2.423      4.634
REMARK  1 active torsions:
REMARK  status: ('A' for Active; 'I' for Inactive)
REMARK    1  A    between atoms: C_2  and  C_9 
ROOT
HETATM    1  C   UNL     1     -46.563 -52.007  12.102  1.00  0.00     0.054 C 
HETATM    2  C   UNL     1     -45.396 -52.191  13.065  1.00  0.00     0.139 C 
HETATM    3  N   UNL     1     -44.176 -51.595  12.547  1.00  0.00    -0.321 N 
HETATM    4  C   UNL     1     -43.119 -52.468  12.543  1.00  0.00     0.324 C 
HETATM    5  O   UNL     1     -41.981 -52.181  12.220  1.00  0.00    -0.247 OA
HETATM    6  N   UNL     1     -43.563 -53.688  12.912  1.00  0.00    -0.277 N 
HETATM    7  C   UNL     1     -44.912 -53.666  13.084  1.00  0.00     0.258 C 
HETATM    8  O   UNL     1     -45.602 -54.662  13.256  1.00  0.00    -0.270 OA
HETATM    9  H   UNL     1     -44.039 -50.622  12.317  1.00  0.00     0.165 HD
HETATM   10  H   UNL     1     -42.998 -54.519  12.899  1.00  0.00     0.173 HD
ENDROOT
BRANCH   2  11
HETATM   11  C   UNL     1     -45.732 -51.663  14.456  1.00  0.00    -0.018 A 
HETATM   12  C   UNL     1     -44.788 -50.966  15.221  1.00  0.00     0.027 A 
HETATM   13  C   UNL     1     -45.142 -50.499  16.478  1.00  0.00     0.088 A 
HETATM   14  N   UNL     1     -46.354 -50.691  17.035  1.00  0.00    -0.375 N 
HETATM   15  C   UNL     1     -47.249 -51.385  16.305  1.00  0.00     0.088 A 
ATOM     16  HN  UNL     1     -46.582 -50.330  17.961  1.00  0.00     0.164 HD
HETATM   17  C   UNL     1     -46.989 -51.889  15.038  1.00  0.00     0.027 A 
ENDBRANCH   2  11
TORSDOF 1
ENDMDL
MODEL 3
REMARK VINA RESULT:      -5.1      1.515      2.042
REMARK  1 active torsions:
REMARK  status: ('A' for Active; 'I' for Inactive)
REMARK    1  A    between atoms: C_2  and  C_9 
ROOT
HETATM    1  C   UNL     1     -44.329 -51.001  14.876  1.00  0.00     0.054 C 
HETATM    2  C   UNL     1     -44.545 -51.989  13.736  1.00  0.00     0.139 C 
HETATM    3  N   UNL     1     -45.320 -51.399  12.657  1.00  0.00    -0.321 N 
HETATM    4  C   UNL     1     -46.403 -52.161  12.304  1.00  0.00     0.324 C 
HETATM    5  O   UNL     1     -47.162 -51.910  11.385  1.00  0.00    -0.247 OA
HETATM    6  N   UNL     1     -46.505 -53.196  13.165  1.00  0.00    -0.277 N 
HETATM    7  C   UNL     1     -45.558 -53.094  14.136  1.00  0.00     0.258 C 
HETATM    8  O   UNL     1     -45.519 -53.797  15.137  1.00  0.00    -0.270 OA
HETATM    9  H   UNL     1     -45.067 -50.586  12.116  1.00  0.00     0.165 HD
HETATM   10  H   UNL     1     -47.271 -53.847  13.173  1.00  0.00     0.173 HD
ENDROOT
BRANCH   2  11
HETATM   11  C   UNL     1     -43.223 -52.556  13.230  1.00  0.00    -0.018 A 
HETATM   12  C   UNL     1     -42.412 -51.840  12.339  1.00  0.00     0.027 A 
HETATM   13  C   UNL     1     -41.215 -52.395  11.913  1.00  0.00     0.088 A 
HETATM   14  N   UNL     1     -40.777 -53.612  12.290  1.00  0.00    -0.375 N 
HETATM   15  C   UNL     1     -41.573 -54.307  13.125  1.00  0.00     0.088 A 
ATOM     16  HN  UNL     1     -39.888 -53.988  11.960  1.00  0.00     0.164 HD
HETATM   17  C   UNL     1     -42.786 -53.835  13.609  1.00  0.00     0.027 A 
ENDBRANCH   2  11
TORSDOF 1
ENDMDL
MODEL 4
REMARK VINA RESULT:      -5.0      1.528      2.071
REMARK  1 active torsions:
REMARK  status: ('A' for Active; 'I' for Inactive)
REMARK    1  A    between atoms: C_2  and  C_9 
ROOT
HETATM    1  C   UNL     1     -45.403 -54.935  13.788  1.00  0.00     0.054 C 
HETATM    2  C   UNL     1     -44.925 -53.488  13.789  1.00  0.00     0.139 C 
HETATM    3  N   UNL     1     -45.138 -52.856  15.080  1.00  0.00    -0.321 N 
HETATM    4  C   UNL     1     -45.820 -51.670  14.985  1.00  0.00     0.324 C 
HETATM    5  O   UNL     1     -46.058 -50.927  15.919  1.00  0.00    -0.247 OA
HETATM    6  N   UNL     1     -46.212 -51.498  13.705  1.00  0.00    -0.277 N 
HETATM    7  C   UNL     1     -45.876 -52.584  12.959  1.00  0.00     0.258 C 
HETATM    8  O   UNL     1     -46.252 -52.774  11.810  1.00  0.00    -0.270 OA
HETATM    9  H   UNL     1     -44.745 -53.152  15.961  1.00  0.00     0.165 HD
HETATM   10  H   UNL     1     -46.808 -50.749  13.397  1.00  0.00     0.173 HD
ENDROOT
BRANCH   2  11
HETATM   11  C   UNL     1     -43.471 -53.379  13.344  1.00  0.00    -0.018 A 
HETATM   12  C   UNL     1     -43.048 -52.372  12.467  1.00  0.00     0.027 A 
HETATM   13  C   UNL     1     -41.713 -52.310  12.096  1.00  0.00     0.088 A 
HETATM   14  N   UNL     1     -40.777 -53.184  12.517  1.00  0.00    -0.375 N 
HETATM   15  C   UNL     1     -41.195 -54.165  13.339  1.00  0.00     0.088 A 
ATOM     16  HN  UNL     1     -39.802 -53.105  12.227  1.00  0.00     0.164 HD
HETATM   17  C   UNL     1     -42.507 -54.308  13.768  1.00  0.00     0.027 A 
ENDBRANCH   2  11
TORSDOF 1
ENDMDL
MODEL 5
REMARK VINA RESULT:      -4.9      2.386      4.582
REMARK  1 active torsions:
REMARK  status: ('A' for Active; 'I' for Inactive)
REMARK    1  A    between atoms: C_2  and  C_9 
ROOT
HETATM    1  C   UNL     1     -42.898 -51.452  15.561  1.00  0.00     0.054 C 
HETATM    2  C   UNL     1     -43.113 -52.146  14.221  1.00  0.00     0.139 C 
HETATM    3  N   UNL     1     -41.931 -52.882  13.805  1.00  0.00    -0.321 N 
HETATM    4  C   UNL     1     -41.525 -52.559  12.535  1.00  0.00     0.324 C 
HETATM    5  O   UNL     1     -40.604 -53.090  11.943  1.00  0.00    -0.247 OA
HETATM    6  N   UNL     1     -42.285 -51.539  12.083  1.00  0.00    -0.277 N 
HETATM    7  C   UNL     1     -43.137 -51.120  13.057  1.00  0.00     0.258 C 
HETATM    8  O   UNL     1     -43.824 -50.109  12.984  1.00  0.00    -0.270 OA
HETATM    9  H   UNL     1     -41.493 -53.640  14.306  1.00  0.00     0.165 HD
HETATM   10  H   UNL     1     -42.124 -51.062  11.213  1.00  0.00     0.173 HD
ENDROOT
BRANCH   2  11
HETATM   11  C   UNL     1     -44.349 -53.038  14.246  1.00  0.00    -0.018 A 
HETATM   12  C   UNL     1     -45.568 -52.586  14.768  1.00  0.00     0.027 A 
HETATM   13  C   UNL     1     -46.666 -53.433  14.763  1.00  0.00     0.088 A 
HETATM   14  N   UNL     1     -46.636 -54.697  14.297  1.00  0.00    -0.375 N 
HETATM   15  C   UNL     1     -45.454 -55.135  13.821  1.00  0.00     0.088 A 
ATOM     16  HN  UNL     1     -47.465 -55.291  14.304  1.00  0.00     0.164 HD
HETATM   17  C   UNL     1     -44.302 -54.363  13.782  1.00  0.00     0.027 A 
ENDBRANCH   2  11
TORSDOF 1
ENDMDL
MODEL 6
REMARK VINA RESULT:      -4.8      5.848      7.816
REMARK  1 active torsions:
REMARK  status: ('A' for Active; 'I' for Inactive)
REMARK    1  A    between atoms: C_2  and  C_9 
ROOT
HETATM    1  C   UNL     1     -41.318 -50.291  12.371  1.00  0.00     0.054 C 
HETATM    2  C   UNL     1     -40.249 -49.327  11.871  1.00  0.00     0.139 C 
HETATM    3  N   UNL     1     -39.283 -49.997  11.016  1.00  0.00    -0.321 N 
HETATM    4  C   UNL     1     -37.988 -49.787  11.413  1.00  0.00     0.324 C 
HETATM    5  O   UNL     1     -37.003 -50.187  10.819  1.00  0.00    -0.247 OA
HETATM    6  N   UNL     1     -37.997 -49.107  12.580  1.00  0.00    -0.277 N 
HETATM    7  C   UNL     1     -39.274 -48.931  13.012  1.00  0.00     0.258 C 
HETATM    8  O   UNL     1     -39.575 -48.497  14.116  1.00  0.00    -0.270 OA
HETATM    9  H   UNL     1     -39.483 -50.475  10.150  1.00  0.00     0.165 HD
HETATM   10  H   UNL     1     -37.173 -48.910  13.121  1.00  0.00     0.173 HD
ENDROOT
BRANCH   2  11
HETATM   11  C   UNL     1     -40.867 -48.119  11.177  1.00  0.00    -0.018 A 
HETATM   12  C   UNL     1     -42.084 -48.213  10.489  1.00  0.00     0.027 A 
HETATM   13  C   UNL     1     -42.609 -47.084   9.879  1.00  0.00     0.088 A 
HETATM   14  N   UNL     1     -42.007 -45.878   9.887  1.00  0.00    -0.375 N 
HETATM   15  C   UNL     1     -40.824 -45.800  10.528  1.00  0.00     0.088 A 
ATOM     16  HN  UNL     1     -42.425 -45.067   9.432  1.00  0.00     0.164 HD
HETATM   17  C   UNL     1     -40.220 -46.872  11.169  1.00  0.00     0.027 A 
ENDBRANCH   2  11
TORSDOF 1
ENDMDL
MODEL 7
REMARK VINA RESULT:      -4.8      1.705      2.962
REMARK  1 active torsions:
REMARK  status: ('A' for Active; 'I' for Inactive)
REMARK    1  A    between atoms: C_2  and  C_9 
ROOT
HETATM    1  C   UNL     1     -46.643 -51.543  12.755  1.00  0.00     0.054 C 
HETATM    2  C   UNL     1     -45.556 -52.410  13.379  1.00  0.00     0.139 C 
HETATM    3  N   UNL     1     -45.686 -53.801  12.979  1.00  0.00    -0.321 N 
HETATM    4  C   UNL     1     -45.707 -54.661  14.047  1.00  0.00     0.324 C 
HETATM    5  O   UNL     1     -45.741 -55.875  13.963  1.00  0.00    -0.247 OA
HETATM    6  N   UNL     1     -45.727 -53.937  15.186  1.00  0.00    -0.277 N 
HETATM    7  C   UNL     1     -45.802 -52.610  14.899  1.00  0.00     0.258 C 
HETATM    8  O   UNL     1     -46.001 -51.735  15.731  1.00  0.00    -0.270 OA
HETATM    9  H   UNL     1     -45.649 -54.156  12.036  1.00  0.00     0.165 HD
HETATM   10  H   UNL     1     -45.835 -54.335  16.103  1.00  0.00     0.173 HD
ENDROOT
BRANCH   2  11
HETATM   11  C   UNL     1     -44.164 -51.868  13.074  1.00  0.00    -0.018 A 
HETATM   12  C   UNL     1     -43.161 -52.685  12.537  1.00  0.00     0.027 A 
HETATM   13  C   UNL     1     -41.913 -52.144  12.270  1.00  0.00     0.088 A 
HETATM   14  N   UNL     1     -41.584 -50.860  12.516  1.00  0.00    -0.375 N 
HETATM   15  C   UNL     1     -42.544 -50.086  13.057  1.00  0.00     0.088 A 
ATOM     16  HN  UNL     1     -40.656 -50.494  12.302  1.00  0.00     0.164 HD
HETATM   17  C   UNL     1     -43.823 -50.535  13.356  1.00  0.00     0.027 A 
ENDBRANCH   2  11
TORSDOF 1
ENDMDL
MODEL 8
REMARK VINA RESULT:      -4.8      5.905      7.491
REMARK  1 active torsions:
REMARK  status: ('A' for Active; 'I' for Inactive)
REMARK    1  A    between atoms: C_2  and  C_9 
ROOT
HETATM    1  C   UNL     1     -39.980 -45.486  11.998  1.00  0.00     0.054 C 
HETATM    2  C   UNL     1     -40.964 -46.472  11.379  1.00  0.00     0.139 C 
HETATM    3  N   UNL     1     -41.264 -46.131   9.998  1.00  0.00    -0.321 N 
HETATM    4  C   UNL     1     -42.610 -46.044   9.754  1.00  0.00     0.324 C 
HETATM    5  O   UNL     1     -43.108 -45.839   8.662  1.00  0.00    -0.247 OA
HETATM    6  N   UNL     1     -43.273 -46.180  10.922  1.00  0.00    -0.277 N 
HETATM    7  C   UNL     1     -42.392 -46.274  11.954  1.00  0.00     0.258 C 
HETATM    8  O   UNL     1     -42.709 -46.239  13.136  1.00  0.00    -0.270 OA
HETATM    9  H   UNL     1     -40.600 -46.073   9.241  1.00  0.00     0.165 HD
HETATM   10  H   UNL     1     -44.266 -46.063  11.021  1.00  0.00     0.173 HD
ENDROOT
BRANCH   2  11
HETATM   11  C   UNL     1     -40.470 -47.908  11.507  1.00  0.00    -0.018 A 
HETATM   12  C   UNL     1     -39.150 -48.198  11.877  1.00  0.00     0.027 A 
HETATM   13  C   UNL     1     -38.749 -49.521  11.987  1.00  0.00     0.088 A 
HETATM   14  N   UNL     1     -39.556 -50.572  11.737  1.00  0.00    -0.375 N 
HETATM   15  C   UNL     1     -40.816 -50.287  11.356  1.00  0.00     0.088 A 
ATOM     16  HN  UNL     1     -39.228 -51.533  11.833  1.00  0.00     0.164 HD
HETATM   17  C   UNL     1     -41.310 -48.997  11.221  1.00  0.00     0.027 A 
ENDBRANCH   2  11
TORSDOF 1
ENDMDL
MODEL 9
REMARK VINA RESULT:      -4.6      2.599      4.325
REMARK  1 active torsions:
REMARK  status: ('A' for Active; 'I' for Inactive)
REMARK    1  A    between atoms: C_2  and  C_9 
ROOT
HETATM    1  C   UNL     1     -41.212 -54.051  12.847  1.00  0.00     0.054 C 
HETATM    2  C   UNL     1     -42.138 -52.853  13.018  1.00  0.00     0.139 C 
HETATM    3  N   UNL     1     -42.030 -51.929  11.901  1.00  0.00    -0.321 N 
HETATM    4  C   UNL     1     -41.789 -50.640  12.300  1.00  0.00     0.324 C 
HETATM    5  O   UNL     1     -41.726 -49.680  11.554  1.00  0.00    -0.247 OA
HETATM    6  N   UNL     1     -41.594 -50.629  13.636  1.00  0.00    -0.277 N 
HETATM    7  C   UNL     1     -41.619 -51.897  14.126  1.00  0.00     0.258 C 
HETATM    8  O   UNL     1     -41.308 -52.201  15.270  1.00  0.00    -0.270 OA
HETATM    9  H   UNL     1     -42.221 -52.139  10.933  1.00  0.00     0.165 HD
HETATM   10  H   UNL     1     -41.310 -49.816  14.155  1.00  0.00     0.173 HD
ENDROOT
BRANCH   2  11
HETATM   11  C   UNL     1     -43.581 -53.290  13.246  1.00  0.00    -0.018 A 
HETATM   12  C   UNL     1     -43.887 -54.513  13.858  1.00  0.00     0.027 A 
HETATM   13  C   UNL     1     -45.215 -54.863  14.049  1.00  0.00     0.088 A 
HETATM   14  N   UNL     1     -46.256 -54.101  13.660  1.00  0.00    -0.375 N 
HETATM   15  C   UNL     1     -45.955 -52.939  13.048  1.00  0.00     0.088 A 
ATOM     16  HN  UNL     1     -47.221 -54.388  13.821  1.00  0.00     0.164 HD
HETATM   17  C   UNL     1     -44.659 -52.501  12.814  1.00  0.00     0.027 A 
ENDBRANCH   2  11
TORSDOF 1
ENDMDL
