MODEL 1
REMARK VINA RESULT:      -6.6      0.000      0.000
REMARK  5 active torsions:
REMARK  status: ('A' for Active; 'I' for Inactive)
REMARK    1  A    between atoms: S_2  and  C_5 
REMARK    2  A    between atoms: C_8  and  C_11 
REMARK    3  A    between atoms: C_11  and  O_12 
REMARK    4  A    between atoms: C_11  and  C_13 
REMARK    5  A    between atoms: C_13  and  N_14 
ROOT
HETATM    1  C   UNL     1     -40.452 -53.463  13.064  1.00  0.00     0.169 C 
ENDROOT
BRANCH   1   2
HETATM    2  C   UNL     1     -41.854 -53.753  13.580  1.00  0.00    -0.028 A 
HETATM    3  C   UNL     1     -42.017 -54.125  14.929  1.00  0.00     0.011 A 
HETATM    4  C   UNL     1     -43.287 -54.335  15.469  1.00  0.00     0.024 A 
HETATM    5  C   UNL     1     -44.408 -54.177  14.655  1.00  0.00     0.058 A 
HETATM    6  C   UNL     1     -44.270 -53.900  13.295  1.00  0.00     0.024 A 
HETATM    7  C   UNL     1     -42.994 -53.693  12.763  1.00  0.00     0.011 A 
BRANCH   5   8
HETATM    8  S   UNL     1     -46.033 -54.274  15.368  1.00  0.00     0.171 S 
HETATM    9  C   UNL     1     -46.662 -52.638  15.081  1.00  0.00     0.167 C 
HETATM   10  O   UNL     1     -45.879 -54.459  16.798  1.00  0.00    -0.223 OA
HETATM   11  O   UNL     1     -46.806 -55.206  14.570  1.00  0.00    -0.223 OA
ENDBRANCH   5   8
ENDBRANCH   1   2
BRANCH   1  12
HETATM   12  O   UNL     1     -40.494 -53.483  11.639  1.00  0.00    -0.389 OA
HETATM   13  H   UNL     1     -40.664 -54.391  11.342  1.00  0.00     0.210 HD
ENDBRANCH   1  12
BRANCH   1  14
HETATM   14  C   UNL     1     -39.854 -52.141  13.574  1.00  0.00     0.166 C 
BRANCH  14  15
HETATM   15  N   UNL     1     -39.974 -51.061  12.615  1.00  0.00    -0.338 N 
HETATM   16  C   UNL     1     -38.994 -50.706  11.726  1.00  0.00     0.184 A 
HETATM   17  N   UNL     1     -39.369 -49.710  10.962  1.00  0.00    -0.350 N 
HETATM   18  C   UNL     1     -40.640 -49.402  11.368  1.00  0.00     0.060 A 
ATOM     19  HN  UNL     1     -38.829 -49.261  10.222  1.00  0.00     0.166 HD
HETATM   20  C   UNL     1     -41.504 -48.409  10.891  1.00  0.00     0.032 A 
HETATM   21  C   UNL     1     -41.058 -50.243  12.400  1.00  0.00     0.062 A 
HETATM   22  C   UNL     1     -42.774 -48.288  11.463  1.00  0.00     0.002 A 
HETATM   23  C   UNL     1     -43.177 -49.145  12.489  1.00  0.00     0.002 A 
HETATM   24  C   UNL     1     -42.328 -50.144  12.983  1.00  0.00     0.032 A 
ENDBRANCH  14  15
ENDBRANCH   1  14
TORSDOF 5
ENDMDL
MODEL 2
REMARK VINA RESULT:      -6.4      4.529      7.328
REMARK  5 active torsions:
REMARK  status: ('A' for Active; 'I' for Inactive)
REMARK    1  A    between atoms: S_2  and  C_5 
REMARK    2  A    between atoms: C_8  and  C_11 
REMARK    3  A    between atoms: C_11  and  O_12 
REMARK    4  A    between atoms: C_11  and  C_13 
REMARK    5  A    between atoms: C_13  and  N_14 
ROOT
HETATM    1  C   UNL     1     -40.802 -49.755  11.200  1.00  0.00     0.169 C 
ENDROOT
BRANCH   1   2
HETATM    2  C   UNL     1     -41.138 -48.272  11.144  1.00  0.00    -0.028 A 
HETATM    3  C   UNL     1     -42.462 -47.887  10.856  1.00  0.00     0.011 A 
HETATM    4  C   UNL     1     -42.837 -46.542  10.860  1.00  0.00     0.024 A 
HETATM    5  C   UNL     1     -41.882 -45.569  11.150  1.00  0.00     0.058 A 
HETATM    6  C   UNL     1     -40.545 -45.917  11.348  1.00  0.00     0.024 A 
HETATM    7  C   UNL     1     -40.179 -47.265  11.340  1.00  0.00     0.011 A 
BRANCH   5   8
HETATM    8  S   UNL     1     -42.379 -43.873  11.326  1.00  0.00     0.171 S 
HETATM    9  C   UNL     1     -40.833 -43.014  11.168  1.00  0.00     0.167 C 
HETATM   10  O   UNL     1     -42.866 -43.691  12.680  1.00  0.00    -0.223 OA
HETATM   11  O   UNL     1     -43.205 -43.537  10.181  1.00  0.00    -0.223 OA
ENDBRANCH   5   8
ENDBRANCH   1   2
BRANCH   1  12
HETATM   12  O   UNL     1     -39.473 -49.924  10.711  1.00  0.00    -0.389 OA
HETATM   13  H   UNL     1     -39.450 -50.701  10.129  1.00  0.00     0.210 HD
ENDBRANCH   1  12
BRANCH   1  14
HETATM   14  C   UNL     1     -40.954 -50.383  12.596  1.00  0.00     0.166 C 
BRANCH  14  15
HETATM   15  N   UNL     1     -41.757 -51.589  12.586  1.00  0.00    -0.338 N 
HETATM   16  C   UNL     1     -41.263 -52.842  12.337  1.00  0.00     0.184 A 
HETATM   17  N   UNL     1     -42.199 -53.757  12.408  1.00  0.00    -0.350 N 
HETATM   18  C   UNL     1     -43.347 -53.074  12.712  1.00  0.00     0.060 A 
ATOM     19  HN  UNL     1     -42.095 -54.762  12.267  1.00  0.00     0.166 HD
HETATM   20  C   UNL     1     -44.645 -53.566  12.894  1.00  0.00     0.032 A 
HETATM   21  C   UNL     1     -43.102 -51.707  12.844  1.00  0.00     0.062 A 
HETATM   22  C   UNL     1     -45.668 -52.668  13.211  1.00  0.00     0.002 A 
HETATM   23  C   UNL     1     -45.401 -51.304  13.349  1.00  0.00     0.002 A 
HETATM   24  C   UNL     1     -44.110 -50.790  13.168  1.00  0.00     0.032 A 
ENDBRANCH  14  15
ENDBRANCH   1  14
TORSDOF 5
ENDMDL
MODEL 3
REMARK VINA RESULT:      -6.3      4.194      6.583
REMARK  5 active torsions:
REMARK  status: ('A' for Active; 'I' for Inactive)
REMARK    1  A    between atoms: S_2  and  C_5 
REMARK    2  A    between atoms: C_8  and  C_11 
REMARK    3  A    between atoms: C_11  and  O_12 
REMARK    4  A    between atoms: C_11  and  C_13 
REMARK    5  A    between atoms: C_13  and  N_14 
ROOT
HETATM    1  C   UNL     1     -40.904 -49.514  13.511  1.00  0.00     0.169 C 
ENDROOT
BRANCH   1   2
HETATM    2  C   UNL     1     -41.624 -48.775  12.392  1.00  0.00    -0.028 A 
HETATM    3  C   UNL     1     -41.126 -48.881  11.079  1.00  0.00     0.011 A 
HETATM    4  C   UNL     1     -41.788 -48.278  10.007  1.00  0.00     0.024 A 
HETATM    5  C   UNL     1     -42.958 -47.558  10.247  1.00  0.00     0.058 A 
HETATM    6  C   UNL     1     -43.420 -47.361  11.548  1.00  0.00     0.024 A 
HETATM    7  C   UNL     1     -42.750 -47.966  12.615  1.00  0.00     0.011 A 
BRANCH   5   8
HETATM    8  S   UNL     1     -43.901 -46.932   8.879  1.00  0.00     0.171 S 
HETATM    9  C   UNL     1     -45.564 -47.318   9.367  1.00  0.00     0.167 C 
HETATM   10  O   UNL     1     -43.572 -47.728   7.712  1.00  0.00    -0.223 OA
HETATM   11  O   UNL     1     -43.753 -45.489   8.869  1.00  0.00    -0.223 OA
ENDBRANCH   5   8
ENDBRANCH   1   2
BRANCH   1  12
HETATM   12  O   UNL     1     -40.235 -48.548  14.318  1.00  0.00    -0.389 OA
HETATM   13  H   UNL     1     -39.281 -48.727  14.296  1.00  0.00     0.210 HD
ENDBRANCH   1  12
BRANCH   1  14
HETATM   14  C   UNL     1     -41.820 -50.403  14.370  1.00  0.00     0.166 C 
BRANCH  14  15
HETATM   15  N   UNL     1     -42.631 -51.306  13.578  1.00  0.00    -0.338 N 
HETATM   16  C   UNL     1     -42.135 -52.149  12.620  1.00  0.00     0.184 A 
HETATM   17  N   UNL     1     -43.082 -52.869  12.069  1.00  0.00    -0.350 N 
HETATM   18  C   UNL     1     -44.239 -52.479  12.689  1.00  0.00     0.060 A 
ATOM     19  HN  UNL     1     -42.978 -53.570  11.335  1.00  0.00     0.166 HD
HETATM   20  C   UNL     1     -45.549 -52.923  12.476  1.00  0.00     0.032 A 
HETATM   21  C   UNL     1     -43.989 -51.504  13.656  1.00  0.00     0.062 A 
HETATM   22  C   UNL     1     -46.581 -52.378  13.246  1.00  0.00     0.002 A 
HETATM   23  C   UNL     1     -46.309 -51.410  14.215  1.00  0.00     0.002 A 
HETATM   24  C   UNL     1     -45.006 -50.949  14.444  1.00  0.00     0.032 A 
ENDBRANCH  14  15
ENDBRANCH   1  14
TORSDOF 5
ENDMDL
MODEL 4
REMARK VINA RESULT:      -6.3      2.240      3.091
REMARK  5 active torsions:
REMARK  status: ('A' for Active; 'I' for Inactive)
REMARK    1  A    between atoms: S_2  and  C_5 
REMARK    2  A    between atoms: C_8  and  C_11 
REMARK    3  A    between atoms: C_11  and  O_12 
REMARK    4  A    between atoms: C_11  and  C_13 
REMARK    5  A    between atoms: C_13  and  N_14 
ROOT
HETATM    1  C   UNL     1     -39.344 -54.338  14.659  1.00  0.00     0.169 C 
ENDROOT
BRANCH   1   2
HETATM    2  C   UNL     1     -40.857 -54.285  14.502  1.00  0.00    -0.028 A 
HETATM    3  C   UNL     1     -41.397 -53.928  13.250  1.00  0.00     0.011 A 
HETATM    4  C   UNL     1     -42.776 -53.931  13.034  1.00  0.00     0.024 A 
HETATM    5  C   UNL     1     -43.628 -54.288  14.078  1.00  0.00     0.058 A 
HETATM    6  C   UNL     1     -43.125 -54.556  15.351  1.00  0.00     0.024 A 
HETATM    7  C   UNL     1     -41.743 -54.549  15.558  1.00  0.00     0.011 A 
BRANCH   5   8
HETATM    8  S   UNL     1     -45.370 -54.461  13.772  1.00  0.00     0.171 S 
HETATM    9  C   UNL     1     -46.076 -53.697  15.211  1.00  0.00     0.167 C 
HETATM   10  O   UNL     1     -45.688 -55.875  13.803  1.00  0.00    -0.223 OA
HETATM   11  O   UNL     1     -45.694 -53.644  12.618  1.00  0.00    -0.223 OA
ENDBRANCH   5   8
ENDBRANCH   1   2
BRANCH   1  12
HETATM   12  O   UNL     1     -38.771 -54.485  13.362  1.00  0.00    -0.389 OA
HETATM   13  H   UNL     1     -38.558 -53.605  13.012  1.00  0.00     0.210 HD
ENDBRANCH   1  12
BRANCH   1  14
HETATM   14  C   UNL     1     -38.744 -53.122  15.387  1.00  0.00     0.166 C 
BRANCH  14  15
HETATM   15  N   UNL     1     -39.210 -51.858  14.852  1.00  0.00    -0.338 N 
HETATM   16  C   UNL     1     -40.261 -51.144  15.365  1.00  0.00     0.184 A 
HETATM   17  N   UNL     1     -40.460 -50.031  14.704  1.00  0.00    -0.350 N 
HETATM   18  C   UNL     1     -39.505 -50.018  13.722  1.00  0.00     0.060 A 
ATOM     19  HN  UNL     1     -41.173 -49.324  14.884  1.00  0.00     0.166 HD
HETATM   20  C   UNL     1     -39.273 -49.061  12.728  1.00  0.00     0.032 A 
HETATM   21  C   UNL     1     -38.693 -51.150  13.794  1.00  0.00     0.062 A 
HETATM   22  C   UNL     1     -38.221 -49.262  11.829  1.00  0.00     0.002 A 
HETATM   23  C   UNL     1     -37.412 -50.397  11.924  1.00  0.00     0.002 A 
HETATM   24  C   UNL     1     -37.629 -51.369  12.909  1.00  0.00     0.032 A 
ENDBRANCH  14  15
ENDBRANCH   1  14
TORSDOF 5
ENDMDL
MODEL 5
REMARK VINA RESULT:      -6.3      4.716      7.433
REMARK  5 active torsions:
REMARK  status: ('A' for Active; 'I' for Inactive)
REMARK    1  A    between atoms: S_2  and  C_5 
REMARK    2  A    between atoms: C_8  and  C_11 
REMARK    3  A    between atoms: C_11  and  O_12 
REMARK    4  A    between atoms: C_11  and  C_13 
REMARK    5  A    between atoms: C_13  and  N_14 
ROOT
HETATM    1  C   UNL     1     -39.267 -51.103  13.048  1.00  0.00     0.169 C 
ENDROOT
BRANCH   1   2
HETATM    2  C   UNL     1     -38.405 -50.378  14.071  1.00  0.00    -0.028 A 
HETATM    3  C   UNL     1     -38.122 -51.018  15.294  1.00  0.00     0.011 A 
HETATM    4  C   UNL     1     -37.281 -50.425  16.238  1.00  0.00     0.024 A 
HETATM    5  C   UNL     1     -36.719 -49.179  15.963  1.00  0.00     0.058 A 
HETATM    6  C   UNL     1     -37.057 -48.484  14.802  1.00  0.00     0.024 A 
HETATM    7  C   UNL     1     -37.901 -49.084  13.863  1.00  0.00     0.011 A 
BRANCH   5   8
HETATM    8  S   UNL     1     -35.517 -48.491  17.076  1.00  0.00     0.171 S 
HETATM    9  C   UNL     1     -36.488 -47.320  17.992  1.00  0.00     0.167 C 
HETATM   10  O   UNL     1     -34.547 -47.760  16.284  1.00  0.00    -0.223 OA
HETATM   11  O   UNL     1     -35.104 -49.547  17.981  1.00  0.00    -0.223 OA
ENDBRANCH   5   8
ENDBRANCH   1   2
BRANCH   1  12
HETATM   12  O   UNL     1     -38.504 -51.247  11.852  1.00  0.00    -0.389 OA
HETATM   13  H   UNL     1     -38.151 -50.379  11.599  1.00  0.00     0.210 HD
ENDBRANCH   1  12
BRANCH   1  14
HETATM   14  C   UNL     1     -39.798 -52.467  13.524  1.00  0.00     0.166 C 
BRANCH  14  15
HETATM   15  N   UNL     1     -41.150 -52.733  13.075  1.00  0.00    -0.338 N 
HETATM   16  C   UNL     1     -41.712 -52.182  11.954  1.00  0.00     0.184 A 
HETATM   17  N   UNL     1     -42.939 -52.604  11.768  1.00  0.00    -0.350 N 
HETATM   18  C   UNL     1     -43.186 -53.461  12.808  1.00  0.00     0.060 A 
ATOM     19  HN  UNL     1     -43.573 -52.349  11.011  1.00  0.00     0.166 HD
HETATM   20  C   UNL     1     -44.349 -54.184  13.099  1.00  0.00     0.032 A 
HETATM   21  C   UNL     1     -42.075 -53.575  13.643  1.00  0.00     0.062 A 
HETATM   22  C   UNL     1     -44.365 -55.012  14.225  1.00  0.00     0.002 A 
HETATM   23  C   UNL     1     -43.239 -55.120  15.044  1.00  0.00     0.002 A 
HETATM   24  C   UNL     1     -42.066 -54.404  14.773  1.00  0.00     0.032 A 
ENDBRANCH  14  15
ENDBRANCH   1  14
TORSDOF 5
ENDMDL
MODEL 6
REMARK VINA RESULT:      -6.2      2.044      2.629
REMARK  5 active torsions:
REMARK  status: ('A' for Active; 'I' for Inactive)
REMARK    1  A    between atoms: S_2  and  C_5 
REMARK    2  A    between atoms: C_8  and  C_11 
REMARK    3  A    between atoms: C_11  and  O_12 
REMARK    4  A    between atoms: C_11  and  C_13 
REMARK    5  A    between atoms: C_13  and  N_14 
ROOT
HETATM    1  C   UNL     1     -40.639 -52.680  12.550  1.00  0.00     0.169 C 
ENDROOT
BRANCH   1   2
HETATM    2  C   UNL     1     -41.905 -53.074  13.298  1.00  0.00    -0.028 A 
HETATM    3  C   UNL     1     -42.957 -52.142  13.388  1.00  0.00     0.011 A 
HETATM    4  C   UNL     1     -44.165 -52.478  14.003  1.00  0.00     0.024 A 
HETATM    5  C   UNL     1     -44.325 -53.755  14.538  1.00  0.00     0.058 A 
HETATM    6  C   UNL     1     -43.267 -54.664  14.544  1.00  0.00     0.024 A 
HETATM    7  C   UNL     1     -42.061 -54.319  13.928  1.00  0.00     0.011 A 
BRANCH   5   8
HETATM    8  S   UNL     1     -45.909 -54.252  15.170  1.00  0.00     0.171 S 
HETATM    9  C   UNL     1     -46.901 -52.813  14.855  1.00  0.00     0.167 C 
HETATM   10  O   UNL     1     -45.783 -54.413  16.606  1.00  0.00    -0.223 OA
HETATM   11  O   UNL     1     -46.395 -55.332  14.333  1.00  0.00    -0.223 OA
ENDBRANCH   5   8
ENDBRANCH   1   2
BRANCH   1  12
HETATM   12  O   UNL     1     -40.605 -53.409  11.326  1.00  0.00    -0.389 OA
HETATM   13  H   UNL     1     -40.146 -52.876  10.656  1.00  0.00     0.210 HD
ENDBRANCH   1  12
BRANCH   1  14
HETATM   14  C   UNL     1     -40.506 -51.169  12.290  1.00  0.00     0.166 C 
BRANCH  14  15
HETATM   15  N   UNL     1     -39.374 -50.576  12.974  1.00  0.00    -0.338 N 
HETATM   16  C   UNL     1     -38.264 -51.272  13.372  1.00  0.00     0.184 A 
HETATM   17  N   UNL     1     -37.384 -50.493  13.951  1.00  0.00    -0.350 N 
HETATM   18  C   UNL     1     -37.942 -49.243  13.933  1.00  0.00     0.060 A 
ATOM     19  HN  UNL     1     -36.477 -50.761  14.333  1.00  0.00     0.166 HD
HETATM   20  C   UNL     1     -37.430 -48.039  14.431  1.00  0.00     0.032 A 
HETATM   21  C   UNL     1     -39.192 -49.257  13.313  1.00  0.00     0.062 A 
HETATM   22  C   UNL     1     -38.188 -46.873  14.289  1.00  0.00     0.002 A 
HETATM   23  C   UNL     1     -39.432 -46.906  13.656  1.00  0.00     0.002 A 
HETATM   24  C   UNL     1     -39.965 -48.099  13.153  1.00  0.00     0.032 A 
ENDBRANCH  14  15
ENDBRANCH   1  14
TORSDOF 5
ENDMDL
MODEL 7
REMARK VINA RESULT:      -6.2      2.429      3.686
REMARK  5 active torsions:
REMARK  status: ('A' for Active; 'I' for Inactive)
REMARK    1  A    between atoms: S_2  and  C_5 
REMARK    2  A    between atoms: C_8  and  C_11 
REMARK    3  A    between atoms: C_11  and  O_12 
REMARK    4  A    between atoms: C_11  and  C_13 
REMARK    5  A    between atoms: C_13  and  N_14 
ROOT
HETATM    1  C   UNL     1     -40.657 -49.589  11.819  1.00  0.00     0.169 C 
ENDROOT
BRANCH   1   2
HETATM    2  C   UNL     1     -41.562 -50.685  12.361  1.00  0.00    -0.028 A 
HETATM    3  C   UNL     1     -42.650 -50.324  13.180  1.00  0.00     0.011 A 
HETATM    4  C   UNL     1     -43.549 -51.285  13.646  1.00  0.00     0.024 A 
HETATM    5  C   UNL     1     -43.361 -52.621  13.297  1.00  0.00     0.058 A 
HETATM    6  C   UNL     1     -42.241 -53.017  12.564  1.00  0.00     0.024 A 
HETATM    7  C   UNL     1     -41.345 -52.048  12.103  1.00  0.00     0.011 A 
BRANCH   5   8
HETATM    8  S   UNL     1     -44.587 -53.828  13.739  1.00  0.00     0.171 S 
HETATM    9  C   UNL     1     -43.658 -54.944  14.761  1.00  0.00     0.167 C 
HETATM   10  O   UNL     1     -44.975 -54.530  12.531  1.00  0.00    -0.223 OA
HETATM   11  O   UNL     1     -45.574 -53.164  14.571  1.00  0.00    -0.223 OA
ENDBRANCH   5   8
ENDBRANCH   1   2
BRANCH   1  12
HETATM   12  O   UNL     1     -40.724 -49.625  10.395  1.00  0.00    -0.389 OA
HETATM   13  H   UNL     1     -40.852 -50.544  10.111  1.00  0.00     0.210 HD
ENDBRANCH   1  12
BRANCH   1  14
HETATM   14  C   UNL     1     -40.988 -48.181  12.345  1.00  0.00     0.166 C 
BRANCH  14  15
HETATM   15  N   UNL     1     -41.378 -47.264  11.293  1.00  0.00    -0.338 N 
HETATM   16  C   UNL     1     -40.550 -46.318  10.750  1.00  0.00     0.184 A 
HETATM   17  N   UNL     1     -41.147 -45.635   9.804  1.00  0.00    -0.350 N 
HETATM   18  C   UNL     1     -42.412 -46.154   9.729  1.00  0.00     0.060 A 
ATOM     19  HN  UNL     1     -40.753 -44.880   9.243  1.00  0.00     0.166 HD
HETATM   20  C   UNL     1     -43.470 -45.783   8.891  1.00  0.00     0.032 A 
HETATM   21  C   UNL     1     -42.588 -47.191  10.645  1.00  0.00     0.062 A 
HETATM   22  C   UNL     1     -44.684 -46.471   8.991  1.00  0.00     0.002 A 
HETATM   23  C   UNL     1     -44.836 -47.514   9.909  1.00  0.00     0.002 A 
HETATM   24  C   UNL     1     -43.792 -47.898  10.759  1.00  0.00     0.032 A 
ENDBRANCH  14  15
ENDBRANCH   1  14
TORSDOF 5
ENDMDL
MODEL 8
REMARK VINA RESULT:      -6.1      2.892      3.904
REMARK  5 active torsions:
REMARK  status: ('A' for Active; 'I' for Inactive)
REMARK    1  A    between atoms: S_2  and  C_5 
REMARK    2  A    between atoms: C_8  and  C_11 
REMARK    3  A    between atoms: C_11  and  O_12 
REMARK    4  A    between atoms: C_11  and  C_13 
REMARK    5  A    between atoms: C_13  and  N_14 
ROOT
HETATM    1  C   UNL     1     -39.341 -53.691  14.236  1.00  0.00     0.169 C 
ENDROOT
BRANCH   1   2
HETATM    2  C   UNL     1     -40.830 -53.945  14.061  1.00  0.00    -0.028 A 
HETATM    3  C   UNL     1     -41.524 -54.635  15.075  1.00  0.00     0.011 A 
HETATM    4  C   UNL     1     -42.904 -54.834  14.995  1.00  0.00     0.024 A 
HETATM    5  C   UNL     1     -43.600 -54.345  13.890  1.00  0.00     0.058 A 
HETATM    6  C   UNL     1     -42.924 -53.741  12.831  1.00  0.00     0.024 A 
HETATM    7  C   UNL     1     -41.542 -53.547  12.919  1.00  0.00     0.011 A 
BRANCH   5   8
HETATM    8  S   UNL     1     -45.374 -54.441  13.856  1.00  0.00     0.171 S 
HETATM    9  C   UNL     1     -45.812 -53.763  15.438  1.00  0.00     0.167 C 
HETATM   10  O   UNL     1     -45.742 -55.843  13.842  1.00  0.00    -0.223 OA
HETATM   11  O   UNL     1     -45.841 -53.532  12.826  1.00  0.00    -0.223 OA
ENDBRANCH   5   8
ENDBRANCH   1   2
BRANCH   1  12
HETATM   12  O   UNL     1     -38.634 -54.654  13.458  1.00  0.00    -0.389 OA
HETATM   13  H   UNL     1     -38.282 -55.338  14.049  1.00  0.00     0.210 HD
ENDBRANCH   1  12
BRANCH   1  14
HETATM   14  C   UNL     1     -38.898 -52.263  13.871  1.00  0.00     0.166 C 
BRANCH  14  15
HETATM   15  N   UNL     1     -38.485 -51.489  15.024  1.00  0.00    -0.338 N 
HETATM   16  C   UNL     1     -38.505 -51.954  16.312  1.00  0.00     0.184 A 
HETATM   17  N   UNL     1     -38.063 -51.058  17.159  1.00  0.00    -0.350 N 
HETATM   18  C   UNL     1     -37.745 -49.966  16.396  1.00  0.00     0.060 A 
ATOM     19  HN  UNL     1     -37.974 -51.153  18.171  1.00  0.00     0.166 HD
HETATM   20  C   UNL     1     -37.238 -48.724  16.798  1.00  0.00     0.032 A 
HETATM   21  C   UNL     1     -37.987 -50.208  15.044  1.00  0.00     0.062 A 
HETATM   22  C   UNL     1     -36.981 -47.754  15.825  1.00  0.00     0.002 A 
HETATM   23  C   UNL     1     -37.221 -48.019  14.475  1.00  0.00     0.002 A 
HETATM   24  C   UNL     1     -37.730 -49.253  14.051  1.00  0.00     0.032 A 
ENDBRANCH  14  15
ENDBRANCH   1  14
TORSDOF 5
ENDMDL
MODEL 9
REMARK VINA RESULT:      -6.1      4.217      7.045
REMARK  5 active torsions:
REMARK  status: ('A' for Active; 'I' for Inactive)
REMARK    1  A    between atoms: S_2  and  C_5 
REMARK    2  A    between atoms: C_8  and  C_11 
REMARK    3  A    between atoms: C_11  and  O_12 
REMARK    4  A    between atoms: C_11  and  C_13 
REMARK    5  A    between atoms: C_13  and  N_14 
ROOT
HETATM    1  C   UNL     1     -39.858 -50.852  11.856  1.00  0.00     0.169 C 
ENDROOT
BRANCH   1   2
HETATM    2  C   UNL     1     -40.191 -49.386  11.616  1.00  0.00    -0.028 A 
HETATM    3  C   UNL     1     -39.265 -48.405  12.020  1.00  0.00     0.011 A 
HETATM    4  C   UNL     1     -39.491 -47.052  11.761  1.00  0.00     0.024 A 
HETATM    5  C   UNL     1     -40.656 -46.671  11.095  1.00  0.00     0.058 A 
HETATM    6  C   UNL     1     -41.631 -47.613  10.767  1.00  0.00     0.024 A 
HETATM    7  C   UNL     1     -41.396 -48.965  11.032  1.00  0.00     0.011 A 
BRANCH   5   8
HETATM    8  S   UNL     1     -40.876 -44.977  10.610  1.00  0.00     0.171 S 
HETATM    9  C   UNL     1     -40.656 -44.118  12.149  1.00  0.00     0.167 C 
HETATM   10  O   UNL     1     -42.254 -44.812  10.188  1.00  0.00    -0.223 OA
HETATM   11  O   UNL     1     -39.776 -44.626   9.732  1.00  0.00    -0.223 OA
ENDBRANCH   5   8
ENDBRANCH   1   2
BRANCH   1  12
HETATM   12  O   UNL     1     -38.445 -51.006  11.751  1.00  0.00    -0.389 OA
HETATM   13  H   UNL     1     -38.209 -51.106  10.814  1.00  0.00     0.210 HD
ENDBRANCH   1  12
BRANCH   1  14
HETATM   14  C   UNL     1     -40.369 -51.401  13.200  1.00  0.00     0.166 C 
BRANCH  14  15
HETATM   15  N   UNL     1     -41.434 -52.371  13.044  1.00  0.00    -0.338 N 
HETATM   16  C   UNL     1     -41.234 -53.711  12.843  1.00  0.00     0.184 A 
HETATM   17  N   UNL     1     -42.366 -54.363  12.753  1.00  0.00    -0.350 N 
HETATM   18  C   UNL     1     -43.342 -53.414  12.899  1.00  0.00     0.060 A 
ATOM     19  HN  UNL     1     -42.493 -55.365  12.607  1.00  0.00     0.166 HD
HETATM   20  C   UNL     1     -44.733 -53.566  12.875  1.00  0.00     0.032 A 
HETATM   21  C   UNL     1     -42.789 -52.148  13.097  1.00  0.00     0.062 A 
HETATM   22  C   UNL     1     -45.539 -52.438  13.057  1.00  0.00     0.002 A 
HETATM   23  C   UNL     1     -44.966 -51.181  13.264  1.00  0.00     0.002 A 
HETATM   24  C   UNL     1     -43.577 -51.005  13.288  1.00  0.00     0.032 A 
ENDBRANCH  14  15
ENDBRANCH   1  14
TORSDOF 5
ENDMDL
