MODEL 1
REMARK VINA RESULT:      -5.9      0.000      0.000
REMARK  6 active torsions:
REMARK  status: ('A' for Active; 'I' for Inactive)
REMARK    1  A    between atoms: C_8  and  C_9 
REMARK    2  A    between atoms: C_9  and  N_10 
REMARK    3  A    between atoms: N_10  and  C_11 
REMARK    4  A    between atoms: C_11  and  C_12 
REMARK    5  A    between atoms: C_12  and  N_13 
REMARK    6  A    between atoms: C_19  and  C_20 
ROOT
HETATM    1  C   UNL     1     -41.902 -53.239  15.760  1.00  0.00     0.289 C 
ENDROOT
BRANCH   1   2
HETATM    2  N   UNL     1     -43.313 -52.842  15.703  1.00  0.00     0.085 N 
HETATM    3  H   UNL     1     -43.530 -52.232  16.494  1.00  0.00     0.315 HD
BRANCH   2   4
HETATM    4  C   UNL     1     -44.229 -53.988  15.723  1.00  0.00     0.279 C 
BRANCH   4   5
HETATM    5  C   UNL     1     -45.589 -53.710  15.029  1.00  0.00     0.045 C 
HETATM    6  C   UNL     1     -45.559 -53.768  13.461  1.00  0.00    -0.009 C 
HETATM    7  C   UNL     1     -44.246 -54.259  12.819  1.00  0.00     0.011 C 
HETATM    8  C   UNL     1     -46.064 -52.544  12.678  1.00  0.00     0.009 C 
HETATM    9  C   UNL     1     -46.653 -51.364  13.437  1.00  0.00     0.028 C 
HETATM   10  C   UNL     1     -46.762 -51.490  14.911  1.00  0.00    -0.024 C 
HETATM   11  C   UNL     1     -46.302 -52.512  15.643  1.00  0.00    -0.081 C 
HETATM   12  C   UNL     1     -46.496 -52.511  17.138  1.00  0.00     0.043 C 
ENDBRANCH   4   5
ENDBRANCH   2   4
ENDBRANCH   1   2
BRANCH   1  13
HETATM   13  C   UNL     1     -40.994 -52.328  14.923  1.00  0.00     0.161 C 
BRANCH  13  14
HETATM   14  N   UNL     1     -41.106 -52.548  13.503  1.00  0.00    -0.329 N 
HETATM   15  C   UNL     1     -40.642 -53.679  12.890  1.00  0.00     0.201 A 
HETATM   16  N   UNL     1     -40.777 -53.561  11.594  1.00  0.00    -0.295 N 
HETATM   17  N   UNL     1     -41.329 -52.331  11.351  1.00  0.00    -0.288 N 
ATOM     18  HN  UNL     1     -40.517 -54.256  10.894  1.00  0.00     0.187 HD
HETATM   19  C   UNL     1     -41.532 -51.715  12.502  1.00  0.00     0.103 A 
ATOM     20  HN  UNL     1     -41.549 -51.952  10.430  1.00  0.00     0.188 HD
BRANCH  19  21
HETATM   21  C   UNL     1     -42.163 -50.326  12.490  1.00  0.00     0.055 A 
HETATM   22  C   UNL     1     -42.071 -49.334  13.623  1.00  0.00     0.013 A 
HETATM   23  C   UNL     1     -43.366 -50.019  13.352  1.00  0.00     0.013 A 
ENDBRANCH  19  21
ENDBRANCH  13  14
ENDBRANCH   1  13
TORSDOF 6
ENDMDL
MODEL 2
REMARK VINA RESULT:      -5.9      3.732      5.422
REMARK  6 active torsions:
REMARK  status: ('A' for Active; 'I' for Inactive)
REMARK    1  A    between atoms: C_8  and  C_9 
REMARK    2  A    between atoms: C_9  and  N_10 
REMARK    3  A    between atoms: N_10  and  C_11 
REMARK    4  A    between atoms: C_11  and  C_12 
REMARK    5  A    between atoms: C_12  and  N_13 
REMARK    6  A    between atoms: C_19  and  C_20 
ROOT
HETATM    1  C   UNL     1     -41.985 -49.126  12.102  1.00  0.00     0.289 C 
ENDROOT
BRANCH   1   2
HETATM    2  N   UNL     1     -42.317 -50.525  11.810  1.00  0.00     0.085 N 
HETATM    3  H   UNL     1     -42.989 -50.566  11.040  1.00  0.00     0.315 HD
BRANCH   2   4
HETATM    4  C   UNL     1     -42.880 -51.231  12.967  1.00  0.00     0.279 C 
BRANCH   4   5
HETATM    5  C   UNL     1     -43.296 -52.694  12.662  1.00  0.00     0.045 C 
HETATM    6  C   UNL     1     -44.839 -52.973  12.727  1.00  0.00    -0.009 C 
HETATM    7  C   UNL     1     -45.750 -51.742  12.910  1.00  0.00     0.011 C 
HETATM    8  C   UNL     1     -45.337 -54.097  13.652  1.00  0.00     0.009 C 
HETATM    9  C   UNL     1     -44.325 -54.953  14.397  1.00  0.00     0.028 C 
HETATM   10  C   UNL     1     -42.888 -54.686  14.139  1.00  0.00    -0.024 C 
HETATM   11  C   UNL     1     -42.403 -53.698  13.379  1.00  0.00    -0.081 C 
HETATM   12  C   UNL     1     -40.913 -53.555  13.196  1.00  0.00     0.043 C 
ENDBRANCH   4   5
ENDBRANCH   2   4
ENDBRANCH   1   2
BRANCH   1  13
HETATM   13  C   UNL     1     -43.175 -48.179  11.900  1.00  0.00     0.161 C 
BRANCH  13  14
HETATM   14  N   UNL     1     -43.202 -47.552  10.604  1.00  0.00    -0.329 N 
HETATM   15  C   UNL     1     -42.150 -46.832  10.107  1.00  0.00     0.201 A 
HETATM   16  N   UNL     1     -42.490 -46.290   8.967  1.00  0.00    -0.295 N 
HETATM   17  N   UNL     1     -43.787 -46.652   8.713  1.00  0.00    -0.288 N 
ATOM     18  HN  UNL     1     -41.898 -45.705   8.376  1.00  0.00     0.187 HD
HETATM   19  C   UNL     1     -44.221 -47.416   9.698  1.00  0.00     0.103 A 
ATOM     20  HN  UNL     1     -44.329 -46.375   7.894  1.00  0.00     0.188 HD
BRANCH  19  21
HETATM   21  C   UNL     1     -45.643 -47.965   9.630  1.00  0.00     0.055 A 
HETATM   22  C   UNL     1     -46.353 -48.347   8.355  1.00  0.00     0.013 A 
HETATM   23  C   UNL     1     -46.770 -47.118   9.086  1.00  0.00     0.013 A 
ENDBRANCH  19  21
ENDBRANCH  13  14
ENDBRANCH   1  13
TORSDOF 6
ENDMDL
MODEL 3
REMARK VINA RESULT:      -5.8      3.320      4.752
REMARK  6 active torsions:
REMARK  status: ('A' for Active; 'I' for Inactive)
REMARK    1  A    between atoms: C_8  and  C_9 
REMARK    2  A    between atoms: C_9  and  N_10 
REMARK    3  A    between atoms: N_10  and  C_11 
REMARK    4  A    between atoms: C_11  and  C_12 
REMARK    5  A    between atoms: C_12  and  N_13 
REMARK    6  A    between atoms: C_19  and  C_20 
ROOT
HETATM    1  C   UNL     1     -42.503 -49.277  12.842  1.00  0.00     0.289 C 
ENDROOT
BRANCH   1   2
HETATM    2  N   UNL     1     -43.865 -49.796  12.680  1.00  0.00     0.085 N 
HETATM    3  H   UNL     1     -44.535 -49.023  12.720  1.00  0.00     0.315 HD
BRANCH   2   4
HETATM    4  C   UNL     1     -44.224 -50.786  13.703  1.00  0.00     0.279 C 
BRANCH   4   5
HETATM    5  C   UNL     1     -44.962 -52.027  13.137  1.00  0.00     0.045 C 
HETATM    6  C   UNL     1     -46.345 -52.342  13.807  1.00  0.00    -0.009 C 
HETATM    7  C   UNL     1     -46.875 -51.296  14.808  1.00  0.00     0.011 C 
HETATM    8  C   UNL     1     -46.565 -53.746  14.398  1.00  0.00     0.009 C 
HETATM    9  C   UNL     1     -45.481 -54.801  14.236  1.00  0.00     0.028 C 
HETATM   10  C   UNL     1     -44.278 -54.425  13.454  1.00  0.00    -0.024 C 
HETATM   11  C   UNL     1     -44.019 -53.211  12.955  1.00  0.00    -0.081 C 
HETATM   12  C   UNL     1     -42.757 -52.977  12.165  1.00  0.00     0.043 C 
ENDBRANCH   4   5
ENDBRANCH   2   4
ENDBRANCH   1   2
BRANCH   1  13
HETATM   13  C   UNL     1     -41.652 -49.437  11.576  1.00  0.00     0.161 C 
BRANCH  13  14
HETATM   14  N   UNL     1     -41.321 -48.188  10.941  1.00  0.00    -0.329 N 
HETATM   15  C   UNL     1     -40.205 -47.465  11.265  1.00  0.00     0.201 A 
HETATM   16  N   UNL     1     -40.215 -46.330  10.615  1.00  0.00    -0.295 N 
HETATM   17  N   UNL     1     -41.357 -46.301   9.859  1.00  0.00    -0.288 N 
ATOM     18  HN  UNL     1     -39.503 -45.601  10.664  1.00  0.00     0.187 HD
HETATM   19  C   UNL     1     -42.028 -47.422  10.051  1.00  0.00     0.103 A 
ATOM     20  HN  UNL     1     -41.642 -45.537   9.246  1.00  0.00     0.188 HD
BRANCH  19  21
HETATM   21  C   UNL     1     -43.336 -47.634   9.294  1.00  0.00     0.055 A 
HETATM   22  C   UNL     1     -44.278 -46.528   8.887  1.00  0.00     0.013 A 
HETATM   23  C   UNL     1     -44.666 -47.453   9.988  1.00  0.00     0.013 A 
ENDBRANCH  19  21
ENDBRANCH  13  14
ENDBRANCH   1  13
TORSDOF 6
ENDMDL
MODEL 4
REMARK VINA RESULT:      -5.7      2.443      4.122
REMARK  6 active torsions:
REMARK  status: ('A' for Active; 'I' for Inactive)
REMARK    1  A    between atoms: C_8  and  C_9 
REMARK    2  A    between atoms: C_9  and  N_10 
REMARK    3  A    between atoms: N_10  and  C_11 
REMARK    4  A    between atoms: C_11  and  C_12 
REMARK    5  A    between atoms: C_12  and  N_13 
REMARK    6  A    between atoms: C_19  and  C_20 
ROOT
HETATM    1  C   UNL     1     -41.760 -48.910  14.314  1.00  0.00     0.289 C 
ENDROOT
BRANCH   1   2
HETATM    2  N   UNL     1     -43.136 -49.311  14.003  1.00  0.00     0.085 N 
HETATM    3  H   UNL     1     -43.792 -48.659  14.440  1.00  0.00     0.315 HD
BRANCH   2   4
HETATM    4  C   UNL     1     -43.450 -50.672  14.456  1.00  0.00     0.279 C 
BRANCH   4   5
HETATM    5  C   UNL     1     -44.269 -51.497  13.429  1.00  0.00     0.045 C 
HETATM    6  C   UNL     1     -45.730 -51.853  13.876  1.00  0.00    -0.009 C 
HETATM    7  C   UNL     1     -46.224 -51.201  15.183  1.00  0.00     0.011 C 
HETATM    8  C   UNL     1     -46.152 -53.333  13.872  1.00  0.00     0.009 C 
HETATM    9  C   UNL     1     -45.181 -54.384  13.356  1.00  0.00     0.028 C 
HETATM   10  C   UNL     1     -43.883 -53.905  12.822  1.00  0.00    -0.024 C 
HETATM   11  C   UNL     1     -43.451 -52.639  12.840  1.00  0.00    -0.081 C 
HETATM   12  C   UNL     1     -42.108 -52.296  12.246  1.00  0.00     0.043 C 
ENDBRANCH   4   5
ENDBRANCH   2   4
ENDBRANCH   1   2
BRANCH   1  13
HETATM   13  C   UNL     1     -41.143 -48.016  13.231  1.00  0.00     0.161 C 
BRANCH  13  14
HETATM   14  N   UNL     1     -40.583 -48.750  12.125  1.00  0.00    -0.329 N 
HETATM   15  C   UNL     1     -41.256 -48.947  10.951  1.00  0.00     0.201 A 
HETATM   16  N   UNL     1     -40.559 -49.735  10.173  1.00  0.00    -0.295 N 
HETATM   17  N   UNL     1     -39.415 -50.068  10.850  1.00  0.00    -0.288 N 
ATOM     18  HN  UNL     1     -40.820 -50.044   9.237  1.00  0.00     0.187 HD
HETATM   19  C   UNL     1     -39.424 -49.474  12.029  1.00  0.00     0.103 A 
ATOM     20  HN  UNL     1     -38.675 -50.676  10.499  1.00  0.00     0.188 HD
BRANCH  19  21
HETATM   21  C   UNL     1     -38.235 -49.679  12.964  1.00  0.00     0.055 A 
HETATM   22  C   UNL     1     -37.387 -50.927  13.009  1.00  0.00     0.013 A 
HETATM   23  C   UNL     1     -38.327 -50.638  14.128  1.00  0.00     0.013 A 
ENDBRANCH  19  21
ENDBRANCH  13  14
ENDBRANCH   1  13
TORSDOF 6
ENDMDL
MODEL 5
REMARK VINA RESULT:      -5.6      2.575      3.958
REMARK  6 active torsions:
REMARK  status: ('A' for Active; 'I' for Inactive)
REMARK    1  A    between atoms: C_8  and  C_9 
REMARK    2  A    between atoms: C_9  and  N_10 
REMARK    3  A    between atoms: N_10  and  C_11 
REMARK    4  A    between atoms: C_11  and  C_12 
REMARK    5  A    between atoms: C_12  and  N_13 
REMARK    6  A    between atoms: C_19  and  C_20 
ROOT
HETATM    1  C   UNL     1     -41.242 -52.167  11.877  1.00  0.00     0.289 C 
ENDROOT
BRANCH   1   2
HETATM    2  N   UNL     1     -42.647 -52.561  11.718  1.00  0.00     0.085 N 
HETATM    3  H   UNL     1     -43.039 -52.109  10.888  1.00  0.00     0.315 HD
BRANCH   2   4
HETATM    4  C   UNL     1     -43.472 -52.212  12.881  1.00  0.00     0.279 C 
BRANCH   4   5
HETATM    5  C   UNL     1     -44.433 -53.346  13.324  1.00  0.00     0.045 C 
HETATM    6  C   UNL     1     -45.956 -52.965  13.322  1.00  0.00    -0.009 C 
HETATM    7  C   UNL     1     -46.317 -51.591  12.722  1.00  0.00     0.011 C 
HETATM    8  C   UNL     1     -46.757 -53.163  14.621  1.00  0.00     0.009 C 
HETATM    9  C   UNL     1     -46.080 -53.797  15.826  1.00  0.00     0.028 C 
HETATM   10  C   UNL     1     -44.677 -54.250  15.657  1.00  0.00    -0.024 C 
HETATM   11  C   UNL     1     -43.924 -54.066  14.566  1.00  0.00    -0.081 C 
HETATM   12  C   UNL     1     -42.512 -54.595  14.532  1.00  0.00     0.043 C 
ENDBRANCH   4   5
ENDBRANCH   2   4
ENDBRANCH   1   2
BRANCH   1  13
HETATM   13  C   UNL     1     -41.069 -50.935  12.775  1.00  0.00     0.161 C 
BRANCH  13  14
HETATM   14  N   UNL     1     -40.831 -49.717  12.045  1.00  0.00    -0.329 N 
HETATM   15  C   UNL     1     -41.830 -49.011  11.435  1.00  0.00     0.201 A 
HETATM   16  N   UNL     1     -41.316 -48.017  10.759  1.00  0.00    -0.295 N 
HETATM   17  N   UNL     1     -39.956 -48.073  10.921  1.00  0.00    -0.288 N 
ATOM     18  HN  UNL     1     -41.831 -47.327  10.212  1.00  0.00     0.187 HD
HETATM   19  C   UNL     1     -39.658 -49.098  11.699  1.00  0.00     0.103 A 
ATOM     20  HN  UNL     1     -39.283 -47.428  10.507  1.00  0.00     0.188 HD
BRANCH  19  21
HETATM   21  C   UNL     1     -38.194 -49.357  12.044  1.00  0.00     0.055 A 
HETATM   22  C   UNL     1     -37.189 -49.975  11.103  1.00  0.00     0.013 A 
HETATM   23  C   UNL     1     -37.691 -50.765  12.262  1.00  0.00     0.013 A 
ENDBRANCH  19  21
ENDBRANCH  13  14
ENDBRANCH   1  13
TORSDOF 6
ENDMDL
MODEL 6
REMARK VINA RESULT:      -5.5      2.005      3.127
REMARK  6 active torsions:
REMARK  status: ('A' for Active; 'I' for Inactive)
REMARK    1  A    between atoms: C_8  and  C_9 
REMARK    2  A    between atoms: C_9  and  N_10 
REMARK    3  A    between atoms: N_10  and  C_11 
REMARK    4  A    between atoms: C_11  and  C_12 
REMARK    5  A    between atoms: C_12  and  N_13 
REMARK    6  A    between atoms: C_19  and  C_20 
ROOT
HETATM    1  C   UNL     1     -43.272 -51.185  13.453  1.00  0.00     0.289 C 
ENDROOT
BRANCH   1   2
HETATM    2  N   UNL     1     -43.052 -52.597  13.122  1.00  0.00     0.085 N 
HETATM    3  H   UNL     1     -42.262 -52.681  12.478  1.00  0.00     0.315 HD
BRANCH   2   4
HETATM    4  C   UNL     1     -44.228 -53.230  12.513  1.00  0.00     0.279 C 
BRANCH   4   5
HETATM    5  C   UNL     1     -45.317 -53.640  13.539  1.00  0.00     0.045 C 
HETATM    6  C   UNL     1     -46.544 -52.666  13.631  1.00  0.00    -0.009 C 
HETATM    7  C   UNL     1     -46.602 -51.537  12.583  1.00  0.00     0.011 C 
HETATM    8  C   UNL     1     -46.909 -52.082  15.007  1.00  0.00     0.009 C 
HETATM    9  C   UNL     1     -46.134 -52.530  16.237  1.00  0.00     0.028 C 
HETATM   10  C   UNL     1     -45.091 -53.568  16.042  1.00  0.00    -0.024 C 
HETATM   11  C   UNL     1     -44.708 -54.077  14.865  1.00  0.00    -0.081 C 
HETATM   12  C   UNL     1     -43.639 -55.140  14.821  1.00  0.00     0.043 C 
ENDBRANCH   4   5
ENDBRANCH   2   4
ENDBRANCH   1   2
BRANCH   1  13
HETATM   13  C   UNL     1     -41.973 -50.369  13.463  1.00  0.00     0.161 C 
BRANCH  13  14
HETATM   14  N   UNL     1     -41.523 -49.981  12.151  1.00  0.00    -0.329 N 
HETATM   15  C   UNL     1     -40.450 -50.562  11.533  1.00  0.00     0.201 A 
HETATM   16  N   UNL     1     -40.204 -49.943  10.407  1.00  0.00    -0.295 N 
HETATM   17  N   UNL     1     -41.124 -48.935  10.286  1.00  0.00    -0.288 N 
ATOM     18  HN  UNL     1     -39.464 -50.170   9.743  1.00  0.00     0.187 HD
HETATM   19  C   UNL     1     -41.925 -48.955  11.337  1.00  0.00     0.103 A 
ATOM     20  HN  UNL     1     -41.181 -48.276   9.510  1.00  0.00     0.188 HD
BRANCH  19  21
HETATM   21  C   UNL     1     -43.053 -47.930  11.419  1.00  0.00     0.055 A 
HETATM   22  C   UNL     1     -42.943 -46.497  10.961  1.00  0.00     0.013 A 
HETATM   23  C   UNL     1     -42.994 -46.799  12.419  1.00  0.00     0.013 A 
ENDBRANCH  19  21
ENDBRANCH  13  14
ENDBRANCH   1  13
TORSDOF 6
ENDMDL
MODEL 7
REMARK VINA RESULT:      -5.5      3.806      5.552
REMARK  6 active torsions:
REMARK  status: ('A' for Active; 'I' for Inactive)
REMARK    1  A    between atoms: C_8  and  C_9 
REMARK    2  A    between atoms: C_9  and  N_10 
REMARK    3  A    between atoms: N_10  and  C_11 
REMARK    4  A    between atoms: C_11  and  C_12 
REMARK    5  A    between atoms: C_12  and  N_13 
REMARK    6  A    between atoms: C_19  and  C_20 
ROOT
HETATM    1  C   UNL     1     -41.810 -49.326  12.063  1.00  0.00     0.289 C 
ENDROOT
BRANCH   1   2
HETATM    2  N   UNL     1     -42.114 -50.736  11.793  1.00  0.00     0.085 N 
HETATM    3  H   UNL     1     -42.709 -50.807  10.964  1.00  0.00     0.315 HD
BRANCH   2   4
HETATM    4  C   UNL     1     -42.786 -51.399  12.917  1.00  0.00     0.279 C 
BRANCH   4   5
HETATM    5  C   UNL     1     -42.909 -52.937  12.749  1.00  0.00     0.045 C 
HETATM    6  C   UNL     1     -44.378 -53.480  12.652  1.00  0.00    -0.009 C 
HETATM    7  C   UNL     1     -45.495 -52.420  12.559  1.00  0.00     0.011 C 
HETATM    8  C   UNL     1     -44.816 -54.574  13.640  1.00  0.00     0.009 C 
HETATM    9  C   UNL     1     -43.798 -55.153  14.611  1.00  0.00     0.028 C 
HETATM   10  C   UNL     1     -42.403 -54.661  14.506  1.00  0.00    -0.024 C 
HETATM   11  C   UNL     1     -41.979 -53.685  13.695  1.00  0.00    -0.081 C 
HETATM   12  C   UNL     1     -40.522 -53.297  13.686  1.00  0.00     0.043 C 
ENDBRANCH   4   5
ENDBRANCH   2   4
ENDBRANCH   1   2
BRANCH   1  13
HETATM   13  C   UNL     1     -41.483 -48.536  10.789  1.00  0.00     0.161 C 
BRANCH  13  14
HETATM   14  N   UNL     1     -42.300 -47.363  10.612  1.00  0.00    -0.329 N 
HETATM   15  C   UNL     1     -43.579 -47.417  10.131  1.00  0.00     0.201 A 
HETATM   16  N   UNL     1     -44.039 -46.203   9.971  1.00  0.00    -0.295 N 
HETATM   17  N   UNL     1     -43.045 -45.337  10.344  1.00  0.00    -0.288 N 
ATOM     18  HN  UNL     1     -44.966 -45.948   9.631  1.00  0.00     0.187 HD
HETATM   19  C   UNL     1     -41.992 -46.033  10.734  1.00  0.00     0.103 A 
ATOM     20  HN  UNL     1     -43.108 -44.319  10.324  1.00  0.00     0.188 HD
BRANCH  19  21
HETATM   21  C   UNL     1     -40.755 -45.283  11.219  1.00  0.00     0.055 A 
HETATM   22  C   UNL     1     -40.390 -43.877  10.810  1.00  0.00     0.013 A 
HETATM   23  C   UNL     1     -39.596 -45.023  10.285  1.00  0.00     0.013 A 
ENDBRANCH  19  21
ENDBRANCH  13  14
ENDBRANCH   1  13
TORSDOF 6
ENDMDL
MODEL 8
REMARK VINA RESULT:      -5.5      1.623      2.874
REMARK  6 active torsions:
REMARK  status: ('A' for Active; 'I' for Inactive)
REMARK    1  A    between atoms: C_8  and  C_9 
REMARK    2  A    between atoms: C_9  and  N_10 
REMARK    3  A    between atoms: N_10  and  C_11 
REMARK    4  A    between atoms: C_11  and  C_12 
REMARK    5  A    between atoms: C_12  and  N_13 
REMARK    6  A    between atoms: C_19  and  C_20 
ROOT
HETATM    1  C   UNL     1     -40.555 -50.365  15.139  1.00  0.00     0.289 C 
ENDROOT
BRANCH   1   2
HETATM    2  N   UNL     1     -41.523 -50.960  16.068  1.00  0.00     0.085 N 
HETATM    3  H   UNL     1     -41.531 -51.977  15.952  1.00  0.00     0.315 HD
BRANCH   2   4
HETATM    4  C   UNL     1     -42.886 -50.451  15.874  1.00  0.00     0.279 C 
BRANCH   4   5
HETATM    5  C   UNL     1     -43.876 -51.514  15.330  1.00  0.00     0.045 C 
HETATM    6  C   UNL     1     -44.338 -51.295  13.847  1.00  0.00    -0.009 C 
HETATM    7  C   UNL     1     -43.628 -50.169  13.068  1.00  0.00     0.011 C 
HETATM    8  C   UNL     1     -45.848 -51.219  13.558  1.00  0.00     0.009 C 
HETATM    9  C   UNL     1     -46.836 -51.445  14.692  1.00  0.00     0.028 C 
HETATM   10  C   UNL     1     -46.276 -51.791  16.022  1.00  0.00    -0.024 C 
HETATM   11  C   UNL     1     -44.976 -51.830  16.336  1.00  0.00    -0.081 C 
HETATM   12  C   UNL     1     -44.552 -52.212  17.731  1.00  0.00     0.043 C 
ENDBRANCH   4   5
ENDBRANCH   2   4
ENDBRANCH   1   2
BRANCH   1  13
HETATM   13  C   UNL     1     -39.734 -51.418  14.383  1.00  0.00     0.161 C 
BRANCH  13  14
HETATM   14  N   UNL     1     -40.223 -51.687  13.055  1.00  0.00    -0.329 N 
HETATM   15  C   UNL     1     -40.195 -50.756  12.053  1.00  0.00     0.201 A 
HETATM   16  N   UNL     1     -40.799 -51.233  10.995  1.00  0.00    -0.295 N 
HETATM   17  N   UNL     1     -41.238 -52.492  11.308  1.00  0.00    -0.288 N 
ATOM     18  HN  UNL     1     -40.920 -50.754  10.102  1.00  0.00     0.187 HD
HETATM   19  C   UNL     1     -40.891 -52.772  12.551  1.00  0.00     0.103 A 
ATOM     20  HN  UNL     1     -41.750 -53.113  10.682  1.00  0.00     0.188 HD
BRANCH  19  21
HETATM   21  C   UNL     1     -41.255 -54.138  13.125  1.00  0.00     0.055 A 
HETATM   22  C   UNL     1     -42.573 -54.467  13.782  1.00  0.00     0.013 A 
HETATM   23  C   UNL     1     -41.347 -54.347  14.619  1.00  0.00     0.013 A 
ENDBRANCH  19  21
ENDBRANCH  13  14
ENDBRANCH   1  13
TORSDOF 6
ENDMDL
MODEL 9
REMARK VINA RESULT:      -5.5      2.072      2.485
REMARK  6 active torsions:
REMARK  status: ('A' for Active; 'I' for Inactive)
REMARK    1  A    between atoms: C_8  and  C_9 
REMARK    2  A    between atoms: C_9  and  N_10 
REMARK    3  A    between atoms: N_10  and  C_11 
REMARK    4  A    between atoms: C_11  and  C_12 
REMARK    5  A    between atoms: C_12  and  N_13 
REMARK    6  A    between atoms: C_19  and  C_20 
ROOT
HETATM    1  C   UNL     1     -41.488 -50.977  14.504  1.00  0.00     0.289 C 
ENDROOT
BRANCH   1   2
HETATM    2  N   UNL     1     -42.915 -50.962  14.844  1.00  0.00     0.085 N 
HETATM    3  H   UNL     1     -43.110 -50.180  15.474  1.00  0.00     0.315 HD
BRANCH   2   4
HETATM    4  C   UNL     1     -43.362 -52.206  15.482  1.00  0.00     0.279 C 
BRANCH   4   5
HETATM    5  C   UNL     1     -44.729 -52.718  14.958  1.00  0.00     0.045 C 
HETATM    6  C   UNL     1     -44.665 -53.527  13.615  1.00  0.00    -0.009 C 
HETATM    7  C   UNL     1     -43.257 -53.860  13.082  1.00  0.00     0.011 C 
HETATM    8  C   UNL     1     -45.539 -53.056  12.439  1.00  0.00     0.009 C 
HETATM    9  C   UNL     1     -46.494 -51.889  12.640  1.00  0.00     0.028 C 
HETATM   10  C   UNL     1     -46.570 -51.300  14.000  1.00  0.00    -0.024 C 
HETATM   11  C   UNL     1     -45.806 -51.644  15.043  1.00  0.00    -0.081 C 
HETATM   12  C   UNL     1     -46.005 -50.966  16.375  1.00  0.00     0.043 C 
ENDBRANCH   4   5
ENDBRANCH   2   4
ENDBRANCH   1   2
BRANCH   1  13
HETATM   13  C   UNL     1     -41.009 -49.652  13.896  1.00  0.00     0.161 C 
BRANCH  13  14
HETATM   14  N   UNL     1     -40.958 -49.662  12.457  1.00  0.00    -0.329 N 
HETATM   15  C   UNL     1     -39.954 -50.271  11.755  1.00  0.00     0.201 A 
HETATM   16  N   UNL     1     -40.102 -50.030  10.478  1.00  0.00    -0.295 N 
HETATM   17  N   UNL     1     -41.215 -49.243  10.338  1.00  0.00    -0.288 N 
ATOM     18  HN  UNL     1     -39.500 -50.365   9.727  1.00  0.00     0.187 HD
HETATM   19  C   UNL     1     -41.737 -49.019  11.531  1.00  0.00     0.103 A 
ATOM     20  HN  UNL     1     -41.582 -48.887   9.455  1.00  0.00     0.188 HD
BRANCH  19  21
HETATM   21  C   UNL     1     -43.006 -48.177  11.631  1.00  0.00     0.055 A 
HETATM   22  C   UNL     1     -43.314 -46.986  10.758  1.00  0.00     0.013 A 
HETATM   23  C   UNL     1     -42.957 -46.773  12.188  1.00  0.00     0.013 A 
ENDBRANCH  19  21
ENDBRANCH  13  14
ENDBRANCH   1  13
TORSDOF 6
ENDMDL
