MODEL 1
REMARK VINA RESULT:      -5.2      0.000      0.000
REMARK  2 active torsions:
REMARK  status: ('A' for Active; 'I' for Inactive)
REMARK    1  A    between atoms: C_1  and  C_2 
REMARK    2  A    between atoms: C_2  and  O_10 
ROOT
HETATM    1  C   UNL     1     -43.095 -47.412   9.499  1.00  0.00     0.129 C 
HETATM    2  N   UNL     1     -41.014 -46.584  10.264  1.00  0.00     0.086 N 
HETATM    3  C   UNL     1     -42.744 -48.175  10.779  1.00  0.00     0.076 C 
HETATM    4  C   UNL     1     -42.262 -46.130   9.629  1.00  0.00     0.313 C 
HETATM    5  C   UNL     1     -41.402 -47.601  11.236  1.00  0.00     0.273 C 
HETATM    6  H   UNL     1     -40.520 -45.811  10.705  1.00  0.00     0.316 HD
ENDROOT
BRANCH   1   7
HETATM    7  C   UNL     1     -44.552 -47.168   9.300  1.00  0.00     0.063 A 
HETATM    8  N   UNL     1     -45.013 -45.946   8.887  1.00  0.00    -0.302 N 
HETATM    9  N   UNL     1     -46.345 -45.898   8.718  1.00  0.00    -0.312 N 
HETATM   10  H   UNL     1     -44.457 -45.122   8.671  1.00  0.00     0.186 HD
HETATM   11  C   UNL     1     -46.750 -47.121   9.059  1.00  0.00     0.109 A 
ATOM     12  HN  UNL     1     -46.912 -45.111   8.403  1.00  0.00     0.186 HD
HETATM   13  C   UNL     1     -45.680 -47.948   9.447  1.00  0.00     0.048 A 
ENDBRANCH   1   7
BRANCH   1  14
HETATM   14  O   UNL     1     -42.670 -48.146   8.344  1.00  0.00    -0.382 OA
HETATM   15  H   UNL     1     -43.006 -49.052   8.435  1.00  0.00     0.211 HD
ENDBRANCH   1  14
TORSDOF 2
ENDMDL
MODEL 2
REMARK VINA RESULT:      -5.2      6.960      8.180
REMARK  2 active torsions:
REMARK  status: ('A' for Active; 'I' for Inactive)
REMARK    1  A    between atoms: C_1  and  C_2 
REMARK    2  A    between atoms: C_2  and  O_10 
ROOT
HETATM    1  C   UNL     1     -44.622 -53.350  13.103  1.00  0.00     0.129 C 
HETATM    2  N   UNL     1     -46.369 -54.489  14.220  1.00  0.00     0.086 N 
HETATM    3  C   UNL     1     -45.010 -52.507  14.320  1.00  0.00     0.076 C 
HETATM    4  C   UNL     1     -45.121 -54.750  13.487  1.00  0.00     0.313 C 
HETATM    5  C   UNL     1     -46.132 -53.285  15.009  1.00  0.00     0.273 C 
HETATM    6  H   UNL     1     -46.626 -55.280  14.808  1.00  0.00     0.316 HD
ENDROOT
BRANCH   1   7
HETATM    7  C   UNL     1     -43.176 -53.301  12.747  1.00  0.00     0.063 A 
HETATM    8  N   UNL     1     -42.748 -52.650  11.620  1.00  0.00    -0.302 N 
HETATM    9  N   UNL     1     -41.414 -52.663  11.459  1.00  0.00    -0.312 N 
HETATM   10  H   UNL     1     -43.323 -52.147  10.948  1.00  0.00     0.186 HD
HETATM   11  C   UNL     1     -40.978 -53.370  12.502  1.00  0.00     0.109 A 
ATOM     12  HN  UNL     1     -40.865 -52.235  10.713  1.00  0.00     0.186 HD
HETATM   13  C   UNL     1     -42.031 -53.808  13.327  1.00  0.00     0.048 A 
ENDBRANCH   1   7
BRANCH   1  14
HETATM   14  O   UNL     1     -45.317 -52.897  11.934  1.00  0.00    -0.382 OA
HETATM   15  H   UNL     1     -45.201 -51.934  11.882  1.00  0.00     0.211 HD
ENDBRANCH   1  14
TORSDOF 2
ENDMDL
MODEL 3
REMARK VINA RESULT:      -5.1      1.747      4.309
REMARK  2 active torsions:
REMARK  status: ('A' for Active; 'I' for Inactive)
REMARK    1  A    between atoms: C_1  and  C_2 
REMARK    2  A    between atoms: C_2  and  O_10 
ROOT
HETATM    1  C   UNL     1     -43.537 -47.107   8.983  1.00  0.00     0.129 C 
HETATM    2  N   UNL     1     -44.962 -48.172   7.423  1.00  0.00     0.086 N 
HETATM    3  C   UNL     1     -44.854 -47.410   9.701  1.00  0.00     0.076 C 
HETATM    4  C   UNL     1     -43.547 -48.109   7.820  1.00  0.00     0.313 C 
HETATM    5  C   UNL     1     -45.734 -48.101   8.659  1.00  0.00     0.273 C 
HETATM    6  H   UNL     1     -45.163 -49.023   6.902  1.00  0.00     0.316 HD
ENDROOT
BRANCH   1   7
HETATM    7  C   UNL     1     -42.324 -47.192   9.844  1.00  0.00     0.063 A 
HETATM    8  N   UNL     1     -41.644 -48.372   9.991  1.00  0.00    -0.302 N 
HETATM    9  N   UNL     1     -40.553 -48.276  10.769  1.00  0.00    -0.312 N 
HETATM   10  H   UNL     1     -41.862 -49.263   9.552  1.00  0.00     0.186 HD
HETATM   11  C   UNL     1     -40.551 -46.999  11.152  1.00  0.00     0.109 A 
ATOM     12  HN  UNL     1     -39.883 -49.007  11.009  1.00  0.00     0.186 HD
HETATM   13  C   UNL     1     -41.639 -46.281  10.623  1.00  0.00     0.048 A 
ENDBRANCH   1   7
BRANCH   1  14
HETATM   14  O   UNL     1     -43.543 -45.770   8.465  1.00  0.00    -0.382 OA
HETATM   15  H   UNL     1     -44.441 -45.587   8.144  1.00  0.00     0.211 HD
ENDBRANCH   1  14
TORSDOF 2
ENDMDL
MODEL 4
REMARK VINA RESULT:      -4.9      6.917      8.238
REMARK  2 active torsions:
REMARK  status: ('A' for Active; 'I' for Inactive)
REMARK    1  A    between atoms: C_1  and  C_2 
REMARK    2  A    between atoms: C_2  and  O_10 
ROOT
HETATM    1  C   UNL     1     -44.038 -53.360  13.700  1.00  0.00     0.129 C 
HETATM    2  N   UNL     1     -46.364 -53.747  13.503  1.00  0.00     0.086 N 
HETATM    3  C   UNL     1     -44.308 -54.778  14.209  1.00  0.00     0.076 C 
HETATM    4  C   UNL     1     -45.252 -53.085  12.803  1.00  0.00     0.313 C 
HETATM    5  C   UNL     1     -45.816 -54.982  14.055  1.00  0.00     0.273 C 
HETATM    6  H   UNL     1     -47.142 -53.930  12.873  1.00  0.00     0.316 HD
ENDROOT
BRANCH   1   7
HETATM    7  C   UNL     1     -42.727 -53.185  13.013  1.00  0.00     0.063 A 
HETATM    8  N   UNL     1     -42.656 -52.663  11.749  1.00  0.00    -0.302 N 
HETATM    9  N   UNL     1     -41.402 -52.534  11.284  1.00  0.00    -0.312 N 
HETATM   10  H   UNL     1     -43.432 -52.342  11.175  1.00  0.00     0.186 HD
HETATM   11  C   UNL     1     -40.649 -53.016  12.273  1.00  0.00     0.109 A 
ATOM     12  HN  UNL     1     -41.098 -52.158  10.386  1.00  0.00     0.186 HD
HETATM   13  C   UNL     1     -41.420 -53.453  13.366  1.00  0.00     0.048 A 
ENDBRANCH   1   7
BRANCH   1  14
HETATM   14  O   UNL     1     -44.024 -52.429  14.789  1.00  0.00    -0.382 OA
HETATM   15  H   UNL     1     -44.089 -52.941  15.611  1.00  0.00     0.211 HD
ENDBRANCH   1  14
TORSDOF 2
ENDMDL
MODEL 5
REMARK VINA RESULT:      -4.8      6.866      7.346
REMARK  2 active torsions:
REMARK  status: ('A' for Active; 'I' for Inactive)
REMARK    1  A    between atoms: C_1  and  C_2 
REMARK    2  A    between atoms: C_2  and  O_10 
ROOT
HETATM    1  C   UNL     1     -40.887 -53.224  12.844  1.00  0.00     0.129 C 
HETATM    2  N   UNL     1     -38.980 -52.059  13.623  1.00  0.00     0.086 N 
HETATM    3  C   UNL     1     -40.141 -54.158  13.799  1.00  0.00     0.076 C 
HETATM    4  C   UNL     1     -40.391 -51.836  13.273  1.00  0.00     0.313 C 
HETATM    5  C   UNL     1     -38.928 -53.362  14.279  1.00  0.00     0.273 C 
HETATM    6  H   UNL     1     -38.627 -51.319  14.227  1.00  0.00     0.316 HD
ENDROOT
BRANCH   1   7
HETATM    7  C   UNL     1     -42.370 -53.368  12.863  1.00  0.00     0.063 A 
HETATM    8  N   UNL     1     -43.162 -52.635  12.018  1.00  0.00    -0.302 N 
HETATM    9  N   UNL     1     -44.473 -52.907  12.132  1.00  0.00    -0.312 N 
HETATM   10  H   UNL     1     -42.854 -51.964  11.319  1.00  0.00     0.186 HD
HETATM   11  C   UNL     1     -44.522 -53.824  13.099  1.00  0.00     0.109 A 
ATOM     12  HN  UNL     1     -45.248 -52.506  11.603  1.00  0.00     0.186 HD
HETATM   13  C   UNL     1     -43.246 -54.135  13.603  1.00  0.00     0.048 A 
ENDBRANCH   1   7
BRANCH   1  14
HETATM   14  O   UNL     1     -40.497 -53.475  11.488  1.00  0.00    -0.382 OA
HETATM   15  H   UNL     1     -39.901 -54.241  11.494  1.00  0.00     0.211 HD
ENDBRANCH   1  14
TORSDOF 2
ENDMDL
MODEL 6
REMARK VINA RESULT:      -4.7      1.447      4.457
REMARK  2 active torsions:
REMARK  status: ('A' for Active; 'I' for Inactive)
REMARK    1  A    between atoms: C_1  and  C_2 
REMARK    2  A    between atoms: C_2  and  O_10 
ROOT
HETATM    1  C   UNL     1     -42.969 -47.366   9.456  1.00  0.00     0.129 C 
HETATM    2  N   UNL     1     -45.260 -46.783   9.359  1.00  0.00     0.086 N 
HETATM    3  C   UNL     1     -43.045 -45.883   9.090  1.00  0.00     0.076 C 
HETATM    4  C   UNL     1     -44.325 -47.621  10.127  1.00  0.00     0.313 C 
HETATM    5  C   UNL     1     -44.538 -45.554   9.047  1.00  0.00     0.273 C 
HETATM    6  H   UNL     1     -46.110 -46.597   9.887  1.00  0.00     0.316 HD
ENDROOT
BRANCH   1   7
HETATM    7  C   UNL     1     -41.798 -47.740  10.300  1.00  0.00     0.063 A 
HETATM    8  N   UNL     1     -41.258 -48.997  10.241  1.00  0.00    -0.302 N 
HETATM    9  N   UNL     1     -40.186 -49.165  11.033  1.00  0.00    -0.312 N 
HETATM   10  H   UNL     1     -41.560 -49.767   9.648  1.00  0.00     0.186 HD
HETATM   11  C   UNL     1     -40.053 -47.984  11.638  1.00  0.00     0.109 A 
ATOM     12  HN  UNL     1     -39.609 -49.999  11.146  1.00  0.00     0.186 HD
HETATM   13  C   UNL     1     -41.040 -47.065  11.235  1.00  0.00     0.048 A 
ENDBRANCH   1   7
BRANCH   1  14
HETATM   14  O   UNL     1     -42.859 -48.171   8.275  1.00  0.00    -0.382 OA
HETATM   15  H   UNL     1     -41.920 -48.198   8.028  1.00  0.00     0.211 HD
ENDBRANCH   1  14
TORSDOF 2
ENDMDL
MODEL 7
REMARK VINA RESULT:      -4.6      1.620      4.374
REMARK  2 active torsions:
REMARK  status: ('A' for Active; 'I' for Inactive)
REMARK    1  A    between atoms: C_1  and  C_2 
REMARK    2  A    between atoms: C_2  and  O_10 
ROOT
HETATM    1  C   UNL     1     -42.677 -47.088   9.828  1.00  0.00     0.129 C 
HETATM    2  N   UNL     1     -44.810 -48.095  10.014  1.00  0.00     0.086 N 
HETATM    3  C   UNL     1     -43.496 -46.647   8.613  1.00  0.00     0.076 C 
HETATM    4  C   UNL     1     -43.759 -47.483  10.842  1.00  0.00     0.313 C 
HETATM    5  C   UNL     1     -44.861 -47.314   8.782  1.00  0.00     0.273 C 
HETATM    6  H   UNL     1     -45.707 -48.098  10.495  1.00  0.00     0.316 HD
ENDROOT
BRANCH   1   7
HETATM    7  C   UNL     1     -41.717 -46.068  10.335  1.00  0.00     0.063 A 
HETATM    8  N   UNL     1     -40.364 -46.259  10.233  1.00  0.00    -0.302 N 
HETATM    9  N   UNL     1     -39.634 -45.233  10.702  1.00  0.00    -0.312 N 
HETATM   10  H   UNL     1     -39.887 -47.056   9.817  1.00  0.00     0.186 HD
HETATM   11  C   UNL     1     -40.550 -44.370  11.143  1.00  0.00     0.109 A 
ATOM     12  HN  UNL     1     -38.619 -45.137  10.718  1.00  0.00     0.186 HD
HETATM   13  C   UNL     1     -41.862 -44.845  10.958  1.00  0.00     0.048 A 
ENDBRANCH   1   7
BRANCH   1  14
HETATM   14  O   UNL     1     -41.879 -48.235   9.507  1.00  0.00    -0.382 OA
HETATM   15  H   UNL     1     -42.198 -48.973  10.051  1.00  0.00     0.211 HD
ENDBRANCH   1  14
TORSDOF 2
ENDMDL
MODEL 8
REMARK VINA RESULT:      -4.5      5.122      6.637
REMARK  2 active torsions:
REMARK  status: ('A' for Active; 'I' for Inactive)
REMARK    1  A    between atoms: C_1  and  C_2 
REMARK    2  A    between atoms: C_2  and  O_10 
ROOT
HETATM    1  C   UNL     1     -42.129 -52.357  12.691  1.00  0.00     0.129 C 
HETATM    2  N   UNL     1     -41.584 -54.312  13.907  1.00  0.00     0.086 N 
HETATM    3  C   UNL     1     -42.643 -52.163  14.120  1.00  0.00     0.076 C 
HETATM    4  C   UNL     1     -41.042 -53.427  12.865  1.00  0.00     0.313 C 
HETATM    5  C   UNL     1     -42.262 -53.444  14.864  1.00  0.00     0.273 C 
HETATM    6  H   UNL     1     -40.847 -54.857  14.351  1.00  0.00     0.316 HD
ENDROOT
BRANCH   1   7
HETATM    7  C   UNL     1     -41.650 -51.112  12.027  1.00  0.00     0.063 A 
HETATM    8  N   UNL     1     -40.768 -51.164  10.980  1.00  0.00    -0.302 N 
HETATM    9  N   UNL     1     -40.463 -49.960  10.467  1.00  0.00    -0.312 N 
HETATM   10  H   UNL     1     -40.374 -51.998  10.553  1.00  0.00     0.186 HD
HETATM   11  C   UNL     1     -41.151 -49.110  11.229  1.00  0.00     0.109 A 
ATOM     12  HN  UNL     1     -39.850 -49.747   9.681  1.00  0.00     0.186 HD
HETATM   13  C   UNL     1     -41.893 -49.768  12.228  1.00  0.00     0.048 A 
ENDBRANCH   1   7
BRANCH   1  14
HETATM   14  O   UNL     1     -43.170 -52.863  11.846  1.00  0.00    -0.382 OA
HETATM   15  H   UNL     1     -43.762 -53.396  12.401  1.00  0.00     0.211 HD
ENDBRANCH   1  14
TORSDOF 2
ENDMDL
MODEL 9
REMARK VINA RESULT:      -4.5      5.780      6.493
REMARK  2 active torsions:
REMARK  status: ('A' for Active; 'I' for Inactive)
REMARK    1  A    between atoms: C_1  and  C_2 
REMARK    2  A    between atoms: C_2  and  O_10 
ROOT
HETATM    1  C   UNL     1     -39.182 -49.962  12.279  1.00  0.00     0.129 C 
HETATM    2  N   UNL     1     -38.884 -47.787  13.159  1.00  0.00     0.086 N 
HETATM    3  C   UNL     1     -37.954 -50.005  13.191  1.00  0.00     0.076 C 
HETATM    4  C   UNL     1     -39.947 -48.737  12.796  1.00  0.00     0.313 C 
HETATM    5  C   UNL     1     -37.808 -48.585  13.739  1.00  0.00     0.273 C 
HETATM    6  H   UNL     1     -39.223 -47.082  13.811  1.00  0.00     0.316 HD
ENDROOT
BRANCH   1   7
HETATM    7  C   UNL     1     -39.988 -51.215  12.262  1.00  0.00     0.063 A 
HETATM    8  N   UNL     1     -40.802 -51.517  11.201  1.00  0.00    -0.302 N 
HETATM    9  N   UNL     1     -41.433 -52.697  11.320  1.00  0.00    -0.312 N 
HETATM   10  H   UNL     1     -40.934 -50.969  10.355  1.00  0.00     0.186 HD
HETATM   11  C   UNL     1     -41.030 -53.152  12.507  1.00  0.00     0.109 A 
ATOM     12  HN  UNL     1     -42.070 -53.141  10.659  1.00  0.00     0.186 HD
HETATM   13  C   UNL     1     -40.146 -52.263  13.146  1.00  0.00     0.048 A 
ENDBRANCH   1   7
BRANCH   1  14
HETATM   14  O   UNL     1     -38.789 -49.744  10.917  1.00  0.00    -0.382 OA
HETATM   15  H   UNL     1     -38.389 -48.861  10.868  1.00  0.00     0.211 HD
ENDBRANCH   1  14
TORSDOF 2
ENDMDL
