MODEL 1
REMARK VINA RESULT:      -5.5      0.000      0.000
REMARK  4 active torsions:
REMARK  status: ('A' for Active; 'I' for Inactive)
REMARK       I    between atoms: N_2  and  C_3 
REMARK    1  A    between atoms: C_3  and  C_5 
REMARK    2  A    between atoms: C_5  and  N_7 
REMARK       I    between atoms: N_7  and  C_8 
REMARK    3  A    between atoms: C_8  and  C_10 
REMARK    4  A    between atoms: C_10  and  N_12 
ROOT
HETATM    1  N   UNL     1     -41.821 -48.188   9.744  1.00  0.00    -0.346 N 
HETATM    2  C   UNL     1     -41.619 -48.825  10.947  1.00  0.00     0.242 C 
HETATM    3  O   UNL     1     -42.505 -48.922  11.793  1.00  0.00    -0.271 OA
HETATM    4  H   UNL     1     -41.065 -48.080   9.071  1.00  0.00     0.163 HD
ENDROOT
BRANCH   2   5
HETATM    5  C   UNL     1     -40.243 -49.453  11.126  1.00  0.00     0.197 C 
HETATM    6  C   UNL     1     -39.301 -48.527  11.892  1.00  0.00     0.044 C 
BRANCH   5   7
HETATM    7  N   UNL     1     -40.389 -50.733  11.799  1.00  0.00    -0.273 N 
HETATM    8  C   UNL     1     -39.814 -51.146  12.962  1.00  0.00     0.202 A 
HETATM    9  N   UNL     1     -40.197 -52.373  13.228  1.00  0.00    -0.346 N 
HETATM   10  C   UNL     1     -41.018 -52.673  12.181  1.00  0.00     0.198 A 
ATOM     11  HN  UNL     1     -39.943 -52.959  14.023  1.00  0.00     0.167 HD
HETATM   12  N   UNL     1     -41.169 -51.701  11.277  1.00  0.00    -0.292 N 
ATOM     13  HN  UNL     1     -41.724 -51.694  10.421  1.00  0.00     0.188 HD
ENDBRANCH   5   7
ENDBRANCH   2   5
BRANCH   1  14
HETATM   14  C   UNL     1     -43.105 -47.595   9.383  1.00  0.00     0.172 C 
HETATM   15  C   UNL     1     -43.424 -47.867   7.917  1.00  0.00     0.042 C 
BRANCH  14  16
HETATM   16  C   UNL     1     -43.054 -46.079   9.663  1.00  0.00     0.239 C 
HETATM   17  N   UNL     1     -42.527 -45.738  10.891  1.00  0.00    -0.364 N 
HETATM   18  C   UNL     1     -42.395 -44.361  11.293  1.00  0.00     0.149 C 
HETATM   19  H   UNL     1     -42.154 -46.458  11.497  1.00  0.00     0.161 HD
HETATM   20  O   UNL     1     -43.452 -45.248   8.847  1.00  0.00    -0.271 OA
ENDBRANCH  14  16
ENDBRANCH   1  14
TORSDOF 4
ENDMDL
MODEL 2
REMARK VINA RESULT:      -5.3      3.939      5.521
REMARK  4 active torsions:
REMARK  status: ('A' for Active; 'I' for Inactive)
REMARK       I    between atoms: N_2  and  C_3 
REMARK    1  A    between atoms: C_3  and  C_5 
REMARK    2  A    between atoms: C_5  and  N_7 
REMARK       I    between atoms: N_7  and  C_8 
REMARK    3  A    between atoms: C_8  and  C_10 
REMARK    4  A    between atoms: C_10  and  N_12 
ROOT
HETATM    1  N   UNL     1     -42.301 -45.070  10.820  1.00  0.00    -0.346 N 
HETATM    2  C   UNL     1     -43.110 -45.409   9.760  1.00  0.00     0.242 C 
HETATM    3  O   UNL     1     -43.800 -44.578   9.172  1.00  0.00    -0.271 OA
HETATM    4  H   UNL     1     -41.767 -45.776  11.323  1.00  0.00     0.163 HD
ENDROOT
BRANCH   2   5
HETATM    5  C   UNL     1     -43.042 -46.868   9.332  1.00  0.00     0.197 C 
HETATM    6  C   UNL     1     -42.434 -47.744  10.425  1.00  0.00     0.044 C 
BRANCH   5   7
HETATM    7  N   UNL     1     -44.376 -47.320   8.973  1.00  0.00    -0.273 N 
HETATM    8  C   UNL     1     -44.746 -48.123   7.938  1.00  0.00     0.202 A 
HETATM    9  N   UNL     1     -46.048 -48.291   7.957  1.00  0.00    -0.346 N 
HETATM   10  C   UNL     1     -46.436 -47.559   9.041  1.00  0.00     0.198 A 
ATOM     11  HN  UNL     1     -46.627 -48.836   7.319  1.00  0.00     0.167 HD
HETATM   12  N   UNL     1     -45.449 -46.944   9.698  1.00  0.00    -0.292 N 
ATOM     13  HN  UNL     1     -45.495 -46.348  10.525  1.00  0.00     0.188 HD
ENDBRANCH   5   7
ENDBRANCH   2   5
BRANCH   1  14
HETATM   14  C   UNL     1     -42.192 -43.700  11.311  1.00  0.00     0.172 C 
HETATM   15  C   UNL     1     -40.740 -43.235  11.279  1.00  0.00     0.042 C 
BRANCH  14  16
HETATM   16  C   UNL     1     -42.760 -43.633  12.743  1.00  0.00     0.239 C 
HETATM   17  N   UNL     1     -42.591 -44.784  13.484  1.00  0.00    -0.364 N 
HETATM   18  C   UNL     1     -43.050 -44.873  14.846  1.00  0.00     0.149 C 
HETATM   19  H   UNL     1     -42.068 -45.560  13.097  1.00  0.00     0.161 HD
HETATM   20  O   UNL     1     -43.315 -42.626  13.182  1.00  0.00    -0.271 OA
ENDBRANCH  14  16
ENDBRANCH   1  14
TORSDOF 4
ENDMDL
MODEL 3
REMARK VINA RESULT:      -5.2      1.958      2.799
REMARK  4 active torsions:
REMARK  status: ('A' for Active; 'I' for Inactive)
REMARK       I    between atoms: N_2  and  C_3 
REMARK    1  A    between atoms: C_3  and  C_5 
REMARK    2  A    between atoms: C_5  and  N_7 
REMARK       I    between atoms: N_7  and  C_8 
REMARK    3  A    between atoms: C_8  and  C_10 
REMARK    4  A    between atoms: C_10  and  N_12 
ROOT
HETATM    1  N   UNL     1     -42.850 -48.309  10.866  1.00  0.00    -0.346 N 
HETATM    2  C   UNL     1     -41.743 -48.893  11.436  1.00  0.00     0.242 C 
HETATM    3  O   UNL     1     -40.610 -48.727  10.987  1.00  0.00    -0.271 OA
HETATM    4  H   UNL     1     -43.785 -48.490  11.224  1.00  0.00     0.163 HD
ENDROOT
BRANCH   2   5
HETATM    5  C   UNL     1     -42.013 -49.707  12.694  1.00  0.00     0.197 C 
HETATM    6  C   UNL     1     -43.373 -49.364  13.300  1.00  0.00     0.044 C 
BRANCH   5   7
HETATM    7  N   UNL     1     -41.919 -51.121  12.374  1.00  0.00    -0.273 N 
HETATM    8  C   UNL     1     -42.750 -52.131  12.755  1.00  0.00     0.202 A 
HETATM    9  N   UNL     1     -42.314 -53.266  12.261  1.00  0.00    -0.346 N 
HETATM   10  C   UNL     1     -41.195 -52.894  11.575  1.00  0.00     0.198 A 
ATOM     11  HN  UNL     1     -42.714 -54.199  12.365  1.00  0.00     0.167 HD
HETATM   12  N   UNL     1     -40.909 -51.590  11.614  1.00  0.00    -0.292 N 
ATOM     13  HN  UNL     1     -40.134 -51.085  11.184  1.00  0.00     0.188 HD
ENDBRANCH   5   7
ENDBRANCH   2   5
BRANCH   1  14
HETATM   14  C   UNL     1     -42.756 -47.438   9.697  1.00  0.00     0.172 C 
HETATM   15  C   UNL     1     -42.812 -45.974  10.118  1.00  0.00     0.042 C 
BRANCH  14  16
HETATM   16  C   UNL     1     -43.906 -47.776   8.727  1.00  0.00     0.239 C 
HETATM   17  N   UNL     1     -45.141 -47.922   9.324  1.00  0.00    -0.364 N 
HETATM   18  C   UNL     1     -46.318 -48.220   8.550  1.00  0.00     0.149 C 
HETATM   19  H   UNL     1     -45.245 -47.744  10.316  1.00  0.00     0.161 HD
HETATM   20  O   UNL     1     -43.727 -47.900   7.515  1.00  0.00    -0.271 OA
ENDBRANCH  14  16
ENDBRANCH   1  14
TORSDOF 4
ENDMDL
MODEL 4
REMARK VINA RESULT:      -5.2      3.290      5.260
REMARK  4 active torsions:
REMARK  status: ('A' for Active; 'I' for Inactive)
REMARK       I    between atoms: N_2  and  C_3 
REMARK    1  A    between atoms: C_3  and  C_5 
REMARK    2  A    between atoms: C_5  and  N_7 
REMARK       I    between atoms: N_7  and  C_8 
REMARK    3  A    between atoms: C_8  and  C_10 
REMARK    4  A    between atoms: C_10  and  N_12 
ROOT
HETATM    1  N   UNL     1     -41.809 -50.775  11.788  1.00  0.00    -0.346 N 
HETATM    2  C   UNL     1     -42.433 -51.415  12.834  1.00  0.00     0.242 C 
HETATM    3  O   UNL     1     -42.478 -50.933  13.964  1.00  0.00    -0.271 OA
HETATM    4  H   UNL     1     -41.745 -51.207  10.868  1.00  0.00     0.163 HD
ENDROOT
BRANCH   2   5
HETATM    5  C   UNL     1     -43.115 -52.729  12.477  1.00  0.00     0.197 C 
HETATM    6  C   UNL     1     -42.473 -53.908  13.204  1.00  0.00     0.044 C 
BRANCH   5   7
HETATM    7  N   UNL     1     -44.532 -52.627  12.785  1.00  0.00    -0.273 N 
HETATM    8  C   UNL     1     -45.376 -53.607  13.212  1.00  0.00     0.202 A 
HETATM    9  N   UNL     1     -46.580 -53.108  13.371  1.00  0.00    -0.346 N 
HETATM   10  C   UNL     1     -46.420 -51.800  13.022  1.00  0.00     0.198 A 
ATOM     11  HN  UNL     1     -47.428 -53.584  13.680  1.00  0.00     0.167 HD
HETATM   12  N   UNL     1     -45.183 -51.453  12.654  1.00  0.00    -0.292 N 
ATOM     13  HN  UNL     1     -44.827 -50.546  12.355  1.00  0.00     0.188 HD
ENDBRANCH   5   7
ENDBRANCH   2   5
BRANCH   1  14
HETATM   14  C   UNL     1     -41.169 -49.472  11.942  1.00  0.00     0.172 C 
HETATM   15  C   UNL     1     -41.389 -48.620  10.697  1.00  0.00     0.042 C 
BRANCH  14  16
HETATM   16  C   UNL     1     -39.664 -49.681  12.207  1.00  0.00     0.239 C 
HETATM   17  N   UNL     1     -38.897 -49.847  11.074  1.00  0.00    -0.364 N 
HETATM   18  C   UNL     1     -37.471 -50.034  11.154  1.00  0.00     0.149 C 
HETATM   19  H   UNL     1     -39.324 -49.762  10.159  1.00  0.00     0.161 HD
HETATM   20  O   UNL     1     -39.195 -49.693  13.345  1.00  0.00    -0.271 OA
ENDBRANCH  14  16
ENDBRANCH   1  14
TORSDOF 4
ENDMDL
MODEL 5
REMARK VINA RESULT:      -5.2      1.524      2.262
REMARK  4 active torsions:
REMARK  status: ('A' for Active; 'I' for Inactive)
REMARK       I    between atoms: N_2  and  C_3 
REMARK    1  A    between atoms: C_3  and  C_5 
REMARK    2  A    between atoms: C_5  and  N_7 
REMARK       I    between atoms: N_7  and  C_8 
REMARK    3  A    between atoms: C_8  and  C_10 
REMARK    4  A    between atoms: C_10  and  N_12 
ROOT
HETATM    1  N   UNL     1     -41.010 -48.320  10.834  1.00  0.00    -0.346 N 
HETATM    2  C   UNL     1     -39.966 -48.534  11.704  1.00  0.00     0.242 C 
HETATM    3  O   UNL     1     -39.715 -47.764  12.629  1.00  0.00    -0.271 OA
HETATM    4  H   UNL     1     -41.179 -48.944  10.048  1.00  0.00     0.163 HD
ENDROOT
BRANCH   2   5
HETATM    5  C   UNL     1     -39.185 -49.821  11.475  1.00  0.00     0.197 C 
HETATM    6  C   UNL     1     -37.770 -49.724  12.041  1.00  0.00     0.044 C 
BRANCH   5   7
HETATM    7  N   UNL     1     -39.915 -50.931  12.066  1.00  0.00    -0.273 N 
HETATM    8  C   UNL     1     -39.852 -51.399  13.343  1.00  0.00     0.202 A 
HETATM    9  N   UNL     1     -40.665 -52.421  13.475  1.00  0.00    -0.346 N 
HETATM   10  C   UNL     1     -41.211 -52.542  12.231  1.00  0.00     0.198 A 
ATOM     11  HN  UNL     1     -40.845 -52.986  14.305  1.00  0.00     0.167 HD
HETATM   12  N   UNL     1     -40.784 -51.653  11.330  1.00  0.00    -0.292 N 
ATOM     13  HN  UNL     1     -41.044 -51.549  10.349  1.00  0.00     0.188 HD
ENDBRANCH   5   7
ENDBRANCH   2   5
BRANCH   1  14
HETATM   14  C   UNL     1     -41.903 -47.171  10.957  1.00  0.00     0.172 C 
HETATM   15  C   UNL     1     -42.956 -47.428  12.030  1.00  0.00     0.042 C 
BRANCH  14  16
HETATM   16  C   UNL     1     -42.564 -46.901   9.591  1.00  0.00     0.239 C 
HETATM   17  N   UNL     1     -42.852 -48.032   8.856  1.00  0.00    -0.364 N 
HETATM   18  C   UNL     1     -43.487 -47.946   7.566  1.00  0.00     0.149 C 
HETATM   19  H   UNL     1     -42.686 -48.948   9.255  1.00  0.00     0.161 HD
HETATM   20  O   UNL     1     -42.814 -45.762   9.197  1.00  0.00    -0.271 OA
ENDBRANCH  14  16
ENDBRANCH   1  14
TORSDOF 4
ENDMDL
MODEL 6
REMARK VINA RESULT:      -5.2      3.479      4.978
REMARK  4 active torsions:
REMARK  status: ('A' for Active; 'I' for Inactive)
REMARK       I    between atoms: N_2  and  C_3 
REMARK    1  A    between atoms: C_3  and  C_5 
REMARK    2  A    between atoms: C_5  and  N_7 
REMARK       I    between atoms: N_7  and  C_8 
REMARK    3  A    between atoms: C_8  and  C_10 
REMARK    4  A    between atoms: C_10  and  N_12 
ROOT
HETATM    1  N   UNL     1     -42.613 -45.343  11.750  1.00  0.00    -0.346 N 
HETATM    2  C   UNL     1     -41.920 -46.187  10.913  1.00  0.00     0.242 C 
HETATM    3  O   UNL     1     -40.890 -45.838  10.339  1.00  0.00    -0.271 OA
HETATM    4  H   UNL     1     -43.487 -45.633  12.186  1.00  0.00     0.163 HD
ENDROOT
BRANCH   2   5
HETATM    5  C   UNL     1     -42.484 -47.596  10.800  1.00  0.00     0.197 C 
HETATM    6  C   UNL     1     -43.324 -47.963  12.022  1.00  0.00     0.044 C 
BRANCH   5   7
HETATM    7  N   UNL     1     -43.259 -47.701   9.576  1.00  0.00    -0.273 N 
HETATM    8  C   UNL     1     -44.600 -47.536   9.408  1.00  0.00     0.202 A 
HETATM    9  N   UNL     1     -44.910 -47.721   8.146  1.00  0.00    -0.346 N 
HETATM   10  C   UNL     1     -43.705 -48.001   7.571  1.00  0.00     0.198 A 
ATOM     11  HN  UNL     1     -45.827 -47.667   7.703  1.00  0.00     0.167 HD
HETATM   12  N   UNL     1     -42.661 -48.002   8.405  1.00  0.00    -0.292 N 
ATOM     13  HN  UNL     1     -41.677 -48.183   8.209  1.00  0.00     0.188 HD
ENDBRANCH   5   7
ENDBRANCH   2   5
BRANCH   1  14
HETATM   14  C   UNL     1     -42.168 -43.981  12.027  1.00  0.00     0.172 C 
HETATM   15  C   UNL     1     -42.159 -43.717  13.528  1.00  0.00     0.042 C 
BRANCH  14  16
HETATM   16  C   UNL     1     -43.100 -42.990  11.299  1.00  0.00     0.239 C 
HETATM   17  N   UNL     1     -43.542 -41.940  12.075  1.00  0.00    -0.364 N 
HETATM   18  C   UNL     1     -44.405 -40.920  11.535  1.00  0.00     0.149 C 
HETATM   19  H   UNL     1     -43.200 -41.833  13.022  1.00  0.00     0.161 HD
HETATM   20  O   UNL     1     -43.416 -43.134  10.118  1.00  0.00    -0.271 OA
ENDBRANCH  14  16
ENDBRANCH   1  14
TORSDOF 4
ENDMDL
MODEL 7
REMARK VINA RESULT:      -5.0      4.697      6.727
REMARK  4 active torsions:
REMARK  status: ('A' for Active; 'I' for Inactive)
REMARK       I    between atoms: N_2  and  C_3 
REMARK    1  A    between atoms: C_3  and  C_5 
REMARK    2  A    between atoms: C_5  and  N_7 
REMARK       I    between atoms: N_7  and  C_8 
REMARK    3  A    between atoms: C_8  and  C_10 
REMARK    4  A    between atoms: C_10  and  N_12 
ROOT
HETATM    1  N   UNL     1     -43.329 -52.174  12.742  1.00  0.00    -0.346 N 
HETATM    2  C   UNL     1     -44.595 -52.702  12.646  1.00  0.00     0.242 C 
HETATM    3  O   UNL     1     -44.795 -53.869  12.314  1.00  0.00    -0.271 OA
HETATM    4  H   UNL     1     -43.182 -51.195  12.978  1.00  0.00     0.163 HD
ENDROOT
BRANCH   2   5
HETATM    5  C   UNL     1     -45.723 -51.759  13.040  1.00  0.00     0.197 C 
HETATM    6  C   UNL     1     -46.887 -51.837  12.055  1.00  0.00     0.044 C 
BRANCH   5   7
HETATM    7  N   UNL     1     -46.154 -52.072  14.392  1.00  0.00    -0.273 N 
HETATM    8  C   UNL     1     -47.002 -51.369  15.193  1.00  0.00     0.202 A 
HETATM    9  N   UNL     1     -47.128 -51.985  16.345  1.00  0.00    -0.346 N 
HETATM   10  C   UNL     1     -46.326 -53.078  16.198  1.00  0.00     0.198 A 
ATOM     11  HN  UNL     1     -47.690 -51.714  17.152  1.00  0.00     0.167 HD
HETATM   12  N   UNL     1     -45.705 -53.178  15.020  1.00  0.00    -0.292 N 
ATOM     13  HN  UNL     1     -45.063 -53.896  14.685  1.00  0.00     0.188 HD
ENDBRANCH   5   7
ENDBRANCH   2   5
BRANCH   1  14
HETATM   14  C   UNL     1     -42.132 -52.965  12.470  1.00  0.00     0.172 C 
HETATM   15  C   UNL     1     -41.811 -53.870  13.655  1.00  0.00     0.042 C 
BRANCH  14  16
HETATM   16  C   UNL     1     -40.957 -52.012  12.170  1.00  0.00     0.239 C 
HETATM   17  N   UNL     1     -41.314 -50.841  11.536  1.00  0.00    -0.364 N 
HETATM   18  C   UNL     1     -40.333 -49.839  11.205  1.00  0.00     0.149 C 
HETATM   19  H   UNL     1     -42.291 -50.638  11.364  1.00  0.00     0.161 HD
HETATM   20  O   UNL     1     -39.798 -52.283  12.480  1.00  0.00    -0.271 OA
ENDBRANCH  14  16
ENDBRANCH   1  14
TORSDOF 4
ENDMDL
MODEL 8
REMARK VINA RESULT:      -5.0      2.187      2.882
REMARK  4 active torsions:
REMARK  status: ('A' for Active; 'I' for Inactive)
REMARK       I    between atoms: N_2  and  C_3 
REMARK    1  A    between atoms: C_3  and  C_5 
REMARK    2  A    between atoms: C_5  and  N_7 
REMARK       I    between atoms: N_7  and  C_8 
REMARK    3  A    between atoms: C_8  and  C_10 
REMARK    4  A    between atoms: C_10  and  N_12 
ROOT
HETATM    1  N   UNL     1     -41.375 -49.410  11.166  1.00  0.00    -0.346 N 
HETATM    2  C   UNL     1     -41.856 -50.305  12.093  1.00  0.00     0.242 C 
HETATM    3  O   UNL     1     -42.757 -50.014  12.878  1.00  0.00    -0.271 OA
HETATM    4  H   UNL     1     -40.601 -49.652  10.550  1.00  0.00     0.163 HD
ENDROOT
BRANCH   2   5
HETATM    5  C   UNL     1     -41.238 -51.695  12.035  1.00  0.00     0.197 C 
HETATM    6  C   UNL     1     -39.922 -51.755  12.809  1.00  0.00     0.044 C 
BRANCH   5   7
HETATM    7  N   UNL     1     -42.195 -52.663  12.544  1.00  0.00    -0.273 N 
HETATM    8  C   UNL     1     -42.080 -53.471  13.634  1.00  0.00     0.202 A 
HETATM    9  N   UNL     1     -43.163 -54.205  13.751  1.00  0.00    -0.346 N 
HETATM   10  C   UNL     1     -43.923 -53.802  12.692  1.00  0.00     0.198 A 
ATOM     11  HN  UNL     1     -43.382 -54.904  14.460  1.00  0.00     0.167 HD
HETATM   12  N   UNL     1     -43.374 -52.859  11.921  1.00  0.00    -0.292 N 
ATOM     13  HN  UNL     1     -43.747 -52.409  11.085  1.00  0.00     0.188 HD
ENDBRANCH   5   7
ENDBRANCH   2   5
BRANCH   1  14
HETATM   14  C   UNL     1     -41.910 -48.057  11.038  1.00  0.00     0.172 C 
HETATM   15  C   UNL     1     -42.578 -47.874   9.680  1.00  0.00     0.042 C 
BRANCH  14  16
HETATM   16  C   UNL     1     -40.763 -47.044  11.229  1.00  0.00     0.239 C 
HETATM   17  N   UNL     1     -40.596 -46.159  10.184  1.00  0.00    -0.364 N 
HETATM   18  C   UNL     1     -39.579 -45.140  10.220  1.00  0.00     0.149 C 
HETATM   19  H   UNL     1     -41.245 -46.170   9.406  1.00  0.00     0.161 HD
HETATM   20  O   UNL     1     -40.059 -47.033  12.238  1.00  0.00    -0.271 OA
ENDBRANCH  14  16
ENDBRANCH   1  14
TORSDOF 4
ENDMDL
MODEL 9
REMARK VINA RESULT:      -4.9      2.249      6.018
REMARK  4 active torsions:
REMARK  status: ('A' for Active; 'I' for Inactive)
REMARK       I    between atoms: N_2  and  C_3 
REMARK    1  A    between atoms: C_3  and  C_5 
REMARK    2  A    between atoms: C_5  and  N_7 
REMARK       I    between atoms: N_7  and  C_8 
REMARK    3  A    between atoms: C_8  and  C_10 
REMARK    4  A    between atoms: C_10  and  N_12 
ROOT
HETATM    1  N   UNL     1     -42.133 -49.847  11.606  1.00  0.00    -0.346 N 
HETATM    2  C   UNL     1     -41.508 -48.623  11.551  1.00  0.00     0.242 C 
HETATM    3  O   UNL     1     -40.617 -48.307  12.339  1.00  0.00    -0.271 OA
HETATM    4  H   UNL     1     -42.897 -50.078  10.973  1.00  0.00     0.163 HD
ENDROOT
BRANCH   2   5
HETATM    5  C   UNL     1     -41.953 -47.717  10.412  1.00  0.00     0.197 C 
HETATM    6  C   UNL     1     -43.474 -47.592  10.357  1.00  0.00     0.044 C 
BRANCH   5   7
HETATM    7  N   UNL     1     -41.322 -46.417  10.564  1.00  0.00    -0.273 N 
HETATM    8  C   UNL     1     -41.894 -45.238  10.933  1.00  0.00     0.202 A 
HETATM    9  N   UNL     1     -40.982 -44.293  10.947  1.00  0.00    -0.346 N 
HETATM   10  C   UNL     1     -39.850 -44.954  10.573  1.00  0.00     0.198 A 
ATOM     11  HN  UNL     1     -41.094 -43.307  11.181  1.00  0.00     0.167 HD
HETATM   12  N   UNL     1     -40.004 -46.258  10.326  1.00  0.00    -0.292 N 
ATOM     13  HN  UNL     1     -39.311 -46.948  10.035  1.00  0.00     0.188 HD
ENDBRANCH   5   7
ENDBRANCH   2   5
BRANCH   1  14
HETATM   14  C   UNL     1     -41.774 -50.862  12.592  1.00  0.00     0.172 C 
HETATM   15  C   UNL     1     -40.686 -51.778  12.042  1.00  0.00     0.042 C 
BRANCH  14  16
HETATM   16  C   UNL     1     -43.036 -51.667  12.965  1.00  0.00     0.239 C 
HETATM   17  N   UNL     1     -43.261 -52.780  12.183  1.00  0.00    -0.364 N 
HETATM   18  C   UNL     1     -44.388 -53.646  12.417  1.00  0.00     0.149 C 
HETATM   19  H   UNL     1     -42.586 -53.044  11.476  1.00  0.00     0.161 HD
HETATM   20  O   UNL     1     -43.774 -51.336  13.892  1.00  0.00    -0.271 OA
ENDBRANCH  14  16
ENDBRANCH   1  14
TORSDOF 4
ENDMDL
