MODEL 1
REMARK VINA RESULT:      -6.1      0.000      0.000
REMARK  6 active torsions:
REMARK  status: ('A' for Active; 'I' for Inactive)
REMARK    1  A    between atoms: C_2  and  N_4 
REMARK    2  A    between atoms: C_7  and  N_10 
REMARK    3  A    between atoms: N_10  and  C_11 
REMARK    4  A    between atoms: C_11  and  C_12 
REMARK    5  A    between atoms: C_12  and  C_13 
REMARK    6  A    between atoms: C_16  and  C_20 
ROOT
HETATM    1  C   UNL     1     -40.740 -50.508  11.766  1.00  0.00     0.278 C 
ENDROOT
BRANCH   1   2
HETATM    2  N   UNL     1     -42.153 -50.887  11.912  1.00  0.00     0.088 N 
HETATM    3  H   UNL     1     -42.737 -50.057  11.792  1.00  0.00     0.316 HD
BRANCH   2   4
HETATM    4  C   UNL     1     -42.457 -51.498  13.224  1.00  0.00     0.223 C 
HETATM    5  C   UNL     1     -42.707 -53.010  13.142  1.00  0.00     0.066 C 
HETATM    6  C   UNL     1     -43.998 -53.304  12.376  1.00  0.00     0.275 C 
HETATM    7  N   UNL     1     -45.192 -52.743  13.042  1.00  0.00     0.092 N 
HETATM    8  C   UNL     1     -45.015 -51.283  13.161  1.00  0.00     0.275 C 
HETATM    9  C   UNL     1     -43.709 -50.840  13.841  1.00  0.00     0.066 C 
BRANCH   7  10
HETATM   10  C   UNL     1     -45.565 -53.461  14.282  1.00  0.00     0.215 C 
HETATM   11  C   UNL     1     -46.880 -52.962  14.904  1.00  0.00     0.042 C 
HETATM   12  C   UNL     1     -45.739 -54.969  14.010  1.00  0.00     0.042 C 
ENDBRANCH   7  10
ENDBRANCH   2   4
ENDBRANCH   1   2
BRANCH   1  13
HETATM   13  C   UNL     1     -40.571 -48.988  11.693  1.00  0.00     0.117 C 
BRANCH  13  14
HETATM   14  C   UNL     1     -41.767 -48.371  11.080  1.00  0.00     0.149 A 
HETATM   15  N   UNL     1     -42.119 -48.307   9.817  1.00  0.00    -0.327 N 
HETATM   16  C   UNL     1     -43.312 -47.633   9.883  1.00  0.00     0.107 A 
ATOM     17  HN  UNL     1     -41.631 -48.666   8.997  1.00  0.00     0.169 HD
HETATM   18  N   UNL     1     -43.707 -47.302  11.120  1.00  0.00    -0.247 N 
HETATM   19  O   UNL     1     -42.675 -47.794  11.925  1.00  0.00    -0.223 OA
ATOM     20  HN  UNL     1     -44.553 -46.810  11.405  1.00  0.00     0.196 HD
BRANCH  16  21
HETATM   21  C   UNL     1     -44.093 -47.276   8.663  1.00  0.00     0.047 C 
HETATM   22  C   UNL     1     -43.554 -48.015   7.437  1.00  0.00     0.017 C 
HETATM   23  C   UNL     1     -45.583 -47.571   8.850  1.00  0.00     0.017 C 
ENDBRANCH  16  21
ENDBRANCH  13  14
ENDBRANCH   1  13
TORSDOF 6
ENDMDL
MODEL 2
REMARK VINA RESULT:      -5.7      3.024      4.264
REMARK  6 active torsions:
REMARK  status: ('A' for Active; 'I' for Inactive)
REMARK    1  A    between atoms: C_2  and  N_4 
REMARK    2  A    between atoms: C_7  and  N_10 
REMARK    3  A    between atoms: N_10  and  C_11 
REMARK    4  A    between atoms: C_11  and  C_12 
REMARK    5  A    between atoms: C_12  and  C_13 
REMARK    6  A    between atoms: C_16  and  C_20 
ROOT
HETATM    1  C   UNL     1     -40.955 -54.068  15.237  1.00  0.00     0.278 C 
ENDROOT
BRANCH   1   2
HETATM    2  N   UNL     1     -41.978 -54.658  14.361  1.00  0.00     0.088 N 
HETATM    3  H   UNL     1     -41.885 -54.263  13.423  1.00  0.00     0.316 HD
BRANCH   2   4
HETATM    4  C   UNL     1     -43.358 -54.426  14.842  1.00  0.00     0.223 C 
HETATM    5  C   UNL     1     -44.430 -54.860  13.834  1.00  0.00     0.066 C 
HETATM    6  C   UNL     1     -44.398 -53.967  12.593  1.00  0.00     0.275 C 
HETATM    7  N   UNL     1     -44.700 -52.555  12.904  1.00  0.00     0.092 N 
HETATM    8  C   UNL     1     -43.705 -52.071  13.881  1.00  0.00     0.275 C 
HETATM    9  C   UNL     1     -43.570 -52.929  15.149  1.00  0.00     0.066 C 
BRANCH   7  10
HETATM   10  C   UNL     1     -46.120 -52.318  13.245  1.00  0.00     0.215 C 
HETATM   11  C   UNL     1     -46.315 -51.307  14.388  1.00  0.00     0.042 C 
HETATM   12  C   UNL     1     -46.893 -51.774  12.027  1.00  0.00     0.042 C 
ENDBRANCH   7  10
ENDBRANCH   2   4
ENDBRANCH   1   2
BRANCH   1  13
HETATM   13  C   UNL     1     -39.732 -53.607  14.440  1.00  0.00     0.117 C 
BRANCH  13  14
HETATM   14  C   UNL     1     -40.151 -52.732  13.323  1.00  0.00     0.149 A 
HETATM   15  N   UNL     1     -40.064 -51.427  13.207  1.00  0.00    -0.327 N 
HETATM   16  C   UNL     1     -40.598 -51.212  11.962  1.00  0.00     0.107 A 
ATOM     17  HN  UNL     1     -39.695 -50.748  13.872  1.00  0.00     0.169 HD
HETATM   18  N   UNL     1     -40.987 -52.318  11.314  1.00  0.00    -0.247 N 
HETATM   19  O   UNL     1     -40.689 -53.338  12.222  1.00  0.00    -0.223 OA
ATOM     20  HN  UNL     1     -41.400 -52.397  10.385  1.00  0.00     0.196 HD
BRANCH  16  21
HETATM   21  C   UNL     1     -40.756 -49.842  11.390  1.00  0.00     0.047 C 
HETATM   22  C   UNL     1     -42.071 -49.210  11.849  1.00  0.00     0.017 C 
HETATM   23  C   UNL     1     -39.574 -48.945  11.763  1.00  0.00     0.017 C 
ENDBRANCH  16  21
ENDBRANCH  13  14
ENDBRANCH   1  13
TORSDOF 6
ENDMDL
MODEL 3
REMARK VINA RESULT:      -5.7      1.569      1.863
REMARK  6 active torsions:
REMARK  status: ('A' for Active; 'I' for Inactive)
REMARK    1  A    between atoms: C_2  and  N_4 
REMARK    2  A    between atoms: C_7  and  N_10 
REMARK    3  A    between atoms: N_10  and  C_11 
REMARK    4  A    between atoms: C_11  and  C_12 
REMARK    5  A    between atoms: C_12  and  C_13 
REMARK    6  A    between atoms: C_16  and  C_20 
ROOT
HETATM    1  C   UNL     1     -39.467 -49.652  11.489  1.00  0.00     0.278 C 
ENDROOT
BRANCH   1   2
HETATM    2  N   UNL     1     -40.538 -50.660  11.457  1.00  0.00     0.088 N 
HETATM    3  H   UNL     1     -41.434 -50.203  11.641  1.00  0.00     0.316 HD
BRANCH   2   4
HETATM    4  C   UNL     1     -40.343 -51.745  12.443  1.00  0.00     0.223 C 
HETATM    5  C   UNL     1     -41.236 -52.965  12.180  1.00  0.00     0.066 C 
HETATM    6  C   UNL     1     -42.707 -52.618  12.413  1.00  0.00     0.275 C 
HETATM    7  N   UNL     1     -42.982 -52.223  13.810  1.00  0.00     0.092 N 
HETATM    8  C   UNL     1     -42.146 -51.051  14.134  1.00  0.00     0.275 C 
HETATM    9  C   UNL     1     -40.643 -51.232  13.867  1.00  0.00     0.066 C 
BRANCH   7  10
HETATM   10  C   UNL     1     -42.923 -53.353  14.763  1.00  0.00     0.215 C 
HETATM   11  C   UNL     1     -43.375 -52.978  16.185  1.00  0.00     0.042 C 
HETATM   12  C   UNL     1     -43.826 -54.512  14.296  1.00  0.00     0.042 C 
ENDBRANCH   7  10
ENDBRANCH   2   4
ENDBRANCH   1   2
BRANCH   1  13
HETATM   13  C   UNL     1     -40.021 -48.254  11.778  1.00  0.00     0.117 C 
BRANCH  13  14
HETATM   14  C   UNL     1     -41.333 -48.078  11.117  1.00  0.00     0.149 A 
HETATM   15  N   UNL     1     -41.614 -47.561   9.944  1.00  0.00    -0.327 N 
HETATM   16  C   UNL     1     -42.979 -47.689   9.892  1.00  0.00     0.107 A 
ATOM     17  HN  UNL     1     -40.981 -47.165   9.250  1.00  0.00     0.169 HD
HETATM   18  N   UNL     1     -43.534 -48.271  10.964  1.00  0.00    -0.247 N 
HETATM   19  O   UNL     1     -42.435 -48.533  11.787  1.00  0.00    -0.223 OA
ATOM     20  HN  UNL     1     -44.518 -48.473  11.138  1.00  0.00     0.196 HD
BRANCH  16  21
HETATM   21  C   UNL     1     -43.782 -47.190   8.737  1.00  0.00     0.047 C 
HETATM   22  C   UNL     1     -43.516 -48.032   7.487  1.00  0.00     0.017 C 
HETATM   23  C   UNL     1     -45.276 -47.177   9.063  1.00  0.00     0.017 C 
ENDBRANCH  16  21
ENDBRANCH  13  14
ENDBRANCH   1  13
TORSDOF 6
ENDMDL
MODEL 4
REMARK VINA RESULT:      -5.4      4.105      6.890
REMARK  6 active torsions:
REMARK  status: ('A' for Active; 'I' for Inactive)
REMARK    1  A    between atoms: C_2  and  N_4 
REMARK    2  A    between atoms: C_7  and  N_10 
REMARK    3  A    between atoms: N_10  and  C_11 
REMARK    4  A    between atoms: C_11  and  C_12 
REMARK    5  A    between atoms: C_12  and  C_13 
REMARK    6  A    between atoms: C_16  and  C_20 
ROOT
HETATM    1  C   UNL     1     -41.794 -54.859  15.285  1.00  0.00     0.278 C 
ENDROOT
BRANCH   1   2
HETATM    2  N   UNL     1     -41.950 -54.039  14.074  1.00  0.00     0.088 N 
HETATM    3  H   UNL     1     -42.686 -54.441  13.489  1.00  0.00     0.316 HD
BRANCH   2   4
HETATM    4  C   UNL     1     -40.708 -53.939  13.277  1.00  0.00     0.223 C 
HETATM    5  C   UNL     1     -39.498 -53.480  14.101  1.00  0.00     0.066 C 
HETATM    6  C   UNL     1     -39.672 -52.030  14.555  1.00  0.00     0.275 C 
HETATM    7  N   UNL     1     -39.756 -51.087  13.421  1.00  0.00     0.092 N 
HETATM    8  C   UNL     1     -40.902 -51.476  12.577  1.00  0.00     0.275 C 
HETATM    9  C   UNL     1     -40.900 -52.942  12.114  1.00  0.00     0.066 C 
BRANCH   7  10
HETATM   10  C   UNL     1     -38.466 -50.891  12.722  1.00  0.00     0.215 C 
HETATM   11  C   UNL     1     -38.521 -49.809  11.631  1.00  0.00     0.042 C 
HETATM   12  C   UNL     1     -37.364 -50.472  13.716  1.00  0.00     0.042 C 
ENDBRANCH   7  10
ENDBRANCH   2   4
ENDBRANCH   1   2
BRANCH   1  13
HETATM   13  C   UNL     1     -43.079 -54.884  16.116  1.00  0.00     0.117 C 
BRANCH  13  14
HETATM   14  C   UNL     1     -44.225 -54.427  15.298  1.00  0.00     0.149 A 
HETATM   15  N   UNL     1     -44.860 -53.278  15.320  1.00  0.00    -0.327 N 
HETATM   16  C   UNL     1     -45.801 -53.451  14.337  1.00  0.00     0.107 A 
ATOM     17  HN  UNL     1     -44.696 -52.466  15.915  1.00  0.00     0.169 HD
HETATM   18  N   UNL     1     -45.757 -54.636  13.713  1.00  0.00    -0.247 N 
HETATM   19  O   UNL     1     -44.702 -55.292  14.354  1.00  0.00    -0.223 OA
ATOM     20  HN  UNL     1     -46.348 -54.975  12.955  1.00  0.00     0.196 HD
BRANCH  16  21
HETATM   21  C   UNL     1     -46.813 -52.403  14.012  1.00  0.00     0.047 C 
HETATM   22  C   UNL     1     -46.919 -51.379  15.144  1.00  0.00     0.017 C 
HETATM   23  C   UNL     1     -46.484 -51.705  12.691  1.00  0.00     0.017 C 
ENDBRANCH  16  21
ENDBRANCH  13  14
ENDBRANCH   1  13
TORSDOF 6
ENDMDL
MODEL 5
REMARK VINA RESULT:      -5.2      3.486      6.345
REMARK  6 active torsions:
REMARK  status: ('A' for Active; 'I' for Inactive)
REMARK    1  A    between atoms: C_2  and  N_4 
REMARK    2  A    between atoms: C_7  and  N_10 
REMARK    3  A    between atoms: N_10  and  C_11 
REMARK    4  A    between atoms: C_11  and  C_12 
REMARK    5  A    between atoms: C_12  and  C_13 
REMARK    6  A    between atoms: C_16  and  C_20 
ROOT
HETATM    1  C   UNL     1     -41.229 -54.538  14.627  1.00  0.00     0.278 C 
ENDROOT
BRANCH   1   2
HETATM    2  N   UNL     1     -40.877 -53.130  14.863  1.00  0.00     0.088 N 
HETATM    3  H   UNL     1     -41.707 -52.549  14.722  1.00  0.00     0.316 HD
BRANCH   2   4
HETATM    4  C   UNL     1     -39.798 -52.645  13.975  1.00  0.00     0.223 C 
HETATM    5  C   UNL     1     -38.858 -51.643  14.660  1.00  0.00     0.066 C 
HETATM    6  C   UNL     1     -39.593 -50.337  14.968  1.00  0.00     0.275 C 
HETATM    7  N   UNL     1     -40.073 -49.656  13.749  1.00  0.00     0.092 N 
HETATM    8  C   UNL     1     -40.982 -50.571  13.033  1.00  0.00     0.275 C 
HETATM    9  C   UNL     1     -40.399 -51.961  12.729  1.00  0.00     0.066 C 
BRANCH   7  10
HETATM   10  C   UNL     1     -38.986 -49.052  12.946  1.00  0.00     0.215 C 
HETATM   11  C   UNL     1     -39.492 -48.083  11.863  1.00  0.00     0.042 C 
HETATM   12  C   UNL     1     -38.018 -48.257  13.844  1.00  0.00     0.042 C 
ENDBRANCH   7  10
ENDBRANCH   2   4
ENDBRANCH   1   2
BRANCH   1  13
HETATM   13  C   UNL     1     -42.721 -54.791  14.862  1.00  0.00     0.117 C 
BRANCH  13  14
HETATM   14  C   UNL     1     -43.531 -53.857  14.050  1.00  0.00     0.149 A 
HETATM   15  N   UNL     1     -44.500 -53.052  14.421  1.00  0.00    -0.327 N 
HETATM   16  C   UNL     1     -44.839 -52.445  13.239  1.00  0.00     0.107 A 
ATOM     17  HN  UNL     1     -44.897 -52.914  15.350  1.00  0.00     0.169 HD
HETATM   18  N   UNL     1     -44.117 -52.828  12.178  1.00  0.00    -0.247 N 
HETATM   19  O   UNL     1     -43.239 -53.773  12.717  1.00  0.00    -0.223 OA
ATOM     20  HN  UNL     1     -44.189 -52.509  11.212  1.00  0.00     0.196 HD
BRANCH  16  21
HETATM   21  C   UNL     1     -45.950 -51.453  13.145  1.00  0.00     0.047 C 
HETATM   22  C   UNL     1     -46.872 -51.778  11.968  1.00  0.00     0.017 C 
HETATM   23  C   UNL     1     -46.751 -51.390  14.447  1.00  0.00     0.017 C 
ENDBRANCH  16  21
ENDBRANCH  13  14
ENDBRANCH   1  13
TORSDOF 6
ENDMDL
MODEL 6
REMARK VINA RESULT:      -5.2      2.288      2.916
REMARK  6 active torsions:
REMARK  status: ('A' for Active; 'I' for Inactive)
REMARK    1  A    between atoms: C_2  and  N_4 
REMARK    2  A    between atoms: C_7  and  N_10 
REMARK    3  A    between atoms: N_10  and  C_11 
REMARK    4  A    between atoms: C_11  and  C_12 
REMARK    5  A    between atoms: C_12  and  C_13 
REMARK    6  A    between atoms: C_16  and  C_20 
ROOT
HETATM    1  C   UNL     1     -39.119 -50.978  14.410  1.00  0.00     0.278 C 
ENDROOT
BRANCH   1   2
HETATM    2  N   UNL     1     -40.110 -51.912  13.856  1.00  0.00     0.088 N 
HETATM    3  H   UNL     1     -40.199 -51.750  12.851  1.00  0.00     0.316 HD
BRANCH   2   4
HETATM    4  C   UNL     1     -41.445 -51.781  14.480  1.00  0.00     0.223 C 
HETATM    5  C   UNL     1     -41.974 -53.101  15.058  1.00  0.00     0.066 C 
HETATM    6  C   UNL     1     -42.272 -54.099  13.938  1.00  0.00     0.275 C 
HETATM    7  N   UNL     1     -43.325 -53.622  13.019  1.00  0.00     0.092 N 
HETATM    8  C   UNL     1     -42.883 -52.343  12.429  1.00  0.00     0.275 C 
HETATM    9  C   UNL     1     -42.469 -51.268  13.446  1.00  0.00     0.066 C 
BRANCH   7  10
HETATM   10  C   UNL     1     -44.678 -53.632  13.618  1.00  0.00     0.215 C 
HETATM   11  C   UNL     1     -45.709 -52.823  12.814  1.00  0.00     0.042 C 
HETATM   12  C   UNL     1     -45.219 -55.073  13.722  1.00  0.00     0.042 C 
ENDBRANCH   7  10
ENDBRANCH   2   4
ENDBRANCH   1   2
BRANCH   1  13
HETATM   13  C   UNL     1     -38.440 -50.161  13.308  1.00  0.00     0.117 C 
BRANCH  13  14
HETATM   14  C   UNL     1     -39.435 -49.745  12.294  1.00  0.00     0.149 A 
HETATM   15  N   UNL     1     -40.178 -48.664  12.249  1.00  0.00    -0.327 N 
HETATM   16  C   UNL     1     -40.875 -48.842  11.081  1.00  0.00     0.107 A 
ATOM     17  HN  UNL     1     -40.226 -47.890  12.912  1.00  0.00     0.169 HD
HETATM   18  N   UNL     1     -40.580 -49.964  10.411  1.00  0.00    -0.247 N 
HETATM   19  O   UNL     1     -39.616 -50.572  11.221  1.00  0.00    -0.223 OA
ATOM     20  HN  UNL     1     -40.965 -50.295   9.527  1.00  0.00     0.196 HD
BRANCH  16  21
HETATM   21  C   UNL     1     -41.903 -47.866  10.611  1.00  0.00     0.047 C 
HETATM   22  C   UNL     1     -43.159 -47.939  11.481  1.00  0.00     0.017 C 
HETATM   23  C   UNL     1     -41.348 -46.441  10.592  1.00  0.00     0.017 C 
ENDBRANCH  16  21
ENDBRANCH  13  14
ENDBRANCH   1  13
TORSDOF 6
ENDMDL
MODEL 7
REMARK VINA RESULT:      -5.2      2.801      3.837
REMARK  6 active torsions:
REMARK  status: ('A' for Active; 'I' for Inactive)
REMARK    1  A    between atoms: C_2  and  N_4 
REMARK    2  A    between atoms: C_7  and  N_10 
REMARK    3  A    between atoms: N_10  and  C_11 
REMARK    4  A    between atoms: C_11  and  C_12 
REMARK    5  A    between atoms: C_12  and  C_13 
REMARK    6  A    between atoms: C_16  and  C_20 
ROOT
HETATM    1  C   UNL     1     -40.021 -48.123  13.050  1.00  0.00     0.278 C 
ENDROOT
BRANCH   1   2
HETATM    2  N   UNL     1     -38.835 -48.963  13.275  1.00  0.00     0.088 N 
HETATM    3  H   UNL     1     -37.998 -48.441  13.009  1.00  0.00     0.316 HD
BRANCH   2   4
HETATM    4  C   UNL     1     -38.868 -50.231  12.514  1.00  0.00     0.223 C 
HETATM    5  C   UNL     1     -40.274 -50.840  12.417  1.00  0.00     0.066 C 
HETATM    6  C   UNL     1     -40.754 -51.310  13.790  1.00  0.00     0.275 C 
HETATM    7  N   UNL     1     -39.902 -52.377  14.353  1.00  0.00     0.092 N 
HETATM    8  C   UNL     1     -38.525 -51.859  14.468  1.00  0.00     0.275 C 
HETATM    9  C   UNL     1     -37.941 -51.273  13.173  1.00  0.00     0.066 C 
BRANCH   7  10
HETATM   10  C   UNL     1     -40.056 -53.679  13.666  1.00  0.00     0.215 C 
HETATM   11  C   UNL     1     -39.197 -54.798  14.276  1.00  0.00     0.042 C 
HETATM   12  C   UNL     1     -41.521 -54.156  13.720  1.00  0.00     0.042 C 
ENDBRANCH   7  10
ENDBRANCH   2   4
ENDBRANCH   1   2
BRANCH   1  13
HETATM   13  C   UNL     1     -39.964 -47.426  11.687  1.00  0.00     0.117 C 
BRANCH  13  14
HETATM   14  C   UNL     1     -41.274 -47.529  11.007  1.00  0.00     0.149 A 
HETATM   15  N   UNL     1     -41.638 -47.084   9.826  1.00  0.00    -0.327 N 
HETATM   16  C   UNL     1     -42.945 -47.493   9.755  1.00  0.00     0.107 A 
ATOM     17  HN  UNL     1     -41.090 -46.567   9.139  1.00  0.00     0.169 HD
HETATM   18  N   UNL     1     -43.384 -48.176  10.822  1.00  0.00    -0.247 N 
HETATM   19  O   UNL     1     -42.267 -48.202  11.662  1.00  0.00    -0.223 OA
ATOM     20  HN  UNL     1     -44.307 -48.578  10.982  1.00  0.00     0.196 HD
BRANCH  16  21
HETATM   21  C   UNL     1     -43.816 -47.175   8.585  1.00  0.00     0.047 C 
HETATM   22  C   UNL     1     -43.515 -48.112   7.414  1.00  0.00     0.017 C 
HETATM   23  C   UNL     1     -45.297 -47.247   8.959  1.00  0.00     0.017 C 
ENDBRANCH  16  21
ENDBRANCH  13  14
ENDBRANCH   1  13
TORSDOF 6
ENDMDL
MODEL 8
REMARK VINA RESULT:      -5.1      3.021      6.482
REMARK  6 active torsions:
REMARK  status: ('A' for Active; 'I' for Inactive)
REMARK    1  A    between atoms: C_2  and  N_4 
REMARK    2  A    between atoms: C_7  and  N_10 
REMARK    3  A    between atoms: N_10  and  C_11 
REMARK    4  A    between atoms: C_11  and  C_12 
REMARK    5  A    between atoms: C_12  and  C_13 
REMARK    6  A    between atoms: C_16  and  C_20 
ROOT
HETATM    1  C   UNL     1     -40.866 -52.175  11.804  1.00  0.00     0.278 C 
ENDROOT
BRANCH   1   2
HETATM    2  N   UNL     1     -40.203 -51.070  12.512  1.00  0.00     0.088 N 
HETATM    3  H   UNL     1     -40.837 -50.699  13.222  1.00  0.00     0.316 HD
BRANCH   2   4
HETATM    4  C   UNL     1     -39.795 -49.968  11.614  1.00  0.00     0.223 C 
HETATM    5  C   UNL     1     -38.731 -49.050  12.231  1.00  0.00     0.066 C 
HETATM    6  C   UNL     1     -39.310 -48.267  13.410  1.00  0.00     0.275 C 
HETATM    7  N   UNL     1     -40.415 -47.373  13.008  1.00  0.00     0.092 N 
HETATM    8  C   UNL     1     -41.478 -48.195  12.396  1.00  0.00     0.275 C 
HETATM    9  C   UNL     1     -41.016 -49.101  11.244  1.00  0.00     0.066 C 
BRANCH   7  10
HETATM   10  C   UNL     1     -39.968 -46.197  12.229  1.00  0.00     0.215 C 
HETATM   11  C   UNL     1     -41.121 -45.432  11.559  1.00  0.00     0.042 C 
HETATM   12  C   UNL     1     -39.227 -45.192  13.134  1.00  0.00     0.042 C 
ENDBRANCH   7  10
ENDBRANCH   2   4
ENDBRANCH   1   2
BRANCH   1  13
HETATM   13  C   UNL     1     -41.479 -53.182  12.782  1.00  0.00     0.117 C 
BRANCH  13  14
HETATM   14  C   UNL     1     -42.943 -52.987  12.864  1.00  0.00     0.149 A 
HETATM   15  N   UNL     1     -43.646 -51.885  12.741  1.00  0.00    -0.327 N 
HETATM   16  C   UNL     1     -44.930 -52.343  12.901  1.00  0.00     0.107 A 
ATOM     17  HN  UNL     1     -43.323 -50.934  12.570  1.00  0.00     0.169 HD
HETATM   18  N   UNL     1     -45.038 -53.665  13.098  1.00  0.00    -0.247 N 
HETATM   19  O   UNL     1     -43.710 -54.099  13.074  1.00  0.00    -0.223 OA
ATOM     20  HN  UNL     1     -45.884 -54.218  13.233  1.00  0.00     0.196 HD
BRANCH  16  21
HETATM   21  C   UNL     1     -46.109 -51.429  12.883  1.00  0.00     0.047 C 
HETATM   22  C   UNL     1     -47.070 -51.803  11.752  1.00  0.00     0.017 C 
HETATM   23  C   UNL     1     -46.839 -51.436  14.227  1.00  0.00     0.017 C 
ENDBRANCH  16  21
ENDBRANCH  13  14
ENDBRANCH   1  13
TORSDOF 6
ENDMDL
MODEL 9
REMARK VINA RESULT:      -5.0      2.685      6.385
REMARK  6 active torsions:
REMARK  status: ('A' for Active; 'I' for Inactive)
REMARK    1  A    between atoms: C_2  and  N_4 
REMARK    2  A    between atoms: C_7  and  N_10 
REMARK    3  A    between atoms: N_10  and  C_11 
REMARK    4  A    between atoms: C_11  and  C_12 
REMARK    5  A    between atoms: C_12  and  C_13 
REMARK    6  A    between atoms: C_16  and  C_20 
ROOT
HETATM    1  C   UNL     1     -38.923 -51.989  14.797  1.00  0.00     0.278 C 
ENDROOT
BRANCH   1   2
HETATM    2  N   UNL     1     -38.764 -51.020  13.702  1.00  0.00     0.088 N 
HETATM    3  H   UNL     1     -37.781 -50.985  13.425  1.00  0.00     0.316 HD
BRANCH   2   4
HETATM    4  C   UNL     1     -39.206 -49.656  14.066  1.00  0.00     0.223 C 
HETATM    5  C   UNL     1     -40.712 -49.437  13.868  1.00  0.00     0.066 C 
HETATM    6  C   UNL     1     -41.073 -49.475  12.383  1.00  0.00     0.275 C 
HETATM    7  N   UNL     1     -40.415 -48.400  11.612  1.00  0.00     0.092 N 
HETATM    8  C   UNL     1     -38.954 -48.547  11.764  1.00  0.00     0.275 C 
HETATM    9  C   UNL     1     -38.455 -48.608  13.217  1.00  0.00     0.066 C 
BRANCH   7  10
HETATM   10  C   UNL     1     -40.969 -47.056  11.885  1.00  0.00     0.215 C 
HETATM   11  C   UNL     1     -40.372 -45.955  10.992  1.00  0.00     0.042 C 
HETATM   12  C   UNL     1     -42.495 -47.037  11.663  1.00  0.00     0.042 C 
ENDBRANCH   7  10
ENDBRANCH   2   4
ENDBRANCH   1   2
BRANCH   1  13
HETATM   13  C   UNL     1     -39.413 -53.344  14.280  1.00  0.00     0.117 C 
BRANCH  13  14
HETATM   14  C   UNL     1     -40.630 -53.168  13.458  1.00  0.00     0.149 A 
HETATM   15  N   UNL     1     -41.892 -53.177  13.823  1.00  0.00    -0.327 N 
HETATM   16  C   UNL     1     -42.537 -52.950  12.634  1.00  0.00     0.107 A 
ATOM     17  HN  UNL     1     -42.290 -53.318  14.751  1.00  0.00     0.169 HD
HETATM   18  N   UNL     1     -41.732 -52.788  11.575  1.00  0.00    -0.247 N 
HETATM   19  O   UNL     1     -40.454 -52.933  12.123  1.00  0.00    -0.223 OA
ATOM     20  HN  UNL     1     -41.988 -52.604  10.605  1.00  0.00     0.196 HD
BRANCH  16  21
HETATM   21  C   UNL     1     -44.025 -52.915  12.530  1.00  0.00     0.047 C 
HETATM   22  C   UNL     1     -44.639 -54.208  13.071  1.00  0.00     0.017 C 
HETATM   23  C   UNL     1     -44.605 -51.703  13.263  1.00  0.00     0.017 C 
ENDBRANCH  16  21
ENDBRANCH  13  14
ENDBRANCH   1  13
TORSDOF 6
ENDMDL
