MODEL 1
REMARK VINA RESULT:      -6.8      0.000      0.000
REMARK  4 active torsions:
REMARK  status: ('A' for Active; 'I' for Inactive)
REMARK       I    between atoms: N_2  and  C_3 
REMARK    1  A    between atoms: C_3  and  C_5 
REMARK    2  A    between atoms: C_8  and  N_9 
REMARK    3  A    between atoms: N_9  and  C_10 
REMARK    4  A    between atoms: C_16  and  O_17 
ROOT
HETATM    1  C   UNL     1     -40.035 -51.499  12.499  1.00  0.00     0.116 A 
HETATM    2  C   UNL     1     -40.337 -52.185  13.658  1.00  0.00     0.040 A 
HETATM    3  C   UNL     1     -41.510 -52.939  13.689  1.00  0.00     0.052 A 
HETATM    4  C   UNL     1     -42.324 -53.017  12.561  1.00  0.00     0.116 A 
HETATM    5  N   UNL     1     -42.006 -52.297  11.464  1.00  0.00    -0.285 N 
ATOM      6  HN  UNL     1     -42.619 -52.326  10.650  1.00  0.00     0.188 HD
HETATM    7  N   UNL     1     -40.861 -51.517  11.427  1.00  0.00    -0.294 N 
ATOM      8  HN  UNL     1     -40.642 -50.962  10.600  1.00  0.00     0.187 HD
ENDROOT
BRANCH   4   9
HETATM    9  N   UNL     1     -43.386 -53.930  12.591  1.00  0.00    -0.368 N 
HETATM   10  H   UNL     1     -43.084 -54.831  12.945  1.00  0.00     0.161 HD
BRANCH   9  11
HETATM   11  C   UNL     1     -44.700 -53.481  13.084  1.00  0.00     0.112 C 
HETATM   12  C   UNL     1     -44.797 -51.951  13.132  1.00  0.00     0.028 C 
HETATM   13  C   UNL     1     -46.249 -51.468  13.195  1.00  0.00     0.002 C 
HETATM   14  C   UNL     1     -46.914 -51.430  14.569  1.00  0.00     0.000 C 
HETATM   15  C   UNL     1     -46.844 -52.655  15.481  1.00  0.00     0.002 C 
HETATM   16  C   UNL     1     -46.477 -53.993  14.835  1.00  0.00     0.034 C 
HETATM   17  C   UNL     1     -44.983 -54.130  14.473  1.00  0.00     0.143 C 
BRANCH  17  18
HETATM   18  O   UNL     1     -44.259 -53.552  15.575  1.00  0.00    -0.389 OA
HETATM   19  C   UNL     1     -43.549 -54.438  16.413  1.00  0.00     0.202 C 
ENDBRANCH  17  18
ENDBRANCH   9  11
ENDBRANCH   4   9
BRANCH   1  20
HETATM   20  C   UNL     1     -38.729 -50.791  12.344  1.00  0.00     0.269 C 
HETATM   21  N   UNL     1     -38.436 -50.364  11.062  1.00  0.00    -0.360 N 
HETATM   22  C   UNL     1     -37.133 -49.864  10.706  1.00  0.00     0.149 C 
HETATM   23  H   UNL     1     -39.090 -50.616  10.329  1.00  0.00     0.162 HD
HETATM   24  O   UNL     1     -37.974 -50.646  13.301  1.00  0.00    -0.266 OA
ENDBRANCH   1  20
TORSDOF 4
ENDMDL
MODEL 2
REMARK VINA RESULT:      -6.7      4.924      8.015
REMARK  4 active torsions:
REMARK  status: ('A' for Active; 'I' for Inactive)
REMARK       I    between atoms: N_2  and  C_3 
REMARK    1  A    between atoms: C_3  and  C_5 
REMARK    2  A    between atoms: C_8  and  N_9 
REMARK    3  A    between atoms: N_9  and  C_10 
REMARK    4  A    between atoms: C_16  and  O_17 
ROOT
HETATM    1  C   UNL     1     -41.736 -51.039  12.102  1.00  0.00     0.116 A 
HETATM    2  C   UNL     1     -42.327 -49.903  12.617  1.00  0.00     0.040 A 
HETATM    3  C   UNL     1     -41.994 -48.673  12.050  1.00  0.00     0.052 A 
HETATM    4  C   UNL     1     -41.116 -48.613  10.970  1.00  0.00     0.116 A 
HETATM    5  N   UNL     1     -40.533 -49.748  10.528  1.00  0.00    -0.285 N 
ATOM      6  HN  UNL     1     -39.864 -49.702   9.759  1.00  0.00     0.188 HD
HETATM    7  N   UNL     1     -40.829 -50.975  11.101  1.00  0.00    -0.294 N 
ATOM      8  HN  UNL     1     -40.367 -51.822  10.770  1.00  0.00     0.187 HD
ENDROOT
BRANCH   4   9
HETATM    9  N   UNL     1     -40.961 -47.378  10.328  1.00  0.00    -0.368 N 
HETATM   10  H   UNL     1     -41.491 -47.346   9.464  1.00  0.00     0.161 HD
BRANCH   9  11
HETATM   11  C   UNL     1     -41.015 -46.144  11.132  1.00  0.00     0.112 C 
HETATM   12  C   UNL     1     -42.307 -45.357  10.879  1.00  0.00     0.028 C 
HETATM   13  C   UNL     1     -42.596 -44.351  11.997  1.00  0.00     0.002 C 
HETATM   14  C   UNL     1     -41.899 -42.994  11.914  1.00  0.00     0.000 C 
HETATM   15  C   UNL     1     -40.391 -42.929  11.675  1.00  0.00     0.002 C 
HETATM   16  C   UNL     1     -39.581 -44.200  11.938  1.00  0.00     0.034 C 
HETATM   17  C   UNL     1     -39.743 -45.287  10.854  1.00  0.00     0.143 C 
BRANCH  17  18
HETATM   18  O   UNL     1     -39.742 -44.587   9.596  1.00  0.00    -0.389 OA
HETATM   19  C   UNL     1     -38.565 -44.661   8.821  1.00  0.00     0.202 C 
ENDBRANCH  17  18
ENDBRANCH   9  11
ENDBRANCH   4   9
BRANCH   1  20
HETATM   20  C   UNL     1     -42.152 -52.398  12.563  1.00  0.00     0.269 C 
HETATM   21  N   UNL     1     -43.398 -52.813  12.129  1.00  0.00    -0.360 N 
HETATM   22  C   UNL     1     -44.032 -53.993  12.658  1.00  0.00     0.149 C 
HETATM   23  H   UNL     1     -43.946 -52.150  11.594  1.00  0.00     0.162 HD
HETATM   24  O   UNL     1     -41.431 -53.059  13.305  1.00  0.00    -0.266 OA
ENDBRANCH   1  20
TORSDOF 4
ENDMDL
MODEL 3
REMARK VINA RESULT:      -6.5      3.477      3.779
REMARK  4 active torsions:
REMARK  status: ('A' for Active; 'I' for Inactive)
REMARK       I    between atoms: N_2  and  C_3 
REMARK    1  A    between atoms: C_3  and  C_5 
REMARK    2  A    between atoms: C_8  and  N_9 
REMARK    3  A    between atoms: N_9  and  C_10 
REMARK    4  A    between atoms: C_16  and  O_17 
ROOT
HETATM    1  C   UNL     1     -41.846 -47.477  10.991  1.00  0.00     0.116 A 
HETATM    2  C   UNL     1     -42.607 -47.354  12.135  1.00  0.00     0.040 A 
HETATM    3  C   UNL     1     -42.910 -48.512  12.852  1.00  0.00     0.052 A 
HETATM    4  C   UNL     1     -42.419 -49.746  12.431  1.00  0.00     0.116 A 
HETATM    5  N   UNL     1     -41.711 -49.820  11.284  1.00  0.00    -0.285 N 
ATOM      6  HN  UNL     1     -41.380 -50.728  10.956  1.00  0.00     0.188 HD
HETATM    7  N   UNL     1     -41.428 -48.684  10.543  1.00  0.00    -0.294 N 
ATOM      8  HN  UNL     1     -40.909 -48.756   9.667  1.00  0.00     0.187 HD
ENDROOT
BRANCH   4   9
HETATM    9  N   UNL     1     -42.601 -50.841  13.285  1.00  0.00    -0.368 N 
HETATM   10  H   UNL     1     -42.262 -50.636  14.219  1.00  0.00     0.161 HD
BRANCH   9  11
HETATM   11  C   UNL     1     -43.875 -51.580  13.238  1.00  0.00     0.112 C 
HETATM   12  C   UNL     1     -44.844 -51.110  14.330  1.00  0.00     0.028 C 
HETATM   13  C   UNL     1     -46.290 -51.515  14.028  1.00  0.00     0.002 C 
HETATM   14  C   UNL     1     -46.719 -52.926  14.426  1.00  0.00     0.000 C 
HETATM   15  C   UNL     1     -45.860 -54.123  14.021  1.00  0.00     0.002 C 
HETATM   16  C   UNL     1     -44.841 -53.911  12.899  1.00  0.00     0.034 C 
HETATM   17  C   UNL     1     -43.593 -53.110  13.324  1.00  0.00     0.143 C 
BRANCH  17  18
HETATM   18  O   UNL     1     -43.244 -53.594  14.634  1.00  0.00    -0.389 OA
HETATM   19  C   UNL     1     -41.970 -54.181  14.785  1.00  0.00     0.202 C 
ENDBRANCH  17  18
ENDBRANCH   9  11
ENDBRANCH   4   9
BRANCH   1  20
HETATM   20  C   UNL     1     -41.364 -46.270  10.255  1.00  0.00     0.269 C 
HETATM   21  N   UNL     1     -40.000 -46.049  10.310  1.00  0.00    -0.360 N 
HETATM   22  C   UNL     1     -39.409 -44.822   9.842  1.00  0.00     0.149 C 
HETATM   23  H   UNL     1     -39.452 -46.678  10.886  1.00  0.00     0.162 HD
HETATM   24  O   UNL     1     -42.154 -45.525   9.683  1.00  0.00    -0.266 OA
ENDBRANCH   1  20
TORSDOF 4
ENDMDL
MODEL 4
REMARK VINA RESULT:      -6.3      2.344      6.803
REMARK  4 active torsions:
REMARK  status: ('A' for Active; 'I' for Inactive)
REMARK       I    between atoms: N_2  and  C_3 
REMARK    1  A    between atoms: C_3  and  C_5 
REMARK    2  A    between atoms: C_8  and  N_9 
REMARK    3  A    between atoms: N_9  and  C_10 
REMARK    4  A    between atoms: C_16  and  O_17 
ROOT
HETATM    1  C   UNL     1     -43.195 -53.950  13.257  1.00  0.00     0.116 A 
HETATM    2  C   UNL     1     -41.874 -53.924  13.657  1.00  0.00     0.040 A 
HETATM    3  C   UNL     1     -40.993 -53.093  12.965  1.00  0.00     0.052 A 
HETATM    4  C   UNL     1     -41.457 -52.290  11.925  1.00  0.00     0.116 A 
HETATM    5  N   UNL     1     -42.749 -52.380  11.545  1.00  0.00    -0.285 N 
ATOM      6  HN  UNL     1     -43.082 -51.818  10.762  1.00  0.00     0.188 HD
HETATM    7  N   UNL     1     -43.631 -53.224  12.202  1.00  0.00    -0.294 N 
ATOM      8  HN  UNL     1     -44.600 -53.298  11.892  1.00  0.00     0.187 HD
ENDROOT
BRANCH   4   9
HETATM    9  N   UNL     1     -40.570 -51.347  11.391  1.00  0.00    -0.368 N 
HETATM   10  H   UNL     1     -40.412 -51.512  10.403  1.00  0.00     0.161 HD
BRANCH   9  11
HETATM   11  C   UNL     1     -40.726 -49.929  11.762  1.00  0.00     0.112 C 
HETATM   12  C   UNL     1     -41.124 -49.066  10.558  1.00  0.00     0.028 C 
HETATM   13  C   UNL     1     -41.725 -47.724  10.986  1.00  0.00     0.002 C 
HETATM   14  C   UNL     1     -40.749 -46.595  11.315  1.00  0.00     0.000 C 
HETATM   15  C   UNL     1     -39.585 -46.853  12.270  1.00  0.00     0.002 C 
HETATM   16  C   UNL     1     -39.672 -48.088  13.170  1.00  0.00     0.034 C 
HETATM   17  C   UNL     1     -39.417 -49.422  12.439  1.00  0.00     0.143 C 
BRANCH  17  18
HETATM   18  O   UNL     1     -38.323 -49.170  11.538  1.00  0.00    -0.389 OA
HETATM   19  C   UNL     1     -37.345 -50.180  11.414  1.00  0.00     0.202 C 
ENDBRANCH  17  18
ENDBRANCH   9  11
ENDBRANCH   4   9
BRANCH   1  20
HETATM   20  C   UNL     1     -44.220 -54.704  14.039  1.00  0.00     0.269 C 
HETATM   21  N   UNL     1     -45.531 -54.331  13.809  1.00  0.00    -0.360 N 
HETATM   22  C   UNL     1     -46.612 -54.803  14.636  1.00  0.00     0.149 C 
HETATM   23  H   UNL     1     -45.687 -53.547  13.186  1.00  0.00     0.162 HD
HETATM   24  O   UNL     1     -43.886 -55.563  14.849  1.00  0.00    -0.266 OA
ENDBRANCH   1  20
TORSDOF 4
ENDMDL
MODEL 5
REMARK VINA RESULT:      -6.3      4.955      6.983
REMARK  4 active torsions:
REMARK  status: ('A' for Active; 'I' for Inactive)
REMARK       I    between atoms: N_2  and  C_3 
REMARK    1  A    between atoms: C_3  and  C_5 
REMARK    2  A    between atoms: C_8  and  N_9 
REMARK    3  A    between atoms: N_9  and  C_10 
REMARK    4  A    between atoms: C_16  and  O_17 
ROOT
HETATM    1  C   UNL     1     -42.781 -46.115  10.368  1.00  0.00     0.116 A 
HETATM    2  C   UNL     1     -42.499 -46.523  11.656  1.00  0.00     0.040 A 
HETATM    3  C   UNL     1     -41.945 -47.789  11.839  1.00  0.00     0.052 A 
HETATM    4  C   UNL     1     -41.655 -48.594  10.738  1.00  0.00     0.116 A 
HETATM    5  N   UNL     1     -41.985 -48.166   9.501  1.00  0.00    -0.285 N 
ATOM      6  HN  UNL     1     -41.805 -48.768   8.698  1.00  0.00     0.188 HD
HETATM    7  N   UNL     1     -42.566 -46.923   9.305  1.00  0.00    -0.294 N 
ATOM      8  HN  UNL     1     -42.828 -46.620   8.367  1.00  0.00     0.187 HD
ENDROOT
BRANCH   4   9
HETATM    9  N   UNL     1     -40.935 -49.773  10.969  1.00  0.00    -0.368 N 
HETATM   10  H   UNL     1     -40.494 -50.104  10.118  1.00  0.00     0.161 HD
BRANCH   9  11
HETATM   11  C   UNL     1     -40.098 -49.874  12.179  1.00  0.00     0.112 C 
HETATM   12  C   UNL     1     -38.603 -49.865  11.837  1.00  0.00     0.028 C 
HETATM   13  C   UNL     1     -37.739 -49.513  13.052  1.00  0.00     0.002 C 
HETATM   14  C   UNL     1     -37.387 -50.648  14.011  1.00  0.00     0.000 C 
HETATM   15  C   UNL     1     -38.490 -51.566  14.538  1.00  0.00     0.002 C 
HETATM   16  C   UNL     1     -39.933 -51.073  14.419  1.00  0.00     0.034 C 
HETATM   17  C   UNL     1     -40.507 -51.142  12.988  1.00  0.00     0.143 C 
BRANCH  17  18
HETATM   18  O   UNL     1     -40.044 -52.390  12.441  1.00  0.00    -0.389 OA
HETATM   19  C   UNL     1     -40.890 -53.510  12.591  1.00  0.00     0.202 C 
ENDBRANCH  17  18
ENDBRANCH   9  11
ENDBRANCH   4   9
BRANCH   1  20
HETATM   20  C   UNL     1     -43.239 -44.721  10.087  1.00  0.00     0.269 C 
HETATM   21  N   UNL     1     -42.881 -43.778  11.033  1.00  0.00    -0.360 N 
HETATM   22  C   UNL     1     -43.426 -42.445  11.022  1.00  0.00     0.149 C 
HETATM   23  H   UNL     1     -42.397 -44.112  11.859  1.00  0.00     0.162 HD
HETATM   24  O   UNL     1     -43.918 -44.471   9.095  1.00  0.00    -0.266 OA
ENDBRANCH   1  20
TORSDOF 4
ENDMDL
MODEL 6
REMARK VINA RESULT:      -6.1      3.623      4.933
REMARK  4 active torsions:
REMARK  status: ('A' for Active; 'I' for Inactive)
REMARK       I    between atoms: N_2  and  C_3 
REMARK    1  A    between atoms: C_3  and  C_5 
REMARK    2  A    between atoms: C_8  and  N_9 
REMARK    3  A    between atoms: N_9  and  C_10 
REMARK    4  A    between atoms: C_16  and  O_17 
ROOT
HETATM    1  C   UNL     1     -40.883 -47.168  10.990  1.00  0.00     0.116 A 
HETATM    2  C   UNL     1     -40.217 -47.491  12.156  1.00  0.00     0.040 A 
HETATM    3  C   UNL     1     -39.946 -48.836  12.406  1.00  0.00     0.052 A 
HETATM    4  C   UNL     1     -40.309 -49.810  11.479  1.00  0.00     0.116 A 
HETATM    5  N   UNL     1     -40.993 -49.448  10.373  1.00  0.00    -0.285 N 
ATOM      6  HN  UNL     1     -41.291 -50.164   9.710  1.00  0.00     0.188 HD
HETATM    7  N   UNL     1     -41.299 -48.120  10.124  1.00  0.00    -0.294 N 
ATOM      8  HN  UNL     1     -41.834 -47.861   9.294  1.00  0.00     0.187 HD
ENDROOT
BRANCH   4   9
HETATM    9  N   UNL     1     -39.851 -51.116  11.698  1.00  0.00    -0.368 N 
HETATM   10  H   UNL     1     -38.985 -51.116  12.225  1.00  0.00     0.161 HD
BRANCH   9  11
HETATM   11  C   UNL     1     -40.817 -52.155  12.097  1.00  0.00     0.112 C 
HETATM   12  C   UNL     1     -42.171 -51.551  12.490  1.00  0.00     0.028 C 
HETATM   13  C   UNL     1     -43.295 -52.592  12.462  1.00  0.00     0.002 C 
HETATM   14  C   UNL     1     -43.465 -53.469  13.702  1.00  0.00     0.000 C 
HETATM   15  C   UNL     1     -42.252 -54.182  14.299  1.00  0.00     0.002 C 
HETATM   16  C   UNL     1     -41.012 -54.325  13.414  1.00  0.00     0.034 C 
HETATM   17  C   UNL     1     -40.207 -53.020  13.241  1.00  0.00     0.143 C 
BRANCH  17  18
HETATM   18  O   UNL     1     -40.192 -52.395  14.537  1.00  0.00    -0.389 OA
HETATM   19  C   UNL     1     -38.933 -52.031  15.060  1.00  0.00     0.202 C 
ENDBRANCH  17  18
ENDBRANCH   9  11
ENDBRANCH   4   9
BRANCH   1  20
HETATM   20  C   UNL     1     -41.080 -45.743  10.588  1.00  0.00     0.269 C 
HETATM   21  N   UNL     1     -40.258 -44.830  11.223  1.00  0.00    -0.360 N 
HETATM   22  C   UNL     1     -40.468 -43.410  11.110  1.00  0.00     0.149 C 
HETATM   23  H   UNL     1     -39.640 -45.187  11.944  1.00  0.00     0.162 HD
HETATM   24  O   UNL     1     -41.946 -45.433   9.775  1.00  0.00    -0.266 OA
ENDBRANCH   1  20
TORSDOF 4
ENDMDL
MODEL 7
REMARK VINA RESULT:      -5.9      5.098      7.537
REMARK  4 active torsions:
REMARK  status: ('A' for Active; 'I' for Inactive)
REMARK       I    between atoms: N_2  and  C_3 
REMARK    1  A    between atoms: C_3  and  C_5 
REMARK    2  A    between atoms: C_8  and  N_9 
REMARK    3  A    between atoms: N_9  and  C_10 
REMARK    4  A    between atoms: C_16  and  O_17 
ROOT
HETATM    1  C   UNL     1     -42.987 -47.525  10.076  1.00  0.00     0.116 A 
HETATM    2  C   UNL     1     -43.085 -48.072  11.339  1.00  0.00     0.040 A 
HETATM    3  C   UNL     1     -41.984 -47.965  12.189  1.00  0.00     0.052 A 
HETATM    4  C   UNL     1     -40.839 -47.290  11.772  1.00  0.00     0.116 A 
HETATM    5  N   UNL     1     -40.777 -46.807  10.513  1.00  0.00    -0.285 N 
ATOM      6  HN  UNL     1     -39.926 -46.342  10.195  1.00  0.00     0.188 HD
HETATM    7  N   UNL     1     -41.850 -46.932   9.645  1.00  0.00    -0.294 N 
ATOM      8  HN  UNL     1     -41.783 -46.580   8.690  1.00  0.00     0.187 HD
ENDROOT
BRANCH   4   9
HETATM    9  N   UNL     1     -39.841 -47.057  12.727  1.00  0.00    -0.368 N 
HETATM   10  H   UNL     1     -40.236 -46.701  13.590  1.00  0.00     0.161 HD
BRANCH   9  11
HETATM   11  C   UNL     1     -38.773 -48.058  12.903  1.00  0.00     0.112 C 
HETATM   12  C   UNL     1     -38.834 -49.149  11.827  1.00  0.00     0.028 C 
HETATM   13  C   UNL     1     -37.512 -49.914  11.709  1.00  0.00     0.002 C 
HETATM   14  C   UNL     1     -37.281 -51.064  12.687  1.00  0.00     0.000 C 
HETATM   15  C   UNL     1     -37.502 -50.844  14.183  1.00  0.00     0.002 C 
HETATM   16  C   UNL     1     -37.543 -49.399  14.684  1.00  0.00     0.034 C 
HETATM   17  C   UNL     1     -38.848 -48.650  14.343  1.00  0.00     0.143 C 
BRANCH  17  18
HETATM   18  O   UNL     1     -39.910 -49.597  14.558  1.00  0.00    -0.389 OA
HETATM   19  C   UNL     1     -40.738 -49.391  15.682  1.00  0.00     0.202 C 
ENDBRANCH  17  18
ENDBRANCH   9  11
ENDBRANCH   4   9
BRANCH   1  20
HETATM   20  C   UNL     1     -44.171 -47.475   9.167  1.00  0.00     0.269 C 
HETATM   21  N   UNL     1     -45.347 -47.970   9.699  1.00  0.00    -0.360 N 
HETATM   22  C   UNL     1     -46.515 -48.193   8.887  1.00  0.00     0.149 C 
HETATM   23  H   UNL     1     -45.299 -48.378  10.626  1.00  0.00     0.162 HD
HETATM   24  O   UNL     1     -44.065 -47.053   8.019  1.00  0.00    -0.266 OA
ENDBRANCH   1  20
TORSDOF 4
ENDMDL
MODEL 8
REMARK VINA RESULT:      -5.9      1.858      6.582
REMARK  4 active torsions:
REMARK  status: ('A' for Active; 'I' for Inactive)
REMARK       I    between atoms: N_2  and  C_3 
REMARK    1  A    between atoms: C_3  and  C_5 
REMARK    2  A    between atoms: C_8  and  N_9 
REMARK    3  A    between atoms: N_9  and  C_10 
REMARK    4  A    between atoms: C_16  and  O_17 
ROOT
HETATM    1  C   UNL     1     -43.713 -53.926  13.139  1.00  0.00     0.116 A 
HETATM    2  C   UNL     1     -42.549 -54.429  13.686  1.00  0.00     0.040 A 
HETATM    3  C   UNL     1     -41.334 -53.926  13.223  1.00  0.00     0.052 A 
HETATM    4  C   UNL     1     -41.312 -52.918  12.261  1.00  0.00     0.116 A 
HETATM    5  N   UNL     1     -42.475 -52.487  11.729  1.00  0.00    -0.285 N 
ATOM      6  HN  UNL     1     -42.459 -51.773  11.000  1.00  0.00     0.188 HD
HETATM    7  N   UNL     1     -43.691 -52.998  12.155  1.00  0.00    -0.294 N 
ATOM      8  HN  UNL     1     -44.561 -52.678  11.731  1.00  0.00     0.187 HD
ENDROOT
BRANCH   4   9
HETATM    9  N   UNL     1     -40.076 -52.328  11.970  1.00  0.00    -0.368 N 
HETATM   10  H   UNL     1     -39.849 -52.422  10.986  1.00  0.00     0.161 HD
BRANCH   9  11
HETATM   11  C   UNL     1     -39.756 -51.013  12.555  1.00  0.00     0.112 C 
HETATM   12  C   UNL     1     -38.385 -50.504  12.092  1.00  0.00     0.028 C 
HETATM   13  C   UNL     1     -38.232 -48.995  12.302  1.00  0.00     0.002 C 
HETATM   14  C   UNL     1     -37.802 -48.522  13.690  1.00  0.00     0.000 C 
HETATM   15  C   UNL     1     -38.531 -49.042  14.928  1.00  0.00     0.002 C 
HETATM   16  C   UNL     1     -39.905 -49.682  14.720  1.00  0.00     0.034 C 
HETATM   17  C   UNL     1     -39.856 -51.097  14.108  1.00  0.00     0.143 C 
BRANCH  17  18
HETATM   18  O   UNL     1     -38.758 -51.765  14.755  1.00  0.00    -0.389 OA
HETATM   19  C   UNL     1     -39.069 -52.608  15.843  1.00  0.00     0.202 C 
ENDBRANCH  17  18
ENDBRANCH   9  11
ENDBRANCH   4   9
BRANCH   1  20
HETATM   20  C   UNL     1     -45.048 -54.312  13.686  1.00  0.00     0.269 C 
HETATM   21  N   UNL     1     -45.895 -53.259  13.976  1.00  0.00    -0.360 N 
HETATM   22  C   UNL     1     -47.122 -53.449  14.706  1.00  0.00     0.149 C 
HETATM   23  H   UNL     1     -45.527 -52.322  13.856  1.00  0.00     0.162 HD
HETATM   24  O   UNL     1     -45.328 -55.490  13.887  1.00  0.00    -0.266 OA
ENDBRANCH   1  20
TORSDOF 4
ENDMDL
MODEL 9
REMARK VINA RESULT:      -5.8      3.872      6.507
REMARK  4 active torsions:
REMARK  status: ('A' for Active; 'I' for Inactive)
REMARK       I    between atoms: N_2  and  C_3 
REMARK    1  A    between atoms: C_3  and  C_5 
REMARK    2  A    between atoms: C_8  and  N_9 
REMARK    3  A    between atoms: N_9  and  C_10 
REMARK    4  A    between atoms: C_16  and  O_17 
ROOT
HETATM    1  C   UNL     1     -40.555 -52.261  12.518  1.00  0.00     0.116 A 
HETATM    2  C   UNL     1     -39.579 -51.597  13.233  1.00  0.00     0.040 A 
HETATM    3  C   UNL     1     -39.161 -50.349  12.773  1.00  0.00     0.052 A 
HETATM    4  C   UNL     1     -39.748 -49.785  11.642  1.00  0.00     0.116 A 
HETATM    5  N   UNL     1     -40.670 -50.492  10.954  1.00  0.00    -0.285 N 
ATOM      6  HN  UNL     1     -41.076 -50.095  10.106  1.00  0.00     0.188 HD
HETATM    7  N   UNL     1     -41.075 -51.747  11.380  1.00  0.00    -0.294 N 
ATOM      8  HN  UNL     1     -41.758 -52.278  10.840  1.00  0.00     0.187 HD
ENDROOT
BRANCH   4   9
HETATM    9  N   UNL     1     -39.420 -48.459  11.334  1.00  0.00    -0.368 N 
HETATM   10  H   UNL     1     -38.773 -48.414  10.554  1.00  0.00     0.161 HD
BRANCH   9  11
HETATM   11  C   UNL     1     -40.489 -47.445  11.308  1.00  0.00     0.112 C 
HETATM   12  C   UNL     1     -39.954 -46.065  10.908  1.00  0.00     0.028 C 
HETATM   13  C   UNL     1     -41.073 -45.130  10.438  1.00  0.00     0.002 C 
HETATM   14  C   UNL     1     -41.854 -44.378  11.515  1.00  0.00     0.000 C 
HETATM   15  C   UNL     1     -42.425 -45.141  12.709  1.00  0.00     0.002 C 
HETATM   16  C   UNL     1     -42.551 -46.661  12.580  1.00  0.00     0.034 C 
HETATM   17  C   UNL     1     -41.211 -47.416  12.690  1.00  0.00     0.143 C 
BRANCH  17  18
HETATM   18  O   UNL     1     -40.480 -46.766  13.746  1.00  0.00    -0.389 OA
HETATM   19  C   UNL     1     -40.159 -47.542  14.880  1.00  0.00     0.202 C 
ENDBRANCH  17  18
ENDBRANCH   9  11
ENDBRANCH   4   9
BRANCH   1  20
HETATM   20  C   UNL     1     -41.151 -53.532  13.029  1.00  0.00     0.269 C 
HETATM   21  N   UNL     1     -42.460 -53.437  13.464  1.00  0.00    -0.360 N 
HETATM   22  C   UNL     1     -43.102 -54.508  14.182  1.00  0.00     0.149 C 
HETATM   23  H   UNL     1     -42.884 -52.516  13.460  1.00  0.00     0.162 HD
HETATM   24  O   UNL     1     -40.487 -54.562  13.082  1.00  0.00    -0.266 OA
ENDBRANCH   1  20
TORSDOF 4
ENDMDL
