MODEL 1
REMARK VINA RESULT:      -5.6      0.000      0.000
REMARK  4 active torsions:
REMARK  status: ('A' for Active; 'I' for Inactive)
REMARK    1  A    between atoms: C_2  and  C_3 
REMARK       I    between atoms: C_2  and  N_11 
REMARK    2  A    between atoms: C_3  and  N_4 
REMARK    3  A    between atoms: N_11  and  C_12 
REMARK    4  A    between atoms: C_12  and  C_13 
REMARK       I    between atoms: C_13  and  N_15 
ROOT
HETATM    1  O   UNL     1     -43.161 -47.867  12.334  1.00  0.00    -0.272 OA
HETATM    2  C   UNL     1     -42.618 -48.426  11.383  1.00  0.00     0.237 C 
HETATM    3  N   UNL     1     -42.012 -49.652  11.501  1.00  0.00    -0.351 N 
HETATM    4  H   UNL     1     -41.589 -50.122  10.704  1.00  0.00     0.163 HD
ENDROOT
BRANCH   2   5
HETATM    5  C   UNL     1     -42.561 -47.806  10.011  1.00  0.00     0.252 C 
BRANCH   5   6
HETATM    6  N   UNL     1     -43.853 -47.287   9.626  1.00  0.00    -0.278 N 
HETATM    7  C   UNL     1     -44.131 -46.112   8.999  1.00  0.00     0.201 A 
HETATM    8  N   UNL     1     -45.424 -46.029   8.780  1.00  0.00    -0.346 N 
HETATM    9  C   UNL     1     -45.899 -47.200   9.296  1.00  0.00     0.198 A 
ATOM     10  HN  UNL     1     -45.944 -45.275   8.333  1.00  0.00     0.167 HD
HETATM   11  N   UNL     1     -44.973 -48.011   9.817  1.00  0.00    -0.293 N 
ATOM     12  HN  UNL     1     -45.085 -48.930  10.244  1.00  0.00     0.188 HD
ENDBRANCH   5   6
ENDBRANCH   2   5
BRANCH   3  13
HETATM   13  C   UNL     1     -42.017 -50.389  12.751  1.00  0.00     0.225 C 
BRANCH  13  14
HETATM   14  C   UNL     1     -42.526 -51.808  12.511  1.00  0.00     0.237 C 
HETATM   15  O   UNL     1     -41.781 -52.679  12.054  1.00  0.00    -0.272 OA
HETATM   16  N   UNL     1     -43.826 -52.071  12.877  1.00  0.00    -0.351 N 
HETATM   17  C   UNL     1     -44.364 -53.415  12.851  1.00  0.00     0.126 C 
HETATM   18  C   UNL     1     -44.853 -51.117  13.242  1.00  0.00     0.126 C 
HETATM   19  C   UNL     1     -45.640 -53.348  13.687  1.00  0.00     0.021 C 
HETATM   20  C   UNL     1     -45.726 -51.909  14.196  1.00  0.00     0.021 C 
ENDBRANCH  13  14
ENDBRANCH   3  13
TORSDOF 4
ENDMDL
MODEL 2
REMARK VINA RESULT:      -5.5      1.551      1.921
REMARK  4 active torsions:
REMARK  status: ('A' for Active; 'I' for Inactive)
REMARK    1  A    between atoms: C_2  and  C_3 
REMARK       I    between atoms: C_2  and  N_11 
REMARK    2  A    between atoms: C_3  and  N_4 
REMARK    3  A    between atoms: N_11  and  C_12 
REMARK    4  A    between atoms: C_12  and  C_13 
REMARK       I    between atoms: C_13  and  N_15 
ROOT
HETATM    1  O   UNL     1     -43.137 -47.623  11.796  1.00  0.00    -0.272 OA
HETATM    2  C   UNL     1     -42.582 -48.195  10.860  1.00  0.00     0.237 C 
HETATM    3  N   UNL     1     -41.687 -49.218  11.053  1.00  0.00    -0.351 N 
HETATM    4  H   UNL     1     -41.252 -49.706  10.274  1.00  0.00     0.163 HD
ENDROOT
BRANCH   2   5
HETATM    5  C   UNL     1     -42.828 -47.813   9.423  1.00  0.00     0.252 C 
BRANCH   5   6
HETATM    6  N   UNL     1     -44.155 -47.270   9.255  1.00  0.00    -0.278 N 
HETATM    7  C   UNL     1     -44.504 -46.011   8.874  1.00  0.00     0.201 A 
HETATM    8  N   UNL     1     -45.812 -45.924   8.791  1.00  0.00    -0.346 N 
HETATM    9  C   UNL     1     -46.224 -47.180   9.133  1.00  0.00     0.198 A 
ATOM     10  HN  UNL     1     -46.380 -45.118   8.534  1.00  0.00     0.167 HD
HETATM   11  N   UNL     1     -45.245 -48.045   9.416  1.00  0.00    -0.293 N 
ATOM     12  HN  UNL     1     -45.307 -49.028   9.682  1.00  0.00     0.188 HD
ENDBRANCH   5   6
ENDBRANCH   2   5
BRANCH   3  13
HETATM   13  C   UNL     1     -41.376 -49.721  12.378  1.00  0.00     0.225 C 
BRANCH  13  14
HETATM   14  C   UNL     1     -40.691 -51.080  12.265  1.00  0.00     0.237 C 
HETATM   15  O   UNL     1     -39.492 -51.164  11.982  1.00  0.00    -0.272 OA
HETATM   16  N   UNL     1     -41.458 -52.187  12.545  1.00  0.00    -0.351 N 
HETATM   17  C   UNL     1     -40.878 -53.510  12.634  1.00  0.00     0.126 C 
HETATM   18  C   UNL     1     -42.897 -52.249  12.704  1.00  0.00     0.126 C 
HETATM   19  C   UNL     1     -41.931 -54.361  13.342  1.00  0.00     0.021 C 
HETATM   20  C   UNL     1     -43.082 -53.408  13.665  1.00  0.00     0.021 C 
ENDBRANCH  13  14
ENDBRANCH   3  13
TORSDOF 4
ENDMDL
MODEL 3
REMARK VINA RESULT:      -5.5      1.779      2.225
REMARK  4 active torsions:
REMARK  status: ('A' for Active; 'I' for Inactive)
REMARK    1  A    between atoms: C_2  and  C_3 
REMARK       I    between atoms: C_2  and  N_11 
REMARK    2  A    between atoms: C_3  and  N_4 
REMARK    3  A    between atoms: N_11  and  C_12 
REMARK    4  A    between atoms: C_12  and  C_13 
REMARK       I    between atoms: C_13  and  N_15 
ROOT
HETATM    1  O   UNL     1     -41.192 -48.958  11.158  1.00  0.00    -0.272 OA
HETATM    2  C   UNL     1     -42.336 -48.584  11.412  1.00  0.00     0.237 C 
HETATM    3  N   UNL     1     -43.167 -49.284  12.250  1.00  0.00    -0.351 N 
HETATM    4  H   UNL     1     -44.102 -48.955  12.478  1.00  0.00     0.163 HD
ENDROOT
BRANCH   2   5
HETATM    5  C   UNL     1     -42.924 -47.332  10.813  1.00  0.00     0.252 C 
BRANCH   5   6
HETATM    6  N   UNL     1     -43.510 -47.605   9.522  1.00  0.00    -0.278 N 
HETATM    7  C   UNL     1     -44.814 -47.487   9.151  1.00  0.00     0.201 A 
HETATM    8  N   UNL     1     -44.935 -47.782   7.877  1.00  0.00    -0.346 N 
HETATM    9  C   UNL     1     -43.654 -48.075   7.507  1.00  0.00     0.198 A 
ATOM     10  HN  UNL     1     -45.779 -47.790   7.305  1.00  0.00     0.167 HD
HETATM   11  N   UNL     1     -42.742 -47.971   8.477  1.00  0.00    -0.293 N 
ATOM     12  HN  UNL     1     -41.734 -48.126   8.437  1.00  0.00     0.188 HD
ENDBRANCH   5   6
ENDBRANCH   2   5
BRANCH   3  13
HETATM   13  C   UNL     1     -42.729 -50.489  12.929  1.00  0.00     0.225 C 
BRANCH  13  14
HETATM   14  C   UNL     1     -43.367 -50.562  14.314  1.00  0.00     0.237 C 
HETATM   15  O   UNL     1     -42.789 -50.101  15.302  1.00  0.00    -0.272 OA
HETATM   16  N   UNL     1     -44.625 -51.113  14.389  1.00  0.00    -0.351 N 
HETATM   17  C   UNL     1     -45.394 -51.083  15.616  1.00  0.00     0.126 C 
HETATM   18  C   UNL     1     -45.331 -51.851  13.362  1.00  0.00     0.126 C 
HETATM   19  C   UNL     1     -46.827 -51.403  15.195  1.00  0.00     0.021 C 
HETATM   20  C   UNL     1     -46.786 -51.558  13.675  1.00  0.00     0.021 C 
ENDBRANCH  13  14
ENDBRANCH   3  13
TORSDOF 4
ENDMDL
MODEL 4
REMARK VINA RESULT:      -5.4      3.772      4.947
REMARK  4 active torsions:
REMARK  status: ('A' for Active; 'I' for Inactive)
REMARK    1  A    between atoms: C_2  and  C_3 
REMARK       I    between atoms: C_2  and  N_11 
REMARK    2  A    between atoms: C_3  and  N_4 
REMARK    3  A    between atoms: N_11  and  C_12 
REMARK    4  A    between atoms: C_12  and  C_13 
REMARK       I    between atoms: C_13  and  N_15 
ROOT
HETATM    1  O   UNL     1     -42.943 -51.726  12.889  1.00  0.00    -0.272 OA
HETATM    2  C   UNL     1     -42.298 -52.760  12.725  1.00  0.00     0.237 C 
HETATM    3  N   UNL     1     -42.900 -53.986  12.587  1.00  0.00    -0.351 N 
HETATM    4  H   UNL     1     -42.363 -54.834  12.424  1.00  0.00     0.163 HD
ENDROOT
BRANCH   2   5
HETATM    5  C   UNL     1     -40.792 -52.770  12.676  1.00  0.00     0.252 C 
BRANCH   5   6
HETATM    6  N   UNL     1     -40.282 -51.480  12.274  1.00  0.00    -0.278 N 
HETATM    7  C   UNL     1     -39.240 -50.787  12.810  1.00  0.00     0.201 A 
HETATM    8  N   UNL     1     -39.059 -49.676  12.132  1.00  0.00    -0.346 N 
HETATM    9  C   UNL     1     -40.029 -49.740  11.174  1.00  0.00     0.198 A 
ATOM     10  HN  UNL     1     -38.365 -48.945  12.285  1.00  0.00     0.167 HD
HETATM   11  N   UNL     1     -40.798 -50.832  11.212  1.00  0.00    -0.293 N 
ATOM     12  HN  UNL     1     -41.568 -51.102  10.601  1.00  0.00     0.188 HD
ENDBRANCH   5   6
ENDBRANCH   2   5
BRANCH   3  13
HETATM   13  C   UNL     1     -44.344 -54.131  12.578  1.00  0.00     0.225 C 
BRANCH  13  14
HETATM   14  C   UNL     1     -44.849 -54.350  14.002  1.00  0.00     0.237 C 
HETATM   15  O   UNL     1     -44.398 -55.262  14.700  1.00  0.00    -0.272 OA
HETATM   16  N   UNL     1     -45.781 -53.455  14.474  1.00  0.00    -0.351 N 
HETATM   17  C   UNL     1     -46.206 -53.462  15.858  1.00  0.00     0.126 C 
HETATM   18  C   UNL     1     -46.524 -52.468  13.717  1.00  0.00     0.126 C 
HETATM   19  C   UNL     1     -46.896 -52.116  16.069  1.00  0.00     0.021 C 
HETATM   20  C   UNL     1     -46.773 -51.375  14.738  1.00  0.00     0.021 C 
ENDBRANCH  13  14
ENDBRANCH   3  13
TORSDOF 4
ENDMDL
MODEL 5
REMARK VINA RESULT:      -5.3      4.238      6.602
REMARK  4 active torsions:
REMARK  status: ('A' for Active; 'I' for Inactive)
REMARK    1  A    between atoms: C_2  and  C_3 
REMARK       I    between atoms: C_2  and  N_11 
REMARK    2  A    between atoms: C_3  and  N_4 
REMARK    3  A    between atoms: N_11  and  C_12 
REMARK    4  A    between atoms: C_12  and  C_13 
REMARK       I    between atoms: C_13  and  N_15 
ROOT
HETATM    1  O   UNL     1     -42.666 -46.840  11.639  1.00  0.00    -0.272 OA
HETATM    2  C   UNL     1     -42.115 -47.071  10.564  1.00  0.00     0.237 C 
HETATM    3  N   UNL     1     -40.815 -46.707  10.313  1.00  0.00    -0.351 N 
HETATM    4  H   UNL     1     -40.356 -46.926   9.432  1.00  0.00     0.163 HD
ENDROOT
BRANCH   2   5
HETATM    5  C   UNL     1     -42.825 -47.760   9.427  1.00  0.00     0.252 C 
BRANCH   5   6
HETATM    6  N   UNL     1     -44.163 -47.240   9.266  1.00  0.00    -0.278 N 
HETATM    7  C   UNL     1     -44.536 -45.997   8.858  1.00  0.00     0.201 A 
HETATM    8  N   UNL     1     -45.846 -45.932   8.793  1.00  0.00    -0.346 N 
HETATM    9  C   UNL     1     -46.234 -47.184   9.174  1.00  0.00     0.198 A 
ATOM     10  HN  UNL     1     -46.429 -45.140   8.524  1.00  0.00     0.167 HD
HETATM   11  N   UNL     1     -45.239 -48.027   9.463  1.00  0.00    -0.293 N 
ATOM     12  HN  UNL     1     -45.282 -49.003   9.756  1.00  0.00     0.188 HD
ENDBRANCH   5   6
ENDBRANCH   2   5
BRANCH   3  13
HETATM   13  C   UNL     1     -39.993 -46.069  11.323  1.00  0.00     0.225 C 
BRANCH  13  14
HETATM   14  C   UNL     1     -40.010 -44.555  11.121  1.00  0.00     0.237 C 
HETATM   15  O   UNL     1     -40.067 -44.069   9.988  1.00  0.00    -0.272 OA
HETATM   16  N   UNL     1     -40.014 -43.778  12.256  1.00  0.00    -0.351 N 
HETATM   17  C   UNL     1     -40.197 -42.343  12.191  1.00  0.00     0.126 C 
HETATM   18  C   UNL     1     -39.764 -44.200  13.619  1.00  0.00     0.126 C 
HETATM   19  C   UNL     1     -40.544 -41.922  13.618  1.00  0.00     0.021 C 
HETATM   20  C   UNL     1     -40.580 -43.215  14.433  1.00  0.00     0.021 C 
ENDBRANCH  13  14
ENDBRANCH   3  13
TORSDOF 4
ENDMDL
MODEL 6
REMARK VINA RESULT:      -5.3      3.611      4.508
REMARK  4 active torsions:
REMARK  status: ('A' for Active; 'I' for Inactive)
REMARK    1  A    between atoms: C_2  and  C_3 
REMARK       I    between atoms: C_2  and  N_11 
REMARK    2  A    between atoms: C_3  and  N_4 
REMARK    3  A    between atoms: N_11  and  C_12 
REMARK    4  A    between atoms: C_12  and  C_13 
REMARK       I    between atoms: C_13  and  N_15 
ROOT
HETATM    1  O   UNL     1     -43.198 -47.980  11.477  1.00  0.00    -0.272 OA
HETATM    2  C   UNL     1     -42.609 -47.835  10.408  1.00  0.00     0.237 C 
HETATM    3  N   UNL     1     -41.417 -48.459  10.136  1.00  0.00    -0.351 N 
HETATM    4  H   UNL     1     -40.948 -48.357   9.239  1.00  0.00     0.163 HD
ENDROOT
BRANCH   2   5
HETATM    5  C   UNL     1     -43.140 -46.948   9.311  1.00  0.00     0.252 C 
BRANCH   5   6
HETATM    6  N   UNL     1     -44.482 -47.333   8.943  1.00  0.00    -0.278 N 
HETATM    7  C   UNL     1     -44.871 -48.150   7.927  1.00  0.00     0.201 A 
HETATM    8  N   UNL     1     -46.177 -48.290   7.953  1.00  0.00    -0.346 N 
HETATM    9  C   UNL     1     -46.546 -47.528   9.024  1.00  0.00     0.198 A 
ATOM     10  HN  UNL     1     -46.770 -48.834   7.327  1.00  0.00     0.167 HD
HETATM   11  N   UNL     1     -45.542 -46.929   9.671  1.00  0.00    -0.293 N 
ATOM     12  HN  UNL     1     -45.570 -46.328  10.495  1.00  0.00     0.188 HD
ENDBRANCH   5   6
ENDBRANCH   2   5
BRANCH   3  13
HETATM   13  C   UNL     1     -40.800 -49.371  11.081  1.00  0.00     0.225 C 
BRANCH  13  14
HETATM   14  C   UNL     1     -39.672 -48.658  11.824  1.00  0.00     0.237 C 
HETATM   15  O   UNL     1     -39.544 -47.433  11.756  1.00  0.00    -0.272 OA
HETATM   16  N   UNL     1     -38.852 -49.441  12.603  1.00  0.00    -0.351 N 
HETATM   17  C   UNL     1     -37.857 -48.858  13.479  1.00  0.00     0.126 C 
HETATM   18  C   UNL     1     -38.769 -50.887  12.628  1.00  0.00     0.126 C 
HETATM   19  C   UNL     1     -37.464 -49.981  14.437  1.00  0.00     0.021 C 
HETATM   20  C   UNL     1     -38.335 -51.177  14.051  1.00  0.00     0.021 C 
ENDBRANCH  13  14
ENDBRANCH   3  13
TORSDOF 4
ENDMDL
MODEL 7
REMARK VINA RESULT:      -5.0      2.414      3.022
REMARK  4 active torsions:
REMARK  status: ('A' for Active; 'I' for Inactive)
REMARK    1  A    between atoms: C_2  and  C_3 
REMARK       I    between atoms: C_2  and  N_11 
REMARK    2  A    between atoms: C_3  and  N_4 
REMARK    3  A    between atoms: N_11  and  C_12 
REMARK    4  A    between atoms: C_12  and  C_13 
REMARK       I    between atoms: C_13  and  N_15 
ROOT
HETATM    1  O   UNL     1     -42.586 -50.306  12.835  1.00  0.00    -0.272 OA
HETATM    2  C   UNL     1     -41.687 -50.132  12.014  1.00  0.00     0.237 C 
HETATM    3  N   UNL     1     -40.991 -51.174  11.456  1.00  0.00    -0.351 N 
HETATM    4  H   UNL     1     -40.268 -51.025  10.757  1.00  0.00     0.163 HD
ENDROOT
BRANCH   2   5
HETATM    5  C   UNL     1     -41.266 -48.757  11.563  1.00  0.00     0.252 C 
BRANCH   5   6
HETATM    6  N   UNL     1     -42.309 -48.127  10.788  1.00  0.00    -0.278 N 
HETATM    7  C   UNL     1     -43.307 -47.315  11.230  1.00  0.00     0.201 A 
HETATM    8  N   UNL     1     -44.023 -46.906  10.208  1.00  0.00    -0.346 N 
HETATM    9  C   UNL     1     -43.410 -47.503   9.144  1.00  0.00     0.198 A 
ATOM     10  HN  UNL     1     -44.838 -46.293  10.208  1.00  0.00     0.167 HD
HETATM   11  N   UNL     1     -42.346 -48.253   9.447  1.00  0.00    -0.293 N 
ATOM     12  HN  UNL     1     -41.729 -48.779   8.829  1.00  0.00     0.188 HD
ENDBRANCH   5   6
ENDBRANCH   2   5
BRANCH   3  13
HETATM   13  C   UNL     1     -41.307 -52.556  11.766  1.00  0.00     0.225 C 
BRANCH  13  14
HETATM   14  C   UNL     1     -40.492 -53.013  12.974  1.00  0.00     0.237 C 
HETATM   15  O   UNL     1     -39.321 -52.653  13.120  1.00  0.00    -0.272 OA
HETATM   16  N   UNL     1     -41.143 -53.792  13.902  1.00  0.00    -0.351 N 
HETATM   17  C   UNL     1     -40.526 -54.143  15.163  1.00  0.00     0.126 C 
HETATM   18  C   UNL     1     -42.435 -54.434  13.769  1.00  0.00     0.126 C 
HETATM   19  C   UNL     1     -41.672 -54.635  16.044  1.00  0.00     0.021 C 
HETATM   20  C   UNL     1     -42.937 -54.483  15.200  1.00  0.00     0.021 C 
ENDBRANCH  13  14
ENDBRANCH   3  13
TORSDOF 4
ENDMDL
MODEL 8
REMARK VINA RESULT:      -4.9      3.035      3.951
REMARK  4 active torsions:
REMARK  status: ('A' for Active; 'I' for Inactive)
REMARK    1  A    between atoms: C_2  and  C_3 
REMARK       I    between atoms: C_2  and  N_11 
REMARK    2  A    between atoms: C_3  and  N_4 
REMARK    3  A    between atoms: N_11  and  C_12 
REMARK    4  A    between atoms: C_12  and  C_13 
REMARK       I    between atoms: C_13  and  N_15 
ROOT
HETATM    1  O   UNL     1     -41.274 -51.353  14.436  1.00  0.00    -0.272 OA
HETATM    2  C   UNL     1     -41.074 -51.961  13.386  1.00  0.00     0.237 C 
HETATM    3  N   UNL     1     -41.749 -53.112  13.064  1.00  0.00    -0.351 N 
HETATM    4  H   UNL     1     -41.598 -53.595  12.181  1.00  0.00     0.163 HD
ENDROOT
BRANCH   2   5
HETATM    5  C   UNL     1     -40.059 -51.500  12.371  1.00  0.00     0.252 C 
BRANCH   5   6
HETATM    6  N   UNL     1     -40.411 -50.203  11.843  1.00  0.00    -0.278 N 
HETATM    7  C   UNL     1     -39.591 -49.143  11.607  1.00  0.00     0.201 A 
HETATM    8  N   UNL     1     -40.286 -48.161  11.078  1.00  0.00    -0.346 N 
HETATM    9  C   UNL     1     -41.546 -48.681  11.007  1.00  0.00     0.198 A 
ATOM     10  HN  UNL     1     -39.963 -47.238  10.791  1.00  0.00     0.167 HD
HETATM   11  N   UNL     1     -41.673 -49.934  11.453  1.00  0.00    -0.293 N 
ATOM     12  HN  UNL     1     -42.502 -50.527  11.489  1.00  0.00     0.188 HD
ENDBRANCH   5   6
ENDBRANCH   2   5
BRANCH   3  13
HETATM   13  C   UNL     1     -42.780 -53.658  13.925  1.00  0.00     0.225 C 
BRANCH  13  14
HETATM   14  C   UNL     1     -44.150 -53.456  13.281  1.00  0.00     0.237 C 
HETATM   15  O   UNL     1     -44.526 -54.178  12.352  1.00  0.00    -0.272 OA
HETATM   16  N   UNL     1     -44.950 -52.476  13.819  1.00  0.00    -0.351 N 
HETATM   17  C   UNL     1     -46.326 -52.306  13.402  1.00  0.00     0.126 C 
HETATM   18  C   UNL     1     -44.573 -51.447  14.768  1.00  0.00     0.126 C 
HETATM   19  C   UNL     1     -46.964 -51.434  14.482  1.00  0.00     0.021 C 
HETATM   20  C   UNL     1     -45.866 -51.188  15.517  1.00  0.00     0.021 C 
ENDBRANCH  13  14
ENDBRANCH   3  13
TORSDOF 4
ENDMDL
MODEL 9
REMARK VINA RESULT:      -4.9      4.610      7.957
REMARK  4 active torsions:
REMARK  status: ('A' for Active; 'I' for Inactive)
REMARK    1  A    between atoms: C_2  and  C_3 
REMARK       I    between atoms: C_2  and  N_11 
REMARK    2  A    between atoms: C_3  and  N_4 
REMARK    3  A    between atoms: N_11  and  C_12 
REMARK    4  A    between atoms: C_12  and  C_13 
REMARK       I    between atoms: C_13  and  N_15 
ROOT
HETATM    1  O   UNL     1     -40.933 -44.973  10.201  1.00  0.00    -0.272 OA
HETATM    2  C   UNL     1     -41.952 -45.565  10.549  1.00  0.00     0.237 C 
HETATM    3  N   UNL     1     -42.743 -45.121  11.579  1.00  0.00    -0.351 N 
HETATM    4  H   UNL     1     -43.601 -45.600  11.844  1.00  0.00     0.163 HD
ENDROOT
BRANCH   2   5
HETATM    5  C   UNL     1     -42.411 -46.837   9.882  1.00  0.00     0.252 C 
BRANCH   5   6
HETATM    6  N   UNL     1     -43.818 -46.772   9.563  1.00  0.00    -0.278 N 
HETATM    7  C   UNL     1     -44.476 -45.804   8.869  1.00  0.00     0.201 A 
HETATM    8  N   UNL     1     -45.741 -46.135   8.749  1.00  0.00    -0.346 N 
HETATM    9  C   UNL     1     -45.807 -47.337   9.393  1.00  0.00     0.198 A 
ATOM     10  HN  UNL     1     -46.491 -45.621   8.287  1.00  0.00     0.167 HD
HETATM   11  N   UNL     1     -44.651 -47.776   9.900  1.00  0.00    -0.293 N 
ATOM     12  HN  UNL     1     -44.453 -48.639  10.406  1.00  0.00     0.188 HD
ENDBRANCH   5   6
ENDBRANCH   2   5
BRANCH   3  13
HETATM   13  C   UNL     1     -42.449 -43.892  12.292  1.00  0.00     0.225 C 
BRANCH  13  14
HETATM   14  C   UNL     1     -42.727 -42.693  11.389  1.00  0.00     0.237 C 
HETATM   15  O   UNL     1     -43.741 -42.650  10.687  1.00  0.00    -0.272 OA
HETATM   16  N   UNL     1     -41.824 -41.656  11.440  1.00  0.00    -0.351 N 
HETATM   17  C   UNL     1     -42.070 -40.403  10.758  1.00  0.00     0.126 C 
HETATM   18  C   UNL     1     -40.517 -41.650  12.063  1.00  0.00     0.126 C 
HETATM   19  C   UNL     1     -41.084 -39.413  11.376  1.00  0.00     0.021 C 
HETATM   20  C   UNL     1     -40.334 -40.196  12.454  1.00  0.00     0.021 C 
ENDBRANCH  13  14
ENDBRANCH   3  13
TORSDOF 4
ENDMDL
