MODEL 1
REMARK VINA RESULT:      -6.0      0.000      0.000
REMARK  6 active torsions:
REMARK  status: ('A' for Active; 'I' for Inactive)
REMARK    1  A    between atoms: O_2  and  C_3 
REMARK    2  A    between atoms: C_6  and  N_7 
REMARK       I    between atoms: N_7  and  C_8 
REMARK    3  A    between atoms: C_8  and  C_10 
REMARK    4  A    between atoms: C_10  and  O_12 
REMARK    5  A    between atoms: O_12  and  C_13 
REMARK    6  A    between atoms: C_13  and  C_14 
ROOT
HETATM    1  N   UNL     1     -41.605 -49.995  11.405  1.00  0.00    -0.324 N 
HETATM    2  C   UNL     1     -42.352 -50.480  12.466  1.00  0.00     0.250 C 
HETATM    3  O   UNL     1     -43.099 -49.831  13.191  1.00  0.00    -0.270 OA
HETATM    4  H   UNL     1     -41.140 -50.698  10.837  1.00  0.00     0.169 HD
ENDROOT
BRANCH   2   5
HETATM    5  C   UNL     1     -42.189 -51.996  12.658  1.00  0.00     0.209 C 
HETATM    6  C   UNL     1     -41.914 -52.290  14.125  1.00  0.00     0.050 C 
BRANCH   5   7
HETATM    7  O   UNL     1     -43.356 -52.726  12.274  1.00  0.00    -0.374 OA
BRANCH   7   8
HETATM    8  C   UNL     1     -43.948 -53.430  13.373  1.00  0.00     0.200 C 
BRANCH   8   9
HETATM    9  C   UNL     1     -45.450 -53.617  13.109  1.00  0.00     0.145 C 
HETATM   10  C   UNL     1     -46.143 -52.324  12.672  1.00  0.00     0.034 C 
HETATM   11  C   UNL     1     -46.256 -51.339  13.830  1.00  0.00     0.005 C 
HETATM   12  C   UNL     1     -46.884 -52.015  15.044  1.00  0.00     0.026 C 
HETATM   13  C   UNL     1     -46.206 -53.339  15.373  1.00  0.00     0.168 C 
HETATM   14  O   UNL     1     -46.126 -54.191  14.232  1.00  0.00    -0.384 OA
ENDBRANCH   8   9
ENDBRANCH   7   8
ENDBRANCH   5   7
ENDBRANCH   2   5
BRANCH   1  15
HETATM   15  C   UNL     1     -41.365 -48.643  11.101  1.00  0.00     0.050 A 
HETATM   16  C   UNL     1     -40.309 -47.910  11.639  1.00  0.00     0.035 A 
HETATM   17  C   UNL     1     -40.137 -46.578  11.274  1.00  0.00     0.058 A 
HETATM   18  C   UNL     1     -41.027 -46.018  10.377  1.00  0.00     0.141 A 
HETATM   19  N   UNL     1     -42.053 -46.694   9.816  1.00  0.00    -0.345 N 
HETATM   20  C   UNL     1     -42.190 -47.988  10.188  1.00  0.00     0.119 A 
ATOM     21  HN  UNL     1     -42.688 -46.254   9.149  1.00  0.00     0.167 HD
BRANCH  18  22
HETATM   22  O   UNL     1     -40.815 -44.690  10.064  1.00  0.00    -0.341 OA
HETATM   23  C   UNL     1     -40.206 -43.963  11.124  1.00  0.00     0.211 C 
ENDBRANCH  18  22
ENDBRANCH   1  15
TORSDOF 6
ENDMDL
MODEL 2
REMARK VINA RESULT:      -5.8      1.694      2.051
REMARK  6 active torsions:
REMARK  status: ('A' for Active; 'I' for Inactive)
REMARK    1  A    between atoms: O_2  and  C_3 
REMARK    2  A    between atoms: C_6  and  N_7 
REMARK       I    between atoms: N_7  and  C_8 
REMARK    3  A    between atoms: C_8  and  C_10 
REMARK    4  A    between atoms: C_10  and  O_12 
REMARK    5  A    between atoms: O_12  and  C_13 
REMARK    6  A    between atoms: C_13  and  C_14 
ROOT
HETATM    1  N   UNL     1     -42.007 -50.636  12.960  1.00  0.00    -0.324 N 
HETATM    2  C   UNL     1     -41.796 -51.945  12.560  1.00  0.00     0.250 C 
HETATM    3  O   UNL     1     -41.481 -52.325  11.437  1.00  0.00    -0.270 OA
HETATM    4  H   UNL     1     -42.138 -50.497  13.959  1.00  0.00     0.169 HD
ENDROOT
BRANCH   2   5
HETATM    5  C   UNL     1     -41.967 -52.949  13.711  1.00  0.00     0.209 C 
HETATM    6  C   UNL     1     -42.380 -52.203  14.971  1.00  0.00     0.050 C 
BRANCH   5   7
HETATM    7  O   UNL     1     -42.965 -53.935  13.435  1.00  0.00    -0.374 OA
BRANCH   7   8
HETATM    8  C   UNL     1     -44.041 -53.903  14.381  1.00  0.00     0.200 C 
BRANCH   8   9
HETATM    9  C   UNL     1     -45.380 -53.896  13.628  1.00  0.00     0.145 C 
HETATM   10  C   UNL     1     -45.482 -52.763  12.604  1.00  0.00     0.034 C 
HETATM   11  C   UNL     1     -45.621 -51.409  13.291  1.00  0.00     0.005 C 
HETATM   12  C   UNL     1     -46.754 -51.444  14.312  1.00  0.00     0.026 C 
HETATM   13  C   UNL     1     -46.645 -52.644  15.243  1.00  0.00     0.168 C 
HETATM   14  O   UNL     1     -46.499 -53.865  14.521  1.00  0.00    -0.384 OA
ENDBRANCH   8   9
ENDBRANCH   7   8
ENDBRANCH   5   7
ENDBRANCH   2   5
BRANCH   1  15
HETATM   15  C   UNL     1     -42.139 -49.517  12.119  1.00  0.00     0.050 A 
HETATM   16  C   UNL     1     -43.266 -48.699  12.100  1.00  0.00     0.035 A 
HETATM   17  C   UNL     1     -43.310 -47.602  11.245  1.00  0.00     0.058 A 
HETATM   18  C   UNL     1     -42.218 -47.353  10.433  1.00  0.00     0.141 A 
HETATM   19  N   UNL     1     -41.098 -48.106  10.430  1.00  0.00    -0.345 N 
HETATM   20  C   UNL     1     -41.086 -49.163  11.276  1.00  0.00     0.119 A 
ATOM     21  HN  UNL     1     -40.305 -47.891   9.825  1.00  0.00     0.167 HD
BRANCH  18  22
HETATM   22  O   UNL     1     -42.325 -46.261   9.595  1.00  0.00    -0.341 OA
HETATM   23  C   UNL     1     -43.466 -46.323   8.749  1.00  0.00     0.211 C 
ENDBRANCH  18  22
ENDBRANCH   1  15
TORSDOF 6
ENDMDL
MODEL 3
REMARK VINA RESULT:      -5.4      2.966      4.241
REMARK  6 active torsions:
REMARK  status: ('A' for Active; 'I' for Inactive)
REMARK    1  A    between atoms: O_2  and  C_3 
REMARK    2  A    between atoms: C_6  and  N_7 
REMARK       I    between atoms: N_7  and  C_8 
REMARK    3  A    between atoms: C_8  and  C_10 
REMARK    4  A    between atoms: C_10  and  O_12 
REMARK    5  A    between atoms: O_12  and  C_13 
REMARK    6  A    between atoms: C_13  and  C_14 
ROOT
HETATM    1  N   UNL     1     -39.112 -48.887  12.527  1.00  0.00    -0.324 N 
HETATM    2  C   UNL     1     -38.037 -49.624  12.061  1.00  0.00     0.250 C 
HETATM    3  O   UNL     1     -37.529 -49.553  10.946  1.00  0.00    -0.270 OA
HETATM    4  H   UNL     1     -39.318 -48.988  13.518  1.00  0.00     0.169 HD
ENDROOT
BRANCH   2   5
HETATM    5  C   UNL     1     -37.470 -50.578  13.124  1.00  0.00     0.209 C 
HETATM    6  C   UNL     1     -37.766 -50.022  14.509  1.00  0.00     0.050 C 
BRANCH   5   7
HETATM    7  O   UNL     1     -38.039 -51.887  13.045  1.00  0.00    -0.374 OA
BRANCH   7   8
HETATM    8  C   UNL     1     -39.257 -52.001  13.792  1.00  0.00     0.200 C 
BRANCH   8   9
HETATM    9  C   UNL     1     -40.447 -52.046  12.821  1.00  0.00     0.145 C 
HETATM   10  C   UNL     1     -41.772 -51.664  13.483  1.00  0.00     0.034 C 
HETATM   11  C   UNL     1     -42.243 -52.753  14.443  1.00  0.00     0.005 C 
HETATM   12  C   UNL     1     -42.251 -54.109  13.746  1.00  0.00     0.026 C 
HETATM   13  C   UNL     1     -40.936 -54.390  13.030  1.00  0.00     0.168 C 
HETATM   14  O   UNL     1     -40.561 -53.316  12.169  1.00  0.00    -0.384 OA
ENDBRANCH   8   9
ENDBRANCH   7   8
ENDBRANCH   5   7
ENDBRANCH   2   5
BRANCH   1  15
HETATM   15  C   UNL     1     -39.981 -48.096  11.755  1.00  0.00     0.050 A 
HETATM   16  C   UNL     1     -41.041 -48.616  11.016  1.00  0.00     0.035 A 
HETATM   17  C   UNL     1     -41.861 -47.759  10.287  1.00  0.00     0.058 A 
HETATM   18  C   UNL     1     -41.598 -46.402  10.323  1.00  0.00     0.141 A 
HETATM   19  N   UNL     1     -40.594 -45.852  11.040  1.00  0.00    -0.345 N 
HETATM   20  C   UNL     1     -39.818 -46.711  11.740  1.00  0.00     0.119 A 
ATOM     21  HN  UNL     1     -40.431 -44.845  11.053  1.00  0.00     0.167 HD
BRANCH  18  22
HETATM   22  O   UNL     1     -42.435 -45.604   9.569  1.00  0.00    -0.341 OA
HETATM   23  C   UNL     1     -43.627 -46.271   9.174  1.00  0.00     0.211 C 
ENDBRANCH  18  22
ENDBRANCH   1  15
TORSDOF 6
ENDMDL
MODEL 4
REMARK VINA RESULT:      -5.3      3.651      4.318
REMARK  6 active torsions:
REMARK  status: ('A' for Active; 'I' for Inactive)
REMARK    1  A    between atoms: O_2  and  C_3 
REMARK    2  A    between atoms: C_6  and  N_7 
REMARK       I    between atoms: N_7  and  C_8 
REMARK    3  A    between atoms: C_8  and  C_10 
REMARK    4  A    between atoms: C_10  and  O_12 
REMARK    5  A    between atoms: O_12  and  C_13 
REMARK    6  A    between atoms: C_13  and  C_14 
ROOT
HETATM    1  N   UNL     1     -40.318 -51.782  14.047  1.00  0.00    -0.324 N 
HETATM    2  C   UNL     1     -40.125 -53.072  13.580  1.00  0.00     0.250 C 
HETATM    3  O   UNL     1     -39.053 -53.660  13.477  1.00  0.00    -0.270 OA
HETATM    4  H   UNL     1     -41.287 -51.503  14.181  1.00  0.00     0.169 HD
ENDROOT
BRANCH   2   5
HETATM    5  C   UNL     1     -41.443 -53.767  13.206  1.00  0.00     0.209 C 
HETATM    6  C   UNL     1     -42.073 -54.360  14.457  1.00  0.00     0.050 C 
BRANCH   5   7
HETATM    7  O   UNL     1     -42.389 -52.869  12.620  1.00  0.00    -0.374 OA
BRANCH   7   8
HETATM    8  C   UNL     1     -43.506 -52.613  13.482  1.00  0.00     0.200 C 
BRANCH   8   9
HETATM    9  C   UNL     1     -44.811 -52.814  12.696  1.00  0.00     0.145 C 
HETATM   10  C   UNL     1     -45.853 -51.731  12.983  1.00  0.00     0.034 C 
HETATM   11  C   UNL     1     -46.429 -51.877  14.387  1.00  0.00     0.005 C 
HETATM   12  C   UNL     1     -46.920 -53.303  14.614  1.00  0.00     0.026 C 
HETATM   13  C   UNL     1     -45.870 -54.336  14.225  1.00  0.00     0.168 C 
HETATM   14  O   UNL     1     -45.371 -54.114  12.908  1.00  0.00    -0.384 OA
ENDBRANCH   8   9
ENDBRANCH   7   8
ENDBRANCH   5   7
ENDBRANCH   2   5
BRANCH   1  15
HETATM   15  C   UNL     1     -39.321 -50.815  14.265  1.00  0.00     0.050 A 
HETATM   16  C   UNL     1     -38.737 -50.069  13.243  1.00  0.00     0.035 A 
HETATM   17  C   UNL     1     -37.765 -49.121  13.548  1.00  0.00     0.058 A 
HETATM   18  C   UNL     1     -37.406 -48.945  14.872  1.00  0.00     0.141 A 
HETATM   19  N   UNL     1     -37.958 -49.630  15.896  1.00  0.00    -0.345 N 
HETATM   20  C   UNL     1     -38.903 -50.541  15.566  1.00  0.00     0.119 A 
ATOM     21  HN  UNL     1     -37.678 -49.470  16.864  1.00  0.00     0.167 HD
BRANCH  18  22
HETATM   22  O   UNL     1     -36.426 -48.002  15.112  1.00  0.00    -0.341 OA
HETATM   23  C   UNL     1     -35.834 -48.136  16.398  1.00  0.00     0.211 C 
ENDBRANCH  18  22
ENDBRANCH   1  15
TORSDOF 6
ENDMDL
MODEL 5
REMARK VINA RESULT:      -5.2      3.525      6.732
REMARK  6 active torsions:
REMARK  status: ('A' for Active; 'I' for Inactive)
REMARK    1  A    between atoms: O_2  and  C_3 
REMARK    2  A    between atoms: C_6  and  N_7 
REMARK       I    between atoms: N_7  and  C_8 
REMARK    3  A    between atoms: C_8  and  C_10 
REMARK    4  A    between atoms: C_10  and  O_12 
REMARK    5  A    between atoms: O_12  and  C_13 
REMARK    6  A    between atoms: C_13  and  C_14 
ROOT
HETATM    1  N   UNL     1     -43.363 -51.268  12.835  1.00  0.00    -0.324 N 
HETATM    2  C   UNL     1     -42.606 -52.372  12.478  1.00  0.00     0.250 C 
HETATM    3  O   UNL     1     -42.910 -53.549  12.638  1.00  0.00    -0.270 OA
HETATM    4  H   UNL     1     -43.011 -50.370  12.513  1.00  0.00     0.169 HD
ENDROOT
BRANCH   2   5
HETATM    5  C   UNL     1     -41.285 -51.985  11.794  1.00  0.00     0.209 C 
HETATM    6  C   UNL     1     -41.078 -50.482  11.913  1.00  0.00     0.050 C 
BRANCH   5   7
HETATM    7  O   UNL     1     -40.154 -52.633  12.381  1.00  0.00    -0.374 OA
BRANCH   7   8
HETATM    8  C   UNL     1     -39.814 -52.087  13.661  1.00  0.00     0.200 C 
BRANCH   8   9
HETATM    9  C   UNL     1     -38.980 -53.112  14.446  1.00  0.00     0.145 C 
HETATM   10  C   UNL     1     -39.578 -54.520  14.409  1.00  0.00     0.034 C 
HETATM   11  C   UNL     1     -40.851 -54.601  15.246  1.00  0.00     0.005 C 
HETATM   12  C   UNL     1     -40.602 -54.055  16.648  1.00  0.00     0.026 C 
HETATM   13  C   UNL     1     -39.923 -52.691  16.616  1.00  0.00     0.168 C 
HETATM   14  O   UNL     1     -38.755 -52.699  15.798  1.00  0.00    -0.384 OA
ENDBRANCH   8   9
ENDBRANCH   7   8
ENDBRANCH   5   7
ENDBRANCH   2   5
BRANCH   1  15
HETATM   15  C   UNL     1     -44.503 -51.268  13.659  1.00  0.00     0.050 A 
HETATM   16  C   UNL     1     -45.789 -51.521  13.189  1.00  0.00     0.035 A 
HETATM   17  C   UNL     1     -46.862 -51.514  14.076  1.00  0.00     0.058 A 
HETATM   18  C   UNL     1     -46.614 -51.256  15.412  1.00  0.00     0.141 A 
HETATM   19  N   UNL     1     -45.383 -51.024  15.915  1.00  0.00    -0.345 N 
HETATM   20  C   UNL     1     -44.361 -51.043  15.027  1.00  0.00     0.119 A 
ATOM     21  HN  UNL     1     -45.231 -50.846  16.908  1.00  0.00     0.167 HD
BRANCH  18  22
HETATM   22  O   UNL     1     -47.718 -51.247  16.241  1.00  0.00    -0.341 OA
HETATM   23  C   UNL     1     -47.410 -50.841  17.568  1.00  0.00     0.211 C 
ENDBRANCH  18  22
ENDBRANCH   1  15
TORSDOF 6
ENDMDL
MODEL 6
REMARK VINA RESULT:      -5.1      1.698      2.304
REMARK  6 active torsions:
REMARK  status: ('A' for Active; 'I' for Inactive)
REMARK    1  A    between atoms: O_2  and  C_3 
REMARK    2  A    between atoms: C_6  and  N_7 
REMARK       I    between atoms: N_7  and  C_8 
REMARK    3  A    between atoms: C_8  and  C_10 
REMARK    4  A    between atoms: C_10  and  O_12 
REMARK    5  A    between atoms: O_12  and  C_13 
REMARK    6  A    between atoms: C_13  and  C_14 
ROOT
HETATM    1  N   UNL     1     -42.049 -51.152  12.413  1.00  0.00    -0.324 N 
HETATM    2  C   UNL     1     -41.350 -51.767  13.437  1.00  0.00     0.250 C 
HETATM    3  O   UNL     1     -40.636 -51.217  14.270  1.00  0.00    -0.270 OA
HETATM    4  H   UNL     1     -42.689 -51.750  11.896  1.00  0.00     0.169 HD
ENDROOT
BRANCH   2   5
HETATM    5  C   UNL     1     -41.573 -53.288  13.474  1.00  0.00     0.209 C 
HETATM    6  C   UNL     1     -40.226 -53.994  13.507  1.00  0.00     0.050 C 
BRANCH   5   7
HETATM    7  O   UNL     1     -42.316 -53.705  14.622  1.00  0.00    -0.374 OA
BRANCH   7   8
HETATM    8  C   UNL     1     -43.732 -53.642  14.409  1.00  0.00     0.200 C 
BRANCH   8   9
HETATM    9  C   UNL     1     -44.339 -52.576  15.335  1.00  0.00     0.145 C 
HETATM   10  C   UNL     1     -45.718 -52.966  15.870  1.00  0.00     0.034 C 
HETATM   11  C   UNL     1     -46.773 -52.912  14.770  1.00  0.00     0.005 C 
HETATM   12  C   UNL     1     -46.728 -51.565  14.056  1.00  0.00     0.026 C 
HETATM   13  C   UNL     1     -45.315 -51.193  13.629  1.00  0.00     0.168 C 
HETATM   14  O   UNL     1     -44.391 -51.288  14.711  1.00  0.00    -0.384 OA
ENDBRANCH   8   9
ENDBRANCH   7   8
ENDBRANCH   5   7
ENDBRANCH   2   5
BRANCH   1  15
HETATM   15  C   UNL     1     -41.895 -49.824  11.976  1.00  0.00     0.050 A 
HETATM   16  C   UNL     1     -42.815 -48.815  12.247  1.00  0.00     0.035 A 
HETATM   17  C   UNL     1     -42.579 -47.522  11.788  1.00  0.00     0.058 A 
HETATM   18  C   UNL     1     -41.423 -47.277  11.070  1.00  0.00     0.141 A 
HETATM   19  N   UNL     1     -40.494 -48.220  10.799  1.00  0.00    -0.345 N 
HETATM   20  C   UNL     1     -40.752 -49.464  11.264  1.00  0.00     0.119 A 
ATOM     21  HN  UNL     1     -39.646 -48.005  10.274  1.00  0.00     0.167 HD
BRANCH  18  22
HETATM   22  O   UNL     1     -41.250 -45.981  10.626  1.00  0.00    -0.341 OA
HETATM   23  C   UNL     1     -39.884 -45.592  10.577  1.00  0.00     0.211 C 
ENDBRANCH  18  22
ENDBRANCH   1  15
TORSDOF 6
ENDMDL
MODEL 7
REMARK VINA RESULT:      -5.0      2.396      7.471
REMARK  6 active torsions:
REMARK  status: ('A' for Active; 'I' for Inactive)
REMARK    1  A    between atoms: O_2  and  C_3 
REMARK    2  A    between atoms: C_6  and  N_7 
REMARK       I    between atoms: N_7  and  C_8 
REMARK    3  A    between atoms: C_8  and  C_10 
REMARK    4  A    between atoms: C_10  and  O_12 
REMARK    5  A    between atoms: O_12  and  C_13 
REMARK    6  A    between atoms: C_13  and  C_14 
ROOT
HETATM    1  N   UNL     1     -40.825 -51.017  13.274  1.00  0.00    -0.324 N 
HETATM    2  C   UNL     1     -40.120 -50.415  12.245  1.00  0.00     0.250 C 
HETATM    3  O   UNL     1     -40.452 -50.358  11.066  1.00  0.00    -0.270 OA
HETATM    4  H   UNL     1     -40.460 -50.858  14.210  1.00  0.00     0.169 HD
ENDROOT
BRANCH   2   5
HETATM    5  C   UNL     1     -38.820 -49.753  12.730  1.00  0.00     0.209 C 
HETATM    6  C   UNL     1     -37.639 -50.641  12.370  1.00  0.00     0.050 C 
BRANCH   5   7
HETATM    7  O   UNL     1     -38.604 -48.470  12.136  1.00  0.00    -0.374 OA
BRANCH   7   8
HETATM    8  C   UNL     1     -39.612 -47.520  12.505  1.00  0.00     0.200 C 
BRANCH   8   9
HETATM    9  C   UNL     1     -40.074 -46.758  11.254  1.00  0.00     0.145 C 
HETATM   10  C   UNL     1     -39.823 -45.251  11.347  1.00  0.00     0.034 C 
HETATM   11  C   UNL     1     -40.764 -44.595  12.351  1.00  0.00     0.005 C 
HETATM   12  C   UNL     1     -42.210 -44.978  12.054  1.00  0.00     0.026 C 
HETATM   13  C   UNL     1     -42.377 -46.482  11.884  1.00  0.00     0.168 C 
HETATM   14  O   UNL     1     -41.448 -47.016  10.943  1.00  0.00    -0.384 OA
ENDBRANCH   8   9
ENDBRANCH   7   8
ENDBRANCH   5   7
ENDBRANCH   2   5
BRANCH   1  15
HETATM   15  C   UNL     1     -41.926 -51.882  13.138  1.00  0.00     0.050 A 
HETATM   16  C   UNL     1     -41.845 -53.261  13.311  1.00  0.00     0.035 A 
HETATM   17  C   UNL     1     -42.988 -54.044  13.170  1.00  0.00     0.058 A 
HETATM   18  C   UNL     1     -44.182 -53.419  12.862  1.00  0.00     0.141 A 
HETATM   19  N   UNL     1     -44.312 -52.084  12.703  1.00  0.00    -0.345 N 
HETATM   20  C   UNL     1     -43.184 -51.352  12.851  1.00  0.00     0.119 A 
ATOM     21  HN  UNL     1     -45.210 -51.652  12.485  1.00  0.00     0.167 HD
BRANCH  18  22
HETATM   22  O   UNL     1     -45.278 -54.247  12.719  1.00  0.00    -0.341 OA
HETATM   23  C   UNL     1     -45.424 -55.162  13.797  1.00  0.00     0.211 C 
ENDBRANCH  18  22
ENDBRANCH   1  15
TORSDOF 6
ENDMDL
MODEL 8
REMARK VINA RESULT:      -4.9      2.284      3.936
REMARK  6 active torsions:
REMARK  status: ('A' for Active; 'I' for Inactive)
REMARK    1  A    between atoms: O_2  and  C_3 
REMARK    2  A    between atoms: C_6  and  N_7 
REMARK       I    between atoms: N_7  and  C_8 
REMARK    3  A    between atoms: C_8  and  C_10 
REMARK    4  A    between atoms: C_10  and  O_12 
REMARK    5  A    between atoms: O_12  and  C_13 
REMARK    6  A    between atoms: C_13  and  C_14 
ROOT
HETATM    1  N   UNL     1     -42.197 -50.210  11.772  1.00  0.00    -0.324 N 
HETATM    2  C   UNL     1     -42.702 -50.568  13.011  1.00  0.00     0.250 C 
HETATM    3  O   UNL     1     -43.189 -49.815  13.848  1.00  0.00    -0.270 OA
HETATM    4  H   UNL     1     -41.949 -50.981  11.158  1.00  0.00     0.169 HD
ENDROOT
BRANCH   2   5
HETATM    5  C   UNL     1     -42.631 -52.083  13.262  1.00  0.00     0.209 C 
HETATM    6  C   UNL     1     -43.796 -52.765  12.562  1.00  0.00     0.050 C 
BRANCH   5   7
HETATM    7  O   UNL     1     -41.420 -52.663  12.768  1.00  0.00    -0.374 OA
BRANCH   7   8
HETATM    8  C   UNL     1     -41.012 -53.806  13.529  1.00  0.00     0.200 C 
BRANCH   8   9
HETATM    9  C   UNL     1     -40.575 -53.355  14.931  1.00  0.00     0.145 C 
HETATM   10  C   UNL     1     -39.090 -53.608  15.203  1.00  0.00     0.034 C 
HETATM   11  C   UNL     1     -38.805 -55.098  15.364  1.00  0.00     0.005 C 
HETATM   12  C   UNL     1     -39.750 -55.712  16.391  1.00  0.00     0.026 C 
HETATM   13  C   UNL     1     -41.203 -55.349  16.116  1.00  0.00     0.168 C 
HETATM   14  O   UNL     1     -41.378 -53.942  15.961  1.00  0.00    -0.384 OA
ENDBRANCH   8   9
ENDBRANCH   7   8
ENDBRANCH   5   7
ENDBRANCH   2   5
BRANCH   1  15
HETATM   15  C   UNL     1     -41.921 -48.904  11.329  1.00  0.00     0.050 A 
HETATM   16  C   UNL     1     -42.901 -48.022  10.881  1.00  0.00     0.035 A 
HETATM   17  C   UNL     1     -42.543 -46.741  10.471  1.00  0.00     0.058 A 
HETATM   18  C   UNL     1     -41.209 -46.378  10.524  1.00  0.00     0.141 A 
HETATM   19  N   UNL     1     -40.228 -47.193  10.968  1.00  0.00    -0.345 N 
HETATM   20  C   UNL     1     -40.611 -48.429  11.364  1.00  0.00     0.119 A 
ATOM     21  HN  UNL     1     -39.254 -46.893  11.004  1.00  0.00     0.167 HD
BRANCH  18  22
HETATM   22  O   UNL     1     -40.912 -45.102  10.090  1.00  0.00    -0.341 OA
HETATM   23  C   UNL     1     -39.518 -44.823  10.109  1.00  0.00     0.211 C 
ENDBRANCH  18  22
ENDBRANCH   1  15
TORSDOF 6
ENDMDL
MODEL 9
REMARK VINA RESULT:      -4.9      2.146      7.535
REMARK  6 active torsions:
REMARK  status: ('A' for Active; 'I' for Inactive)
REMARK    1  A    between atoms: O_2  and  C_3 
REMARK    2  A    between atoms: C_6  and  N_7 
REMARK       I    between atoms: N_7  and  C_8 
REMARK    3  A    between atoms: C_8  and  C_10 
REMARK    4  A    between atoms: C_10  and  O_12 
REMARK    5  A    between atoms: O_12  and  C_13 
REMARK    6  A    between atoms: C_13  and  C_14 
ROOT
HETATM    1  N   UNL     1     -40.918 -50.436  12.524  1.00  0.00    -0.324 N 
HETATM    2  C   UNL     1     -40.057 -50.142  13.568  1.00  0.00     0.250 C 
HETATM    3  O   UNL     1     -40.093 -50.611  14.700  1.00  0.00    -0.270 OA
HETATM    4  H   UNL     1     -40.661 -50.048  11.619  1.00  0.00     0.169 HD
ENDROOT
BRANCH   2   5
HETATM    5  C   UNL     1     -38.962 -49.141  13.165  1.00  0.00     0.209 C 
HETATM    6  C   UNL     1     -37.834 -49.884  12.465  1.00  0.00     0.050 C 
BRANCH   5   7
HETATM    7  O   UNL     1     -39.443 -48.131  12.275  1.00  0.00    -0.374 OA
BRANCH   7   8
HETATM    8  C   UNL     1     -39.905 -46.965  12.969  1.00  0.00     0.200 C 
BRANCH   8   9
HETATM    9  C   UNL     1     -41.087 -46.352  12.203  1.00  0.00     0.145 C 
HETATM   10  C   UNL     1     -40.833 -46.250  10.697  1.00  0.00     0.034 C 
HETATM   11  C   UNL     1     -39.800 -45.173  10.384  1.00  0.00     0.005 C 
HETATM   12  C   UNL     1     -40.183 -43.857  11.051  1.00  0.00     0.026 C 
HETATM   13  C   UNL     1     -40.511 -44.042  12.528  1.00  0.00     0.168 C 
HETATM   14  O   UNL     1     -41.469 -45.078  12.733  1.00  0.00    -0.384 OA
ENDBRANCH   8   9
ENDBRANCH   7   8
ENDBRANCH   5   7
ENDBRANCH   2   5
BRANCH   1  15
HETATM   15  C   UNL     1     -42.134 -51.135  12.616  1.00  0.00     0.050 A 
HETATM   16  C   UNL     1     -43.275 -50.615  13.222  1.00  0.00     0.035 A 
HETATM   17  C   UNL     1     -44.444 -51.371  13.259  1.00  0.00     0.058 A 
HETATM   18  C   UNL     1     -44.437 -52.627  12.683  1.00  0.00     0.141 A 
HETATM   19  N   UNL     1     -43.361 -53.165  12.068  1.00  0.00    -0.345 N 
HETATM   20  C   UNL     1     -42.243 -52.403  12.046  1.00  0.00     0.119 A 
ATOM     21  HN  UNL     1     -43.391 -54.092  11.643  1.00  0.00     0.167 HD
BRANCH  18  22
HETATM   22  O   UNL     1     -45.619 -53.336  12.763  1.00  0.00    -0.341 OA
HETATM   23  C   UNL     1     -46.363 -53.039  13.938  1.00  0.00     0.211 C 
ENDBRANCH  18  22
ENDBRANCH   1  15
TORSDOF 6
ENDMDL
