MODEL 1
REMARK VINA RESULT:      -6.8      0.000      0.000
REMARK  4 active torsions:
REMARK  status: ('A' for Active; 'I' for Inactive)
REMARK    1  A    between atoms: C_4  and  C_5 
REMARK    2  A    between atoms: C_5  and  C_6 
REMARK       I    between atoms: C_6  and  N_8 
REMARK    3  A    between atoms: N_8  and  C_9 
REMARK    4  A    between atoms: C_9  and  C_10 
ROOT
HETATM    1  C   UNL     1     -41.218 -54.404  14.853  1.00  0.00     0.223 C 
HETATM    2  O   UNL     1     -41.040 -54.528  16.064  1.00  0.00    -0.273 OA
HETATM    3  N   UNL     1     -42.456 -54.543  14.257  1.00  0.00    -0.360 N 
HETATM    4  H   UNL     1     -42.546 -54.297  13.278  1.00  0.00     0.162 HD
ENDROOT
BRANCH   1   5
HETATM    5  C   UNL     1     -40.083 -54.098  13.896  1.00  0.00     0.161 C 
BRANCH   5   6
HETATM    6  C   UNL     1     -40.455 -53.036  12.923  1.00  0.00     0.036 A 
HETATM    7  C   UNL     1     -40.364 -51.633  13.087  1.00  0.00     0.053 A 
HETATM    8  C   UNL     1     -40.759 -51.099  11.881  1.00  0.00     0.024 A 
HETATM    9  C   UNL     1     -40.862 -49.703  11.404  1.00  0.00     0.070 C 
HETATM   10  N   UNL     1     -41.066 -52.170  11.091  1.00  0.00    -0.305 N 
HETATM   11  N   UNL     1     -40.895 -53.357  11.698  1.00  0.00    -0.304 N 
HETATM   12  H   UNL     1     -41.384 -52.165  10.126  1.00  0.00     0.186 HD
ATOM     13  HN  UNL     1     -41.062 -54.288  11.315  1.00  0.00     0.186 HD
ENDBRANCH   5   6
ENDBRANCH   1   5
BRANCH   3  14
HETATM   14  C   UNL     1     -43.638 -54.816  15.052  1.00  0.00     0.131 C 
BRANCH  14  15
HETATM   15  C   UNL     1     -44.974 -54.243  14.481  1.00  0.00    -0.028 C 
HETATM   16  C   UNL     1     -45.790 -55.413  13.887  1.00  0.00     0.016 C 
HETATM   17  C   UNL     1     -44.573 -53.228  13.369  1.00  0.00     0.011 C 
HETATM   18  C   UNL     1     -45.696 -52.685  12.486  1.00  0.00     0.001 C 
HETATM   19  C   UNL     1     -46.497 -51.514  13.048  1.00  0.00     0.000 C 
HETATM   20  C   UNL     1     -46.664 -51.433  14.559  1.00  0.00     0.000 C 
HETATM   21  C   UNL     1     -47.000 -52.755  15.238  1.00  0.00     0.001 C 
HETATM   22  C   UNL     1     -45.760 -53.562  15.627  1.00  0.00     0.011 C 
ENDBRANCH  14  15
ENDBRANCH   3  14
TORSDOF 4
ENDMDL
MODEL 2
REMARK VINA RESULT:      -6.7      1.925      2.706
REMARK  4 active torsions:
REMARK  status: ('A' for Active; 'I' for Inactive)
REMARK    1  A    between atoms: C_4  and  C_5 
REMARK    2  A    between atoms: C_5  and  C_6 
REMARK       I    between atoms: C_6  and  N_8 
REMARK    3  A    between atoms: N_8  and  C_9 
REMARK    4  A    between atoms: C_9  and  C_10 
ROOT
HETATM    1  C   UNL     1     -40.725 -52.230  12.785  1.00  0.00     0.223 C 
HETATM    2  O   UNL     1     -40.575 -53.263  12.134  1.00  0.00    -0.273 OA
HETATM    3  N   UNL     1     -41.611 -52.129  13.839  1.00  0.00    -0.360 N 
HETATM    4  H   UNL     1     -41.583 -51.292  14.409  1.00  0.00     0.162 HD
ENDROOT
BRANCH   1   5
HETATM    5  C   UNL     1     -39.954 -50.962  12.479  1.00  0.00     0.161 C 
BRANCH   5   6
HETATM    6  C   UNL     1     -40.755 -50.017  11.655  1.00  0.00     0.036 A 
HETATM    7  C   UNL     1     -41.821 -49.185  12.071  1.00  0.00     0.053 A 
HETATM    8  C   UNL     1     -42.171 -48.457  10.957  1.00  0.00     0.024 A 
HETATM    9  C   UNL     1     -43.192 -47.407  10.743  1.00  0.00     0.070 C 
HETATM   10  N   UNL     1     -41.336 -48.883   9.965  1.00  0.00    -0.305 N 
HETATM   11  N   UNL     1     -40.469 -49.832  10.358  1.00  0.00    -0.304 N 
HETATM   12  H   UNL     1     -41.293 -48.562   9.002  1.00  0.00     0.186 HD
ATOM     13  HN  UNL     1     -39.758 -50.303   9.798  1.00  0.00     0.186 HD
ENDBRANCH   5   6
ENDBRANCH   1   5
BRANCH   3  14
HETATM   14  C   UNL     1     -42.402 -53.271  14.258  1.00  0.00     0.131 C 
BRANCH  14  15
HETATM   15  C   UNL     1     -43.923 -53.192  13.913  1.00  0.00    -0.028 C 
HETATM   16  C   UNL     1     -44.140 -53.833  12.524  1.00  0.00     0.016 C 
HETATM   17  C   UNL     1     -44.287 -51.677  13.884  1.00  0.00     0.011 C 
HETATM   18  C   UNL     1     -45.668 -51.304  13.348  1.00  0.00     0.001 C 
HETATM   19  C   UNL     1     -46.830 -51.404  14.332  1.00  0.00     0.000 C 
HETATM   20  C   UNL     1     -46.742 -52.463  15.423  1.00  0.00     0.000 C 
HETATM   21  C   UNL     1     -46.249 -53.826  14.954  1.00  0.00     0.001 C 
HETATM   22  C   UNL     1     -44.725 -53.958  14.993  1.00  0.00     0.011 C 
ENDBRANCH  14  15
ENDBRANCH   3  14
TORSDOF 4
ENDMDL
MODEL 3
REMARK VINA RESULT:      -6.6      3.425      5.028
REMARK  4 active torsions:
REMARK  status: ('A' for Active; 'I' for Inactive)
REMARK    1  A    between atoms: C_4  and  C_5 
REMARK    2  A    between atoms: C_5  and  C_6 
REMARK       I    between atoms: C_6  and  N_8 
REMARK    3  A    between atoms: N_8  and  C_9 
REMARK    4  A    between atoms: C_9  and  C_10 
ROOT
HETATM    1  C   UNL     1     -41.054 -49.199  11.348  1.00  0.00     0.223 C 
HETATM    2  O   UNL     1     -39.890 -49.598  11.373  1.00  0.00    -0.273 OA
HETATM    3  N   UNL     1     -42.127 -49.992  11.705  1.00  0.00    -0.360 N 
HETATM    4  H   UNL     1     -43.038 -49.556  11.786  1.00  0.00     0.162 HD
ENDROOT
BRANCH   1   5
HETATM    5  C   UNL     1     -41.419 -47.796  10.907  1.00  0.00     0.161 C 
BRANCH   5   6
HETATM    6  C   UNL     1     -42.678 -47.779  10.115  1.00  0.00     0.036 A 
HETATM    7  C   UNL     1     -43.968 -47.376  10.536  1.00  0.00     0.053 A 
HETATM    8  C   UNL     1     -44.765 -47.478   9.418  1.00  0.00     0.024 A 
HETATM    9  C   UNL     1     -46.197 -47.184   9.194  1.00  0.00     0.070 C 
HETATM   10  N   UNL     1     -43.944 -47.933   8.425  1.00  0.00    -0.305 N 
HETATM   11  N   UNL     1     -42.674 -48.128   8.820  1.00  0.00    -0.304 N 
HETATM   12  H   UNL     1     -44.179 -48.119   7.455  1.00  0.00     0.186 HD
ATOM     13  HN  UNL     1     -41.888 -48.465   8.263  1.00  0.00     0.186 HD
ENDBRANCH   5   6
ENDBRANCH   1   5
BRANCH   3  14
HETATM   14  C   UNL     1     -41.926 -51.352  12.168  1.00  0.00     0.131 C 
BRANCH  14  15
HETATM   15  C   UNL     1     -42.974 -51.866  13.205  1.00  0.00    -0.028 C 
HETATM   16  C   UNL     1     -42.223 -52.301  14.483  1.00  0.00     0.016 C 
HETATM   17  C   UNL     1     -43.683 -53.084  12.540  1.00  0.00     0.011 C 
HETATM   18  C   UNL     1     -44.604 -53.922  13.427  1.00  0.00     0.001 C 
HETATM   19  C   UNL     1     -46.024 -53.399  13.619  1.00  0.00     0.000 C 
HETATM   20  C   UNL     1     -46.232 -51.891  13.584  1.00  0.00     0.000 C 
HETATM   21  C   UNL     1     -45.198 -51.084  14.360  1.00  0.00     0.001 C 
HETATM   22  C   UNL     1     -43.969 -50.724  13.525  1.00  0.00     0.011 C 
ENDBRANCH  14  15
ENDBRANCH   3  14
TORSDOF 4
ENDMDL
MODEL 4
REMARK VINA RESULT:      -6.2      1.571      2.185
REMARK  4 active torsions:
REMARK  status: ('A' for Active; 'I' for Inactive)
REMARK    1  A    between atoms: C_4  and  C_5 
REMARK    2  A    between atoms: C_5  and  C_6 
REMARK       I    between atoms: C_6  and  N_8 
REMARK    3  A    between atoms: N_8  and  C_9 
REMARK    4  A    between atoms: C_9  and  C_10 
ROOT
HETATM    1  C   UNL     1     -42.662 -54.356  13.492  1.00  0.00     0.223 C 
HETATM    2  O   UNL     1     -42.829 -54.980  14.539  1.00  0.00    -0.273 OA
HETATM    3  N   UNL     1     -43.698 -53.764  12.797  1.00  0.00    -0.360 N 
HETATM    4  H   UNL     1     -43.468 -53.158  12.020  1.00  0.00     0.162 HD
ENDROOT
BRANCH   1   5
HETATM    5  C   UNL     1     -41.295 -54.190  12.859  1.00  0.00     0.161 C 
BRANCH   5   6
HETATM    6  C   UNL     1     -41.047 -52.781  12.449  1.00  0.00     0.036 A 
HETATM    7  C   UNL     1     -40.685 -51.685  13.269  1.00  0.00     0.053 A 
HETATM    8  C   UNL     1     -40.503 -50.629  12.406  1.00  0.00     0.024 A 
HETATM    9  C   UNL     1     -40.100 -49.224  12.633  1.00  0.00     0.070 C 
HETATM   10  N   UNL     1     -40.768 -51.125  11.161  1.00  0.00    -0.305 N 
HETATM   11  N   UNL     1     -41.105 -52.427  11.157  1.00  0.00    -0.304 N 
HETATM   12  H   UNL     1     -40.727 -50.637  10.271  1.00  0.00     0.186 HD
ATOM     13  HN  UNL     1     -41.349 -53.009  10.356  1.00  0.00     0.186 HD
ENDBRANCH   5   6
ENDBRANCH   1   5
BRANCH   3  14
HETATM   14  C   UNL     1     -45.059 -53.824  13.298  1.00  0.00     0.131 C 
BRANCH  14  15
HETATM   15  C   UNL     1     -45.588 -52.508  13.952  1.00  0.00    -0.028 C 
HETATM   16  C   UNL     1     -46.061 -51.561  12.827  1.00  0.00     0.016 C 
HETATM   17  C   UNL     1     -44.384 -51.890  14.724  1.00  0.00     0.011 C 
HETATM   18  C   UNL     1     -44.563 -50.476  15.275  1.00  0.00     0.001 C 
HETATM   19  C   UNL     1     -45.284 -50.353  16.614  1.00  0.00     0.000 C 
HETATM   20  C   UNL     1     -46.344 -51.395  16.943  1.00  0.00     0.000 C 
HETATM   21  C   UNL     1     -47.289 -51.732  15.796  1.00  0.00     0.001 C 
HETATM   22  C   UNL     1     -46.764 -52.854  14.898  1.00  0.00     0.011 C 
ENDBRANCH  14  15
ENDBRANCH   3  14
TORSDOF 4
ENDMDL
MODEL 5
REMARK VINA RESULT:      -6.1      1.330      2.161
REMARK  4 active torsions:
REMARK  status: ('A' for Active; 'I' for Inactive)
REMARK    1  A    between atoms: C_4  and  C_5 
REMARK    2  A    between atoms: C_5  and  C_6 
REMARK       I    between atoms: C_6  and  N_8 
REMARK    3  A    between atoms: N_8  and  C_9 
REMARK    4  A    between atoms: C_9  and  C_10 
ROOT
HETATM    1  C   UNL     1     -41.365 -54.135  14.436  1.00  0.00     0.223 C 
HETATM    2  O   UNL     1     -40.764 -53.909  15.485  1.00  0.00    -0.273 OA
HETATM    3  N   UNL     1     -42.716 -54.419  14.391  1.00  0.00    -0.360 N 
HETATM    4  H   UNL     1     -43.166 -54.462  13.484  1.00  0.00     0.162 HD
ENDROOT
BRANCH   1   5
HETATM    5  C   UNL     1     -40.671 -54.136  13.089  1.00  0.00     0.161 C 
BRANCH   5   6
HETATM    6  C   UNL     1     -40.606 -52.770  12.503  1.00  0.00     0.036 A 
HETATM    7  C   UNL     1     -39.866 -51.656  12.968  1.00  0.00     0.053 A 
HETATM    8  C   UNL     1     -40.086 -50.661  12.042  1.00  0.00     0.024 A 
HETATM    9  C   UNL     1     -39.583 -49.274  11.944  1.00  0.00     0.070 C 
HETATM   10  N   UNL     1     -40.925 -51.206  11.113  1.00  0.00    -0.305 N 
HETATM   11  N   UNL     1     -41.261 -52.483  11.369  1.00  0.00    -0.304 N 
HETATM   12  H   UNL     1     -41.298 -50.771  10.274  1.00  0.00     0.186 HD
ATOM     13  HN  UNL     1     -41.873 -53.092  10.825  1.00  0.00     0.186 HD
ENDBRANCH   5   6
ENDBRANCH   1   5
BRANCH   3  14
HETATM   14  C   UNL     1     -43.514 -54.432  15.603  1.00  0.00     0.131 C 
BRANCH  14  15
HETATM   15  C   UNL     1     -44.294 -53.113  15.903  1.00  0.00    -0.028 C 
HETATM   16  C   UNL     1     -43.506 -52.312  16.964  1.00  0.00     0.016 C 
HETATM   17  C   UNL     1     -45.685 -53.545  16.458  1.00  0.00     0.011 C 
HETATM   18  C   UNL     1     -46.570 -52.447  17.046  1.00  0.00     0.001 C 
HETATM   19  C   UNL     1     -47.394 -51.632  16.053  1.00  0.00     0.000 C 
HETATM   20  C   UNL     1     -46.816 -51.423  14.660  1.00  0.00     0.000 C 
HETATM   21  C   UNL     1     -45.335 -51.067  14.628  1.00  0.00     0.001 C 
HETATM   22  C   UNL     1     -44.424 -52.295  14.594  1.00  0.00     0.011 C 
ENDBRANCH  14  15
ENDBRANCH   3  14
TORSDOF 4
ENDMDL
MODEL 6
REMARK VINA RESULT:      -6.0      2.365      3.070
REMARK  4 active torsions:
REMARK  status: ('A' for Active; 'I' for Inactive)
REMARK    1  A    between atoms: C_4  and  C_5 
REMARK    2  A    between atoms: C_5  and  C_6 
REMARK       I    between atoms: C_6  and  N_8 
REMARK    3  A    between atoms: N_8  and  C_9 
REMARK    4  A    between atoms: C_9  and  C_10 
ROOT
HETATM    1  C   UNL     1     -41.245 -51.885  12.017  1.00  0.00     0.223 C 
HETATM    2  O   UNL     1     -40.364 -52.718  12.226  1.00  0.00    -0.273 OA
HETATM    3  N   UNL     1     -42.582 -52.129  12.262  1.00  0.00    -0.360 N 
HETATM    4  H   UNL     1     -43.230 -51.354  12.192  1.00  0.00     0.162 HD
ENDROOT
BRANCH   1   5
HETATM    5  C   UNL     1     -40.942 -50.510  11.456  1.00  0.00     0.161 C 
BRANCH   5   6
HETATM    6  C   UNL     1     -39.680 -49.954  12.016  1.00  0.00     0.036 A 
HETATM    7  C   UNL     1     -39.526 -49.080  13.118  1.00  0.00     0.053 A 
HETATM    8  C   UNL     1     -38.167 -48.926  13.273  1.00  0.00     0.024 A 
HETATM    9  C   UNL     1     -37.364 -48.160  14.252  1.00  0.00     0.070 C 
HETATM   10  N   UNL     1     -37.599 -49.678  12.285  1.00  0.00    -0.305 N 
HETATM   11  N   UNL     1     -38.493 -50.310  11.504  1.00  0.00    -0.304 N 
HETATM   12  H   UNL     1     -36.611 -49.816  12.092  1.00  0.00     0.186 HD
ATOM     13  HN  UNL     1     -38.309 -50.919  10.707  1.00  0.00     0.186 HD
ENDBRANCH   5   6
ENDBRANCH   1   5
BRANCH   3  14
HETATM   14  C   UNL     1     -43.017 -53.396  12.819  1.00  0.00     0.131 C 
BRANCH  14  15
HETATM   15  C   UNL     1     -44.334 -53.339  13.657  1.00  0.00    -0.028 C 
HETATM   16  C   UNL     1     -45.039 -54.710  13.549  1.00  0.00     0.016 C 
HETATM   17  C   UNL     1     -45.209 -52.218  13.020  1.00  0.00     0.011 C 
HETATM   18  C   UNL     1     -46.653 -52.101  13.507  1.00  0.00     0.001 C 
HETATM   19  C   UNL     1     -46.874 -51.324  14.801  1.00  0.00     0.000 C 
HETATM   20  C   UNL     1     -45.763 -51.353  15.841  1.00  0.00     0.000 C 
HETATM   21  C   UNL     1     -45.143 -52.724  16.078  1.00  0.00     0.001 C 
HETATM   22  C   UNL     1     -43.981 -53.028  15.132  1.00  0.00     0.011 C 
ENDBRANCH  14  15
ENDBRANCH   3  14
TORSDOF 4
ENDMDL
MODEL 7
REMARK VINA RESULT:      -6.0      2.378      3.917
REMARK  4 active torsions:
REMARK  status: ('A' for Active; 'I' for Inactive)
REMARK    1  A    between atoms: C_4  and  C_5 
REMARK    2  A    between atoms: C_5  and  C_6 
REMARK       I    between atoms: C_6  and  N_8 
REMARK    3  A    between atoms: N_8  and  C_9 
REMARK    4  A    between atoms: C_9  and  C_10 
ROOT
HETATM    1  C   UNL     1     -39.192 -50.604  13.280  1.00  0.00     0.223 C 
HETATM    2  O   UNL     1     -38.728 -50.330  14.386  1.00  0.00    -0.273 OA
HETATM    3  N   UNL     1     -40.152 -51.579  13.089  1.00  0.00    -0.360 N 
HETATM    4  H   UNL     1     -40.580 -51.656  12.175  1.00  0.00     0.162 HD
ENDROOT
BRANCH   1   5
HETATM    5  C   UNL     1     -38.741 -49.900  12.016  1.00  0.00     0.161 C 
BRANCH   5   6
HETATM    6  C   UNL     1     -39.866 -49.186  11.353  1.00  0.00     0.036 A 
HETATM    7  C   UNL     1     -40.384 -47.904  11.657  1.00  0.00     0.053 A 
HETATM    8  C   UNL     1     -41.361 -47.674  10.715  1.00  0.00     0.024 A 
HETATM    9  C   UNL     1     -42.252 -46.517  10.477  1.00  0.00     0.070 C 
HETATM   10  N   UNL     1     -41.385 -48.793   9.934  1.00  0.00    -0.305 N 
HETATM   11  N   UNL     1     -40.492 -49.729  10.299  1.00  0.00    -0.304 N 
HETATM   12  H   UNL     1     -41.975 -48.981   9.127  1.00  0.00     0.186 HD
ATOM     13  HN  UNL     1     -40.329 -50.641   9.874  1.00  0.00     0.186 HD
ENDBRANCH   5   6
ENDBRANCH   1   5
BRANCH   3  14
HETATM   14  C   UNL     1     -40.693 -52.320  14.213  1.00  0.00     0.131 C 
BRANCH  14  15
HETATM   15  C   UNL     1     -41.696 -53.458  13.842  1.00  0.00    -0.028 C 
HETATM   16  C   UNL     1     -41.002 -54.413  12.846  1.00  0.00     0.016 C 
HETATM   17  C   UNL     1     -42.920 -52.760  13.175  1.00  0.00     0.011 C 
HETATM   18  C   UNL     1     -43.957 -53.663  12.510  1.00  0.00     0.001 C 
HETATM   19  C   UNL     1     -45.008 -54.283  13.426  1.00  0.00     0.000 C 
HETATM   20  C   UNL     1     -44.601 -54.588  14.861  1.00  0.00     0.000 C 
HETATM   21  C   UNL     1     -43.231 -55.236  15.014  1.00  0.00     0.001 C 
HETATM   22  C   UNL     1     -42.096 -54.217  15.130  1.00  0.00     0.011 C 
ENDBRANCH  14  15
ENDBRANCH   3  14
TORSDOF 4
ENDMDL
MODEL 8
REMARK VINA RESULT:      -5.7      3.721      5.266
REMARK  4 active torsions:
REMARK  status: ('A' for Active; 'I' for Inactive)
REMARK    1  A    between atoms: C_4  and  C_5 
REMARK    2  A    between atoms: C_5  and  C_6 
REMARK       I    between atoms: C_6  and  N_8 
REMARK    3  A    between atoms: N_8  and  C_9 
REMARK    4  A    between atoms: C_9  and  C_10 
ROOT
HETATM    1  C   UNL     1     -41.906 -48.881  11.891  1.00  0.00     0.223 C 
HETATM    2  O   UNL     1     -41.088 -48.538  12.743  1.00  0.00    -0.273 OA
HETATM    3  N   UNL     1     -42.379 -50.174  11.781  1.00  0.00    -0.360 N 
HETATM    4  H   UNL     1     -43.146 -50.350  11.145  1.00  0.00     0.162 HD
ENDROOT
BRANCH   1   5
HETATM    5  C   UNL     1     -42.463 -47.912  10.868  1.00  0.00     0.161 C 
BRANCH   5   6
HETATM    6  C   UNL     1     -41.631 -46.683  10.766  1.00  0.00     0.036 A 
HETATM    7  C   UNL     1     -41.977 -45.362  11.139  1.00  0.00     0.053 A 
HETATM    8  C   UNL     1     -40.845 -44.612  10.914  1.00  0.00     0.024 A 
HETATM    9  C   UNL     1     -40.552 -43.177  11.123  1.00  0.00     0.070 C 
HETATM   10  N   UNL     1     -39.919 -45.487  10.424  1.00  0.00    -0.305 N 
HETATM   11  N   UNL     1     -40.368 -46.750  10.319  1.00  0.00    -0.304 N 
HETATM   12  H   UNL     1     -38.958 -45.296  10.154  1.00  0.00     0.186 HD
ATOM     13  HN  UNL     1     -39.865 -47.569   9.978  1.00  0.00     0.186 HD
ENDBRANCH   5   6
ENDBRANCH   1   5
BRANCH   3  14
HETATM   14  C   UNL     1     -41.948 -51.205  12.707  1.00  0.00     0.131 C 
BRANCH  14  15
HETATM   15  C   UNL     1     -43.080 -51.832  13.582  1.00  0.00    -0.028 C 
HETATM   16  C   UNL     1     -42.580 -51.910  15.042  1.00  0.00     0.016 C 
HETATM   17  C   UNL     1     -43.334 -53.259  13.009  1.00  0.00     0.011 C 
HETATM   18  C   UNL     1     -44.240 -54.183  13.821  1.00  0.00     0.001 C 
HETATM   19  C   UNL     1     -45.743 -54.007  13.627  1.00  0.00     0.000 C 
HETATM   20  C   UNL     1     -46.252 -52.612  13.289  1.00  0.00     0.000 C 
HETATM   21  C   UNL     1     -45.629 -51.488  14.107  1.00  0.00     0.001 C 
HETATM   22  C   UNL     1     -44.341 -50.940  13.489  1.00  0.00     0.011 C 
ENDBRANCH  14  15
ENDBRANCH   3  14
TORSDOF 4
ENDMDL
MODEL 9
REMARK VINA RESULT:      -5.7      3.178      6.543
REMARK  4 active torsions:
REMARK  status: ('A' for Active; 'I' for Inactive)
REMARK    1  A    between atoms: C_4  and  C_5 
REMARK    2  A    between atoms: C_5  and  C_6 
REMARK       I    between atoms: C_6  and  N_8 
REMARK    3  A    between atoms: N_8  and  C_9 
REMARK    4  A    between atoms: C_9  and  C_10 
ROOT
HETATM    1  C   UNL     1     -40.791 -53.320  13.142  1.00  0.00     0.223 C 
HETATM    2  O   UNL     1     -40.586 -53.076  11.954  1.00  0.00    -0.273 OA
HETATM    3  N   UNL     1     -39.948 -52.899  14.152  1.00  0.00    -0.360 N 
HETATM    4  H   UNL     1     -40.250 -53.022  15.111  1.00  0.00     0.162 HD
ENDROOT
BRANCH   1   5
HETATM    5  C   UNL     1     -41.989 -54.122  13.609  1.00  0.00     0.161 C 
BRANCH   5   6
HETATM    6  C   UNL     1     -43.269 -53.429  13.298  1.00  0.00     0.036 A 
HETATM    7  C   UNL     1     -44.214 -52.895  14.206  1.00  0.00     0.053 A 
HETATM    8  C   UNL     1     -45.176 -52.300  13.422  1.00  0.00     0.024 A 
HETATM    9  C   UNL     1     -46.407 -51.554  13.763  1.00  0.00     0.070 C 
HETATM   10  N   UNL     1     -44.779 -52.511  12.133  1.00  0.00    -0.305 N 
HETATM   11  N   UNL     1     -43.627 -53.197  12.027  1.00  0.00    -0.304 N 
HETATM   12  H   UNL     1     -45.236 -52.206  11.278  1.00  0.00     0.186 HD
ATOM     13  HN  UNL     1     -43.140 -53.477  11.176  1.00  0.00     0.186 HD
ENDBRANCH   5   6
ENDBRANCH   1   5
BRANCH   3  14
HETATM   14  C   UNL     1     -38.771 -52.103  13.855  1.00  0.00     0.131 C 
BRANCH  14  15
HETATM   15  C   UNL     1     -38.736 -50.690  14.519  1.00  0.00    -0.028 C 
HETATM   16  C   UNL     1     -40.189 -50.255  14.814  1.00  0.00     0.016 C 
HETATM   17  C   UNL     1     -38.075 -49.736  13.479  1.00  0.00     0.011 C 
HETATM   18  C   UNL     1     -38.118 -48.239  13.783  1.00  0.00     0.001 C 
HETATM   19  C   UNL     1     -37.044 -47.704  14.725  1.00  0.00     0.000 C 
HETATM   20  C   UNL     1     -36.518 -48.643  15.801  1.00  0.00     0.000 C 
HETATM   21  C   UNL     1     -37.587 -49.449  16.527  1.00  0.00     0.001 C 
HETATM   22  C   UNL     1     -37.918 -50.770  15.831  1.00  0.00     0.011 C 
ENDBRANCH  14  15
ENDBRANCH   3  14
TORSDOF 4
ENDMDL
