MODEL 1
REMARK VINA RESULT:      -6.9      0.000      0.000
REMARK  4 active torsions:
REMARK  status: ('A' for Active; 'I' for Inactive)
REMARK    1  A    between atoms: N_2  and  C_4 
REMARK    2  A    between atoms: N_9  and  C_10 
REMARK    3  A    between atoms: C_10  and  C_11 
REMARK       I    between atoms: C_11  and  N_13 
REMARK    4  A    between atoms: N_13  and  C_14 
ROOT
HETATM    1  C   UNL     1     -42.127 -52.604  12.848  1.00  0.00     0.236 C 
HETATM    2  O   UNL     1     -42.015 -52.419  14.058  1.00  0.00    -0.272 OA
HETATM    3  N   UNL     1     -43.315 -52.971  12.240  1.00  0.00    -0.355 N 
HETATM    4  H   UNL     1     -43.265 -53.420  11.326  1.00  0.00     0.162 HD
ENDROOT
BRANCH   1   5
HETATM    5  C   UNL     1     -40.938 -52.448  11.907  1.00  0.00     0.234 C 
BRANCH   5   6
HETATM    6  N   UNL     1     -40.334 -51.123  11.985  1.00  0.00    -0.314 N 
HETATM    7  C   UNL     1     -39.095 -51.017  12.614  1.00  0.00     0.247 A 
HETATM    8  C   UNL     1     -38.463 -49.666  12.576  1.00  0.00     0.077 A 
HETATM    9  O   UNL     1     -38.519 -51.949  13.164  1.00  0.00    -0.268 OA
HETATM   10  C   UNL     1     -39.097 -48.633  12.005  1.00  0.00     0.043 A 
HETATM   11  C   UNL     1     -40.407 -48.816  11.419  1.00  0.00     0.118 A 
HETATM   12  C   UNL     1     -40.988 -50.028  11.421  1.00  0.00     0.130 A 
BRANCH  11  13
HETATM   13  N   UNL     1     -41.116 -47.709  10.774  1.00  0.00    -0.114 N 
HETATM   14  O   UNL     1     -42.171 -47.952  10.170  1.00  0.00    -0.532 OA
HETATM   15  O   UNL     1     -40.601 -46.583  10.860  1.00  0.00    -0.532 OA
ENDBRANCH  11  13
ENDBRANCH   5   6
ENDBRANCH   1   5
BRANCH   3  16
HETATM   16  C   UNL     1     -44.567 -53.010  12.997  1.00  0.00     0.084 C 
HETATM   17  C   UNL     1     -44.935 -54.449  13.372  1.00  0.00     0.025 C 
HETATM   18  C   UNL     1     -46.077 -54.607  14.382  1.00  0.00     0.002 C 
HETATM   19  C   UNL     1     -45.992 -53.679  15.597  1.00  0.00     0.000 C 
HETATM   20  C   UNL     1     -46.917 -52.458  15.553  1.00  0.00     0.000 C 
HETATM   21  C   UNL     1     -46.666 -51.398  14.474  1.00  0.00     0.000 C 
HETATM   22  C   UNL     1     -46.918 -51.867  13.038  1.00  0.00     0.002 C 
HETATM   23  C   UNL     1     -45.671 -52.267  12.235  1.00  0.00     0.025 C 
ENDBRANCH   3  16
TORSDOF 4
ENDMDL
MODEL 2
REMARK VINA RESULT:      -6.5      1.793      2.246
REMARK  4 active torsions:
REMARK  status: ('A' for Active; 'I' for Inactive)
REMARK    1  A    between atoms: N_2  and  C_4 
REMARK    2  A    between atoms: N_9  and  C_10 
REMARK    3  A    between atoms: C_10  and  C_11 
REMARK       I    between atoms: C_11  and  N_13 
REMARK    4  A    between atoms: N_13  and  C_14 
ROOT
HETATM    1  C   UNL     1     -42.231 -50.822  12.739  1.00  0.00     0.236 C 
HETATM    2  O   UNL     1     -42.425 -50.204  13.784  1.00  0.00    -0.272 OA
HETATM    3  N   UNL     1     -42.977 -51.923  12.355  1.00  0.00    -0.355 N 
HETATM    4  H   UNL     1     -42.566 -52.565  11.677  1.00  0.00     0.162 HD
ENDROOT
BRANCH   1   5
HETATM    5  C   UNL     1     -41.125 -50.417  11.771  1.00  0.00     0.234 C 
BRANCH   5   6
HETATM    6  N   UNL     1     -41.135 -48.988  11.477  1.00  0.00    -0.314 N 
HETATM    7  C   UNL     1     -40.061 -48.229  11.938  1.00  0.00     0.247 A 
HETATM    8  C   UNL     1     -40.055 -46.797  11.524  1.00  0.00     0.077 A 
HETATM    9  O   UNL     1     -39.151 -48.672  12.631  1.00  0.00    -0.268 OA
HETATM   10  C   UNL     1     -41.061 -46.294  10.793  1.00  0.00     0.043 A 
HETATM   11  C   UNL     1     -42.167 -47.139  10.399  1.00  0.00     0.118 A 
HETATM   12  C   UNL     1     -42.184 -48.438  10.742  1.00  0.00     0.130 A 
BRANCH  11  13
HETATM   13  N   UNL     1     -43.270 -46.621   9.587  1.00  0.00    -0.114 N 
HETATM   14  O   UNL     1     -43.070 -45.622   8.883  1.00  0.00    -0.532 OA
HETATM   15  O   UNL     1     -44.357 -47.216   9.668  1.00  0.00    -0.532 OA
ENDBRANCH  11  13
ENDBRANCH   5   6
ENDBRANCH   1   5
BRANCH   3  16
HETATM   16  C   UNL     1     -44.161 -52.329  13.110  1.00  0.00     0.084 C 
HETATM   17  C   UNL     1     -44.443 -53.824  12.923  1.00  0.00     0.025 C 
HETATM   18  C   UNL     1     -45.494 -54.430  13.860  1.00  0.00     0.002 C 
HETATM   19  C   UNL     1     -45.349 -54.032  15.331  1.00  0.00     0.000 C 
HETATM   20  C   UNL     1     -46.321 -52.950  15.814  1.00  0.00     0.000 C 
HETATM   21  C   UNL     1     -46.197 -51.545  15.213  1.00  0.00     0.000 C 
HETATM   22  C   UNL     1     -46.545 -51.446  13.725  1.00  0.00     0.002 C 
HETATM   23  C   UNL     1     -45.351 -51.427  12.758  1.00  0.00     0.025 C 
ENDBRANCH   3  16
TORSDOF 4
ENDMDL
MODEL 3
REMARK VINA RESULT:      -6.2      2.832      6.493
REMARK  4 active torsions:
REMARK  status: ('A' for Active; 'I' for Inactive)
REMARK    1  A    between atoms: N_2  and  C_4 
REMARK    2  A    between atoms: N_9  and  C_10 
REMARK    3  A    between atoms: C_10  and  C_11 
REMARK       I    between atoms: C_11  and  N_13 
REMARK    4  A    between atoms: N_13  and  C_14 
ROOT
HETATM    1  C   UNL     1     -41.008 -51.051  12.442  1.00  0.00     0.236 C 
HETATM    2  O   UNL     1     -40.394 -50.596  13.406  1.00  0.00    -0.272 OA
HETATM    3  N   UNL     1     -41.826 -50.285  11.629  1.00  0.00    -0.355 N 
HETATM    4  H   UNL     1     -42.540 -50.765  11.081  1.00  0.00     0.162 HD
ENDROOT
BRANCH   1   5
HETATM    5  C   UNL     1     -40.920 -52.526  12.069  1.00  0.00     0.234 C 
BRANCH   5   6
HETATM    6  N   UNL     1     -41.648 -53.382  12.999  1.00  0.00    -0.314 N 
HETATM    7  C   UNL     1     -40.933 -53.934  14.060  1.00  0.00     0.247 A 
HETATM    8  C   UNL     1     -41.735 -54.713  15.047  1.00  0.00     0.077 A 
HETATM    9  O   UNL     1     -39.724 -53.803  14.218  1.00  0.00    -0.268 OA
HETATM   10  C   UNL     1     -43.052 -54.889  14.866  1.00  0.00     0.043 A 
HETATM   11  C   UNL     1     -43.710 -54.326  13.708  1.00  0.00     0.118 A 
HETATM   12  C   UNL     1     -43.013 -53.602  12.816  1.00  0.00     0.130 A 
BRANCH  11  13
HETATM   13  N   UNL     1     -45.150 -54.488  13.495  1.00  0.00    -0.114 N 
HETATM   14  O   UNL     1     -45.730 -55.430  14.054  1.00  0.00    -0.532 OA
HETATM   15  O   UNL     1     -45.705 -53.670  12.745  1.00  0.00    -0.532 OA
ENDBRANCH  11  13
ENDBRANCH   5   6
ENDBRANCH   1   5
BRANCH   3  16
HETATM   16  C   UNL     1     -41.887 -48.831  11.778  1.00  0.00     0.084 C 
HETATM   17  C   UNL     1     -42.975 -48.428  12.779  1.00  0.00     0.025 C 
HETATM   18  C   UNL     1     -42.969 -46.961  13.221  1.00  0.00     0.002 C 
HETATM   19  C   UNL     1     -41.590 -46.406  13.588  1.00  0.00     0.000 C 
HETATM   20  C   UNL     1     -40.932 -45.529  12.518  1.00  0.00     0.000 C 
HETATM   21  C   UNL     1     -40.537 -46.182  11.188  1.00  0.00     0.000 C 
HETATM   22  C   UNL     1     -41.713 -46.660  10.330  1.00  0.00     0.002 C 
HETATM   23  C   UNL     1     -42.029 -48.162  10.405  1.00  0.00     0.025 C 
ENDBRANCH   3  16
TORSDOF 4
ENDMDL
MODEL 4
REMARK VINA RESULT:      -6.2      4.213      7.342
REMARK  4 active torsions:
REMARK  status: ('A' for Active; 'I' for Inactive)
REMARK    1  A    between atoms: N_2  and  C_4 
REMARK    2  A    between atoms: N_9  and  C_10 
REMARK    3  A    between atoms: C_10  and  C_11 
REMARK       I    between atoms: C_11  and  N_13 
REMARK    4  A    between atoms: N_13  and  C_14 
ROOT
HETATM    1  C   UNL     1     -43.519 -54.993  14.796  1.00  0.00     0.236 C 
HETATM    2  O   UNL     1     -43.153 -55.955  15.469  1.00  0.00    -0.272 OA
HETATM    3  N   UNL     1     -42.740 -53.869  14.588  1.00  0.00    -0.355 N 
HETATM    4  H   UNL     1     -43.210 -53.005  14.318  1.00  0.00     0.162 HD
ENDROOT
BRANCH   1   5
HETATM    5  C   UNL     1     -44.891 -54.963  14.133  1.00  0.00     0.234 C 
BRANCH   5   6
HETATM    6  N   UNL     1     -45.573 -53.687  14.319  1.00  0.00    -0.314 N 
HETATM    7  C   UNL     1     -45.729 -52.872  13.200  1.00  0.00     0.247 A 
HETATM    8  C   UNL     1     -46.526 -51.629  13.409  1.00  0.00     0.077 A 
HETATM    9  O   UNL     1     -45.269 -53.126  12.092  1.00  0.00    -0.268 OA
HETATM   10  C   UNL     1     -47.007 -51.324  14.623  1.00  0.00     0.043 A 
HETATM   11  C   UNL     1     -46.756 -52.200  15.746  1.00  0.00     0.118 A 
HETATM   12  C   UNL     1     -46.059 -53.337  15.578  1.00  0.00     0.130 A 
BRANCH  11  13
HETATM   13  N   UNL     1     -47.283 -51.901  17.080  1.00  0.00    -0.114 N 
HETATM   14  O   UNL     1     -46.579 -52.157  18.066  1.00  0.00    -0.532 OA
HETATM   15  O   UNL     1     -48.424 -51.416  17.139  1.00  0.00    -0.532 OA
ENDBRANCH  11  13
ENDBRANCH   5   6
ENDBRANCH   1   5
BRANCH   3  16
HETATM   16  C   UNL     1     -41.348 -53.824  15.036  1.00  0.00     0.084 C 
HETATM   17  C   UNL     1     -41.019 -52.467  15.667  1.00  0.00     0.025 C 
HETATM   18  C   UNL     1     -39.681 -52.378  16.408  1.00  0.00     0.002 C 
HETATM   19  C   UNL     1     -39.387 -53.555  17.344  1.00  0.00     0.000 C 
HETATM   20  C   UNL     1     -38.403 -54.594  16.796  1.00  0.00     0.000 C 
HETATM   21  C   UNL     1     -38.823 -55.414  15.570  1.00  0.00     0.000 C 
HETATM   22  C   UNL     1     -38.972 -54.608  14.276  1.00  0.00     0.002 C 
HETATM   23  C   UNL     1     -40.407 -54.219  13.891  1.00  0.00     0.025 C 
ENDBRANCH   3  16
TORSDOF 4
ENDMDL
MODEL 5
REMARK VINA RESULT:      -6.1      1.685      3.246
REMARK  4 active torsions:
REMARK  status: ('A' for Active; 'I' for Inactive)
REMARK    1  A    between atoms: N_2  and  C_4 
REMARK    2  A    between atoms: N_9  and  C_10 
REMARK    3  A    between atoms: C_10  and  C_11 
REMARK       I    between atoms: C_11  and  N_13 
REMARK    4  A    between atoms: N_13  and  C_14 
ROOT
HETATM    1  C   UNL     1     -42.957 -49.927  12.902  1.00  0.00     0.236 C 
HETATM    2  O   UNL     1     -43.258 -49.464  14.001  1.00  0.00    -0.272 OA
HETATM    3  N   UNL     1     -43.386 -51.164  12.453  1.00  0.00    -0.355 N 
HETATM    4  H   UNL     1     -42.850 -51.616  11.712  1.00  0.00     0.162 HD
ENDROOT
BRANCH   1   5
HETATM    5  C   UNL     1     -42.063 -49.160  11.934  1.00  0.00     0.234 C 
BRANCH   5   6
HETATM    6  N   UNL     1     -40.676 -49.103  12.381  1.00  0.00    -0.314 N 
HETATM    7  C   UNL     1     -40.180 -47.866  12.786  1.00  0.00     0.247 A 
HETATM    8  C   UNL     1     -38.794 -47.871  13.338  1.00  0.00     0.077 A 
HETATM    9  O   UNL     1     -40.811 -46.816  12.724  1.00  0.00    -0.268 OA
HETATM   10  C   UNL     1     -38.083 -49.008  13.382  1.00  0.00     0.043 A 
HETATM   11  C   UNL     1     -38.653 -50.243  12.891  1.00  0.00     0.118 A 
HETATM   12  C   UNL     1     -39.908 -50.267  12.410  1.00  0.00     0.130 A 
BRANCH  11  13
HETATM   13  N   UNL     1     -37.906 -51.502  12.942  1.00  0.00    -0.114 N 
HETATM   14  O   UNL     1     -36.836 -51.581  12.322  1.00  0.00    -0.532 OA
HETATM   15  O   UNL     1     -38.406 -52.428  13.601  1.00  0.00    -0.532 OA
ENDBRANCH  11  13
ENDBRANCH   5   6
ENDBRANCH   1   5
BRANCH   3  16
HETATM   16  C   UNL     1     -44.367 -51.940  13.211  1.00  0.00     0.084 C 
HETATM   17  C   UNL     1     -44.335 -53.416  12.798  1.00  0.00     0.025 C 
HETATM   18  C   UNL     1     -45.124 -54.379  13.692  1.00  0.00     0.002 C 
HETATM   19  C   UNL     1     -44.913 -54.178  15.195  1.00  0.00     0.000 C 
HETATM   20  C   UNL     1     -46.040 -53.434  15.919  1.00  0.00     0.000 C 
HETATM   21  C   UNL     1     -46.290 -51.966  15.554  1.00  0.00     0.000 C 
HETATM   22  C   UNL     1     -46.806 -51.734  14.131  1.00  0.00     0.002 C 
HETATM   23  C   UNL     1     -45.755 -51.296  13.100  1.00  0.00     0.025 C 
ENDBRANCH   3  16
TORSDOF 4
ENDMDL
MODEL 6
REMARK VINA RESULT:      -5.8      2.367      3.251
REMARK  4 active torsions:
REMARK  status: ('A' for Active; 'I' for Inactive)
REMARK    1  A    between atoms: N_2  and  C_4 
REMARK    2  A    between atoms: N_9  and  C_10 
REMARK    3  A    between atoms: C_10  and  C_11 
REMARK       I    between atoms: C_11  and  N_13 
REMARK    4  A    between atoms: N_13  and  C_14 
ROOT
HETATM    1  C   UNL     1     -42.680 -49.724  13.522  1.00  0.00     0.236 C 
HETATM    2  O   UNL     1     -42.899 -49.688  14.731  1.00  0.00    -0.272 OA
HETATM    3  N   UNL     1     -43.146 -50.729  12.692  1.00  0.00    -0.355 N 
HETATM    4  H   UNL     1     -42.667 -50.876  11.803  1.00  0.00     0.162 HD
ENDROOT
BRANCH   1   5
HETATM    5  C   UNL     1     -41.852 -48.645  12.832  1.00  0.00     0.234 C 
BRANCH   5   6
HETATM    6  N   UNL     1     -40.429 -48.964  12.808  1.00  0.00    -0.314 N 
HETATM    7  C   UNL     1     -39.934 -49.613  11.678  1.00  0.00     0.247 A 
HETATM    8  C   UNL     1     -38.458 -49.821  11.646  1.00  0.00     0.077 A 
HETATM    9  O   UNL     1     -40.628 -49.994  10.742  1.00  0.00    -0.268 OA
HETATM   10  C   UNL     1     -37.692 -49.437  12.678  1.00  0.00     0.043 A 
HETATM   11  C   UNL     1     -38.292 -48.817  13.838  1.00  0.00     0.118 A 
HETATM   12  C   UNL     1     -39.618 -48.598  13.881  1.00  0.00     0.130 A 
BRANCH  11  13
HETATM   13  N   UNL     1     -37.479 -48.372  14.972  1.00  0.00    -0.114 N 
HETATM   14  O   UNL     1     -36.495 -47.652  14.750  1.00  0.00    -0.532 OA
HETATM   15  O   UNL     1     -37.822 -48.762  16.099  1.00  0.00    -0.532 OA
ENDBRANCH  11  13
ENDBRANCH   5   6
ENDBRANCH   1   5
BRANCH   3  16
HETATM   16  C   UNL     1     -44.075 -51.744  13.188  1.00  0.00     0.084 C 
HETATM   17  C   UNL     1     -43.829 -53.093  12.504  1.00  0.00     0.025 C 
HETATM   18  C   UNL     1     -44.555 -54.296  13.116  1.00  0.00     0.002 C 
HETATM   19  C   UNL     1     -44.481 -54.383  14.643  1.00  0.00     0.000 C 
HETATM   20  C   UNL     1     -45.742 -53.926  15.384  1.00  0.00     0.000 C 
HETATM   21  C   UNL     1     -46.146 -52.450  15.286  1.00  0.00     0.000 C 
HETATM   22  C   UNL     1     -46.582 -51.992  13.891  1.00  0.00     0.002 C 
HETATM   23  C   UNL     1     -45.521 -51.244  13.070  1.00  0.00     0.025 C 
ENDBRANCH   3  16
TORSDOF 4
ENDMDL
MODEL 7
REMARK VINA RESULT:      -5.5      2.833      7.275
REMARK  4 active torsions:
REMARK  status: ('A' for Active; 'I' for Inactive)
REMARK    1  A    between atoms: N_2  and  C_4 
REMARK    2  A    between atoms: N_9  and  C_10 
REMARK    3  A    between atoms: C_10  and  C_11 
REMARK       I    between atoms: C_11  and  N_13 
REMARK    4  A    between atoms: N_13  and  C_14 
ROOT
HETATM    1  C   UNL     1     -41.109 -49.392  12.978  1.00  0.00     0.236 C 
HETATM    2  O   UNL     1     -41.742 -49.214  14.016  1.00  0.00    -0.272 OA
HETATM    3  N   UNL     1     -39.934 -48.724  12.678  1.00  0.00    -0.355 N 
HETATM    4  H   UNL     1     -39.653 -48.668  11.698  1.00  0.00     0.162 HD
ENDROOT
BRANCH   1   5
HETATM    5  C   UNL     1     -41.584 -50.377  11.916  1.00  0.00     0.234 C 
BRANCH   5   6
HETATM    6  N   UNL     1     -41.640 -51.748  12.412  1.00  0.00    -0.314 N 
HETATM    7  C   UNL     1     -40.433 -52.368  12.728  1.00  0.00     0.247 A 
HETATM    8  C   UNL     1     -40.542 -53.727  13.333  1.00  0.00     0.077 A 
HETATM    9  O   UNL     1     -39.331 -51.862  12.550  1.00  0.00    -0.268 OA
HETATM   10  C   UNL     1     -41.741 -54.303  13.504  1.00  0.00     0.043 A 
HETATM   11  C   UNL     1     -42.945 -53.612  13.099  1.00  0.00     0.118 A 
HETATM   12  C   UNL     1     -42.874 -52.377  12.572  1.00  0.00     0.130 A 
BRANCH  11  13
HETATM   13  N   UNL     1     -44.269 -54.210  13.289  1.00  0.00    -0.114 N 
HETATM   14  O   UNL     1     -44.435 -54.993  14.234  1.00  0.00    -0.532 OA
HETATM   15  O   UNL     1     -45.149 -53.902  12.470  1.00  0.00    -0.532 OA
ENDBRANCH  11  13
ENDBRANCH   5   6
ENDBRANCH   1   5
BRANCH   3  16
HETATM   16  C   UNL     1     -39.284 -47.865  13.666  1.00  0.00     0.084 C 
HETATM   17  C   UNL     1     -39.434 -46.387  13.290  1.00  0.00     0.025 C 
HETATM   18  C   UNL     1     -39.028 -45.376  14.369  1.00  0.00     0.002 C 
HETATM   19  C   UNL     1     -39.554 -45.688  15.772  1.00  0.00     0.000 C 
HETATM   20  C   UNL     1     -38.532 -46.311  16.729  1.00  0.00     0.000 C 
HETATM   21  C   UNL     1     -37.991 -47.708  16.403  1.00  0.00     0.000 C 
HETATM   22  C   UNL     1     -37.126 -47.786  15.142  1.00  0.00     0.002 C 
HETATM   23  C   UNL     1     -37.829 -48.305  13.878  1.00  0.00     0.025 C 
ENDBRANCH   3  16
TORSDOF 4
ENDMDL
MODEL 8
REMARK VINA RESULT:      -5.5      2.642      4.066
REMARK  4 active torsions:
REMARK  status: ('A' for Active; 'I' for Inactive)
REMARK    1  A    between atoms: N_2  and  C_4 
REMARK    2  A    between atoms: N_9  and  C_10 
REMARK    3  A    between atoms: C_10  and  C_11 
REMARK       I    between atoms: C_11  and  N_13 
REMARK    4  A    between atoms: N_13  and  C_14 
ROOT
HETATM    1  C   UNL     1     -42.779 -49.711  13.414  1.00  0.00     0.236 C 
HETATM    2  O   UNL     1     -42.428 -49.905  14.577  1.00  0.00    -0.272 OA
HETATM    3  N   UNL     1     -42.928 -50.725  12.483  1.00  0.00    -0.355 N 
HETATM    4  H   UNL     1     -42.891 -50.475  11.495  1.00  0.00     0.162 HD
ENDROOT
BRANCH   1   5
HETATM    5  C   UNL     1     -43.073 -48.308  12.897  1.00  0.00     0.234 C 
BRANCH   5   6
HETATM    6  N   UNL     1     -41.859 -47.549  12.619  1.00  0.00    -0.314 N 
HETATM    7  C   UNL     1     -41.324 -47.639  11.335  1.00  0.00     0.247 A 
HETATM    8  C   UNL     1     -40.148 -46.764  11.060  1.00  0.00     0.077 A 
HETATM    9  O   UNL     1     -41.767 -48.367  10.453  1.00  0.00    -0.268 OA
HETATM   10  C   UNL     1     -39.636 -45.987  12.027  1.00  0.00     0.043 A 
HETATM   11  C   UNL     1     -40.219 -45.991  13.350  1.00  0.00     0.118 A 
HETATM   12  C   UNL     1     -41.293 -46.755  13.616  1.00  0.00     0.130 A 
BRANCH  11  13
HETATM   13  N   UNL     1     -39.691 -45.141  14.419  1.00  0.00    -0.114 N 
HETATM   14  O   UNL     1     -39.546 -45.630  15.548  1.00  0.00    -0.532 OA
HETATM   15  O   UNL     1     -39.434 -43.963  14.127  1.00  0.00    -0.532 OA
ENDBRANCH  11  13
ENDBRANCH   5   6
ENDBRANCH   1   5
BRANCH   3  16
HETATM   16  C   UNL     1     -42.825 -52.129  12.878  1.00  0.00     0.084 C 
HETATM   17  C   UNL     1     -41.486 -52.727  12.433  1.00  0.00     0.025 C 
HETATM   18  C   UNL     1     -41.143 -54.105  13.007  1.00  0.00     0.002 C 
HETATM   19  C   UNL     1     -41.389 -54.254  14.511  1.00  0.00     0.000 C 
HETATM   20  C   UNL     1     -42.668 -55.007  14.892  1.00  0.00     0.000 C 
HETATM   21  C   UNL     1     -44.017 -54.373  14.530  1.00  0.00     0.000 C 
HETATM   22  C   UNL     1     -44.304 -54.281  13.029  1.00  0.00     0.002 C 
HETATM   23  C   UNL     1     -44.048 -52.912  12.381  1.00  0.00     0.025 C 
ENDBRANCH   3  16
TORSDOF 4
ENDMDL
MODEL 9
REMARK VINA RESULT:      -5.4      2.644      7.600
REMARK  4 active torsions:
REMARK  status: ('A' for Active; 'I' for Inactive)
REMARK    1  A    between atoms: N_2  and  C_4 
REMARK    2  A    between atoms: N_9  and  C_10 
REMARK    3  A    between atoms: C_10  and  C_11 
REMARK       I    between atoms: C_11  and  N_13 
REMARK    4  A    between atoms: N_13  and  C_14 
ROOT
HETATM    1  C   UNL     1     -42.587 -51.438  13.207  1.00  0.00     0.236 C 
HETATM    2  O   UNL     1     -41.830 -51.276  14.163  1.00  0.00    -0.272 OA
HETATM    3  N   UNL     1     -42.617 -50.597  12.108  1.00  0.00    -0.355 N 
HETATM    4  H   UNL     1     -43.462 -50.589  11.536  1.00  0.00     0.162 HD
ENDROOT
BRANCH   1   5
HETATM    5  C   UNL     1     -43.576 -52.597  13.164  1.00  0.00     0.234 C 
BRANCH   5   6
HETATM    6  N   UNL     1     -44.661 -52.442  14.126  1.00  0.00    -0.314 N 
HETATM    7  C   UNL     1     -45.759 -51.676  13.740  1.00  0.00     0.247 A 
HETATM    8  C   UNL     1     -46.892 -51.633  14.708  1.00  0.00     0.077 A 
HETATM    9  O   UNL     1     -45.837 -51.070  12.676  1.00  0.00    -0.268 OA
HETATM   10  C   UNL     1     -46.805 -52.266  15.887  1.00  0.00     0.043 A 
HETATM   11  C   UNL     1     -45.607 -52.997  16.235  1.00  0.00     0.118 A 
HETATM   12  C   UNL     1     -44.581 -53.069  15.369  1.00  0.00     0.130 A 
BRANCH  11  13
HETATM   13  N   UNL     1     -45.491 -53.711  17.508  1.00  0.00    -0.114 N 
HETATM   14  O   UNL     1     -46.033 -54.820  17.617  1.00  0.00    -0.532 OA
HETATM   15  O   UNL     1     -44.860 -53.147  18.416  1.00  0.00    -0.532 OA
ENDBRANCH  11  13
ENDBRANCH   5   6
ENDBRANCH   1   5
BRANCH   3  16
HETATM   16  C   UNL     1     -41.625 -49.535  11.946  1.00  0.00     0.084 C 
HETATM   17  C   UNL     1     -42.125 -48.461  10.975  1.00  0.00     0.025 C 
HETATM   18  C   UNL     1     -41.299 -47.171  10.918  1.00  0.00     0.002 C 
HETATM   19  C   UNL     1     -40.904 -46.600  12.282  1.00  0.00     0.000 C 
HETATM   20  C   UNL     1     -39.458 -46.873  12.711  1.00  0.00     0.000 C 
HETATM   21  C   UNL     1     -39.042 -48.325  12.973  1.00  0.00     0.000 C 
HETATM   22  C   UNL     1     -39.036 -49.228  11.736  1.00  0.00     0.002 C 
HETATM   23  C   UNL     1     -40.265 -50.133  11.561  1.00  0.00     0.025 C 
ENDBRANCH   3  16
TORSDOF 4
ENDMDL
