MODEL 1
REMARK VINA RESULT:      -6.2      0.000      0.000
REMARK  3 active torsions:
REMARK  status: ('A' for Active; 'I' for Inactive)
REMARK    1  A    between atoms: C_8  and  C_9 
REMARK    2  A    between atoms: C_9  and  C_10 
REMARK       I    between atoms: C_10  and  N_12 
REMARK    3  A    between atoms: N_12  and  C_13 
ROOT
HETATM    1  C   UNL     1     -42.189 -50.212  12.312  1.00  0.00     0.222 C 
HETATM    2  O   UNL     1     -41.057 -50.613  12.065  1.00  0.00    -0.273 OA
HETATM    3  N   UNL     1     -42.764 -49.136  11.663  1.00  0.00    -0.354 N 
HETATM    4  H   UNL     1     -43.663 -48.799  11.986  1.00  0.00     0.162 HD
ENDROOT
BRANCH   1   5
HETATM    5  C   UNL     1     -43.044 -50.846  13.393  1.00  0.00     0.146 C 
BRANCH   5   6
HETATM    6  C   UNL     1     -43.682 -52.144  13.026  1.00  0.00     0.006 A 
HETATM    7  C   UNL     1     -43.124 -53.451  12.890  1.00  0.00     0.038 A 
HETATM    8  C   UNL     1     -41.723 -53.904  13.064  1.00  0.00     0.071 C 
HETATM    9  N   UNL     1     -44.062 -54.353  12.577  1.00  0.00    -0.265 N 
HETATM   10  O   UNL     1     -45.253 -53.668  12.540  1.00  0.00    -0.242 OA
ATOM     11  HN  UNL     1     -43.921 -55.348  12.401  1.00  0.00     0.194 HD
HETATM   12  C   UNL     1     -45.034 -52.359  12.821  1.00  0.00     0.081 A 
HETATM   13  C   UNL     1     -46.234 -51.502  12.872  1.00  0.00     0.079 C 
ENDBRANCH   5   6
ENDBRANCH   1   5
BRANCH   3  14
HETATM   14  C   UNL     1     -41.988 -48.273  10.771  1.00  0.00     0.119 C 
HETATM   15  C   UNL     1     -42.863 -47.662   9.664  1.00  0.00     0.057 C 
HETATM   16  C   UNL     1     -42.642 -46.148   9.725  1.00  0.00     0.275 C 
HETATM   17  N   UNL     1     -41.386 -46.012  10.451  1.00  0.00     0.095 N 
HETATM   18  C   UNL     1     -41.148 -44.688  11.019  1.00  0.00     0.273 C 
HETATM   19  C   UNL     1     -41.428 -47.039  11.499  1.00  0.00     0.245 C 
HETATM   20  C   UNL     1     -39.812 -44.667  11.778  1.00  0.00     0.030 C 
HETATM   21  C   UNL     1     -39.655 -45.840  12.752  1.00  0.00     0.004 C 
HETATM   22  C   UNL     1     -40.031 -47.173  12.094  1.00  0.00     0.038 C 
ENDBRANCH   3  14
TORSDOF 3
ENDMDL
MODEL 2
REMARK VINA RESULT:      -6.0      2.246      7.282
REMARK  3 active torsions:
REMARK  status: ('A' for Active; 'I' for Inactive)
REMARK    1  A    between atoms: C_8  and  C_9 
REMARK    2  A    between atoms: C_9  and  C_10 
REMARK       I    between atoms: C_10  and  N_12 
REMARK    3  A    between atoms: N_12  and  C_13 
ROOT
HETATM    1  C   UNL     1     -42.415 -49.044  11.766  1.00  0.00     0.222 C 
HETATM    2  O   UNL     1     -41.456 -49.199  11.017  1.00  0.00    -0.273 OA
HETATM    3  N   UNL     1     -42.856 -50.023  12.634  1.00  0.00    -0.354 N 
HETATM    4  H   UNL     1     -43.711 -49.863  13.152  1.00  0.00     0.162 HD
ENDROOT
BRANCH   1   5
HETATM    5  C   UNL     1     -43.230 -47.764  11.767  1.00  0.00     0.146 C 
BRANCH   5   6
HETATM    6  C   UNL     1     -43.339 -47.072  10.450  1.00  0.00     0.006 A 
HETATM    7  C   UNL     1     -44.372 -47.101   9.465  1.00  0.00     0.038 A 
HETATM    8  C   UNL     1     -45.652 -47.849   9.458  1.00  0.00     0.071 C 
HETATM    9  N   UNL     1     -44.086 -46.299   8.433  1.00  0.00    -0.265 N 
HETATM   10  O   UNL     1     -42.885 -45.701   8.735  1.00  0.00    -0.242 OA
ATOM     11  HN  UNL     1     -44.645 -46.159   7.591  1.00  0.00     0.194 HD
HETATM   12  C   UNL     1     -42.447 -46.146   9.939  1.00  0.00     0.081 A 
HETATM   13  C   UNL     1     -41.188 -45.549  10.426  1.00  0.00     0.079 C 
ENDBRANCH   5   6
ENDBRANCH   1   5
BRANCH   3  14
HETATM   14  C   UNL     1     -42.331 -51.389  12.583  1.00  0.00     0.119 C 
HETATM   15  C   UNL     1     -40.996 -51.517  13.335  1.00  0.00     0.057 C 
HETATM   16  C   UNL     1     -41.171 -52.665  14.334  1.00  0.00     0.275 C 
HETATM   17  N   UNL     1     -42.310 -53.407  13.809  1.00  0.00     0.095 N 
HETATM   18  C   UNL     1     -42.959 -54.293  14.772  1.00  0.00     0.273 C 
HETATM   19  C   UNL     1     -43.244 -52.389  13.313  1.00  0.00     0.245 C 
HETATM   20  C   UNL     1     -44.154 -55.004  14.119  1.00  0.00     0.030 C 
HETATM   21  C   UNL     1     -45.089 -54.046  13.372  1.00  0.00     0.004 C 
HETATM   22  C   UNL     1     -44.306 -53.086  12.470  1.00  0.00     0.038 C 
ENDBRANCH   3  14
TORSDOF 3
ENDMDL
MODEL 3
REMARK VINA RESULT:      -6.0      2.150      6.967
REMARK  3 active torsions:
REMARK  status: ('A' for Active; 'I' for Inactive)
REMARK    1  A    between atoms: C_8  and  C_9 
REMARK    2  A    between atoms: C_9  and  C_10 
REMARK       I    between atoms: C_10  and  N_12 
REMARK    3  A    between atoms: N_12  and  C_13 
ROOT
HETATM    1  C   UNL     1     -41.974 -48.666  11.674  1.00  0.00     0.222 C 
HETATM    2  O   UNL     1     -41.210 -48.318  12.568  1.00  0.00    -0.273 OA
HETATM    3  N   UNL     1     -42.975 -49.598  11.861  1.00  0.00    -0.354 N 
HETATM    4  H   UNL     1     -43.505 -49.910  11.056  1.00  0.00     0.162 HD
ENDROOT
BRANCH   1   5
HETATM    5  C   UNL     1     -41.851 -48.124  10.262  1.00  0.00     0.146 C 
BRANCH   5   6
HETATM    6  C   UNL     1     -42.553 -46.832  10.007  1.00  0.00     0.006 A 
HETATM    7  C   UNL     1     -43.843 -46.566   9.459  1.00  0.00     0.038 A 
HETATM    8  C   UNL     1     -44.874 -47.510   8.962  1.00  0.00     0.071 C 
HETATM    9  N   UNL     1     -44.104 -45.253   9.436  1.00  0.00    -0.265 N 
HETATM   10  O   UNL     1     -43.012 -44.638  10.002  1.00  0.00    -0.242 OA
ATOM     11  HN  UNL     1     -44.942 -44.801   9.072  1.00  0.00     0.194 HD
HETATM   12  C   UNL     1     -42.096 -45.573  10.356  1.00  0.00     0.081 A 
HETATM   13  C   UNL     1     -40.885 -45.066  11.030  1.00  0.00     0.079 C 
ENDBRANCH   5   6
ENDBRANCH   1   5
BRANCH   3  14
HETATM   14  C   UNL     1     -43.072 -50.386  13.091  1.00  0.00     0.119 C 
HETATM   15  C   UNL     1     -44.533 -50.703  13.452  1.00  0.00     0.057 C 
HETATM   16  C   UNL     1     -44.612 -52.222  13.632  1.00  0.00     0.275 C 
HETATM   17  N   UNL     1     -43.227 -52.617  13.849  1.00  0.00     0.095 N 
HETATM   18  C   UNL     1     -42.953 -54.035  13.630  1.00  0.00     0.273 C 
HETATM   19  C   UNL     1     -42.436 -51.777  12.941  1.00  0.00     0.245 C 
HETATM   20  C   UNL     1     -41.463 -54.331  13.865  1.00  0.00     0.030 C 
HETATM   21  C   UNL     1     -40.533 -53.359  13.129  1.00  0.00     0.004 C 
HETATM   22  C   UNL     1     -40.967 -51.902  13.333  1.00  0.00     0.038 C 
ENDBRANCH   3  14
TORSDOF 3
ENDMDL
MODEL 4
REMARK VINA RESULT:      -6.0      1.752      3.308
REMARK  3 active torsions:
REMARK  status: ('A' for Active; 'I' for Inactive)
REMARK    1  A    between atoms: C_8  and  C_9 
REMARK    2  A    between atoms: C_9  and  C_10 
REMARK       I    between atoms: C_10  and  N_12 
REMARK    3  A    between atoms: N_12  and  C_13 
ROOT
HETATM    1  C   UNL     1     -43.306 -50.824  13.213  1.00  0.00     0.222 C 
HETATM    2  O   UNL     1     -43.798 -50.441  14.268  1.00  0.00    -0.273 OA
HETATM    3  N   UNL     1     -42.852 -49.959  12.237  1.00  0.00    -0.354 N 
HETATM    4  H   UNL     1     -42.548 -50.343  11.351  1.00  0.00     0.162 HD
ENDROOT
BRANCH   1   5
HETATM    5  C   UNL     1     -43.193 -52.299  12.872  1.00  0.00     0.146 C 
BRANCH   5   6
HETATM    6  C   UNL     1     -44.285 -53.165  13.405  1.00  0.00     0.006 A 
HETATM    7  C   UNL     1     -45.691 -53.145  13.163  1.00  0.00     0.038 A 
HETATM    8  C   UNL     1     -46.492 -52.235  12.309  1.00  0.00     0.071 C 
HETATM    9  N   UNL     1     -46.314 -54.130  13.821  1.00  0.00    -0.265 N 
HETATM   10  O   UNL     1     -45.330 -54.836  14.472  1.00  0.00    -0.242 OA
ATOM     11  HN  UNL     1     -47.317 -54.319  13.836  1.00  0.00     0.194 HD
HETATM   12  C   UNL     1     -44.123 -54.275  14.215  1.00  0.00     0.081 A 
HETATM   13  C   UNL     1     -42.956 -54.960  14.806  1.00  0.00     0.079 C 
ENDBRANCH   5   6
ENDBRANCH   1   5
BRANCH   3  14
HETATM   14  C   UNL     1     -43.107 -48.519  12.307  1.00  0.00     0.119 C 
HETATM   15  C   UNL     1     -41.936 -47.763  12.957  1.00  0.00     0.057 C 
HETATM   16  C   UNL     1     -41.541 -46.655  11.976  1.00  0.00     0.275 C 
HETATM   17  N   UNL     1     -42.715 -46.513  11.125  1.00  0.00     0.095 N 
HETATM   18  C   UNL     1     -42.471 -45.837   9.853  1.00  0.00     0.273 C 
HETATM   19  C   UNL     1     -43.210 -47.878  10.913  1.00  0.00     0.245 C 
HETATM   20  C   UNL     1     -43.768 -45.765   9.032  1.00  0.00     0.030 C 
HETATM   21  C   UNL     1     -44.494 -47.111   8.934  1.00  0.00     0.004 C 
HETATM   22  C   UNL     1     -44.605 -47.792  10.303  1.00  0.00     0.038 C 
ENDBRANCH   3  14
TORSDOF 3
ENDMDL
MODEL 5
REMARK VINA RESULT:      -5.8      2.254      6.980
REMARK  3 active torsions:
REMARK  status: ('A' for Active; 'I' for Inactive)
REMARK    1  A    between atoms: C_8  and  C_9 
REMARK    2  A    between atoms: C_9  and  C_10 
REMARK       I    between atoms: C_10  and  N_12 
REMARK    3  A    between atoms: N_12  and  C_13 
ROOT
HETATM    1  C   UNL     1     -43.244 -49.369  13.024  1.00  0.00     0.222 C 
HETATM    2  O   UNL     1     -42.880 -49.048  14.150  1.00  0.00    -0.273 OA
HETATM    3  N   UNL     1     -44.202 -50.336  12.791  1.00  0.00    -0.354 N 
HETATM    4  H   UNL     1     -44.382 -50.621  11.836  1.00  0.00     0.162 HD
ENDROOT
BRANCH   1   5
HETATM    5  C   UNL     1     -42.633 -48.752  11.780  1.00  0.00     0.146 C 
BRANCH   5   6
HETATM    6  C   UNL     1     -41.164 -48.959  11.616  1.00  0.00     0.006 A 
HETATM    7  C   UNL     1     -40.099 -48.018  11.491  1.00  0.00     0.038 A 
HETATM    8  C   UNL     1     -40.143 -46.535  11.474  1.00  0.00     0.071 C 
HETATM    9  N   UNL     1     -38.913 -48.630  11.398  1.00  0.00    -0.265 N 
HETATM   10  O   UNL     1     -39.170 -49.978  11.499  1.00  0.00    -0.242 OA
ATOM     11  HN  UNL     1     -38.002 -48.188  11.277  1.00  0.00     0.194 HD
HETATM   12  C   UNL     1     -40.504 -50.175  11.644  1.00  0.00     0.081 A 
HETATM   13  C   UNL     1     -40.931 -51.577  11.821  1.00  0.00     0.079 C 
ENDBRANCH   5   6
ENDBRANCH   1   5
BRANCH   3  14
HETATM   14  C   UNL     1     -44.710 -51.190  13.867  1.00  0.00     0.119 C 
HETATM   15  C   UNL     1     -46.217 -51.458  13.718  1.00  0.00     0.057 C 
HETATM   16  C   UNL     1     -46.389 -52.980  13.756  1.00  0.00     0.275 C 
HETATM   17  N   UNL     1     -45.159 -53.451  14.376  1.00  0.00     0.095 N 
HETATM   18  C   UNL     1     -44.866 -54.865  14.158  1.00  0.00     0.273 C 
HETATM   19  C   UNL     1     -44.096 -52.598  13.831  1.00  0.00     0.245 C 
HETATM   20  C   UNL     1     -43.540 -55.244  14.836  1.00  0.00     0.030 C 
HETATM   21  C   UNL     1     -42.398 -54.276  14.507  1.00  0.00     0.004 C 
HETATM   22  C   UNL     1     -42.836 -52.815  14.662  1.00  0.00     0.038 C 
ENDBRANCH   3  14
TORSDOF 3
ENDMDL
MODEL 6
REMARK VINA RESULT:      -5.8      3.053      6.771
REMARK  3 active torsions:
REMARK  status: ('A' for Active; 'I' for Inactive)
REMARK    1  A    between atoms: C_8  and  C_9 
REMARK    2  A    between atoms: C_9  and  C_10 
REMARK       I    between atoms: C_10  and  N_12 
REMARK    3  A    between atoms: N_12  and  C_13 
ROOT
HETATM    1  C   UNL     1     -41.831 -48.754  11.350  1.00  0.00     0.222 C 
HETATM    2  O   UNL     1     -41.310 -48.944  10.256  1.00  0.00    -0.273 OA
HETATM    3  N   UNL     1     -41.269 -49.187  12.535  1.00  0.00    -0.354 N 
HETATM    4  H   UNL     1     -41.801 -49.082  13.390  1.00  0.00     0.162 HD
ENDROOT
BRANCH   1   5
HETATM    5  C   UNL     1     -43.172 -48.058  11.487  1.00  0.00     0.146 C 
BRANCH   5   6
HETATM    6  C   UNL     1     -43.510 -47.098  10.395  1.00  0.00     0.006 A 
HETATM    7  C   UNL     1     -44.600 -47.084   9.473  1.00  0.00     0.038 A 
HETATM    8  C   UNL     1     -45.723 -48.039   9.320  1.00  0.00     0.071 C 
HETATM    9  N   UNL     1     -44.547 -46.013   8.671  1.00  0.00    -0.265 N 
HETATM   10  O   UNL     1     -43.450 -45.288   9.074  1.00  0.00    -0.242 OA
ATOM     11  HN  UNL     1     -45.190 -45.782   7.914  1.00  0.00     0.194 HD
HETATM   12  C   UNL     1     -42.842 -45.921  10.108  1.00  0.00     0.081 A 
HETATM   13  C   UNL     1     -41.673 -45.231  10.687  1.00  0.00     0.079 C 
ENDBRANCH   5   6
ENDBRANCH   1   5
BRANCH   3  14
HETATM   14  C   UNL     1     -40.107 -50.078  12.555  1.00  0.00     0.119 C 
HETATM   15  C   UNL     1     -39.018 -49.574  13.517  1.00  0.00     0.057 C 
HETATM   16  C   UNL     1     -38.701 -50.739  14.458  1.00  0.00     0.275 C 
HETATM   17  N   UNL     1     -39.201 -51.906  13.743  1.00  0.00     0.095 N 
HETATM   18  C   UNL     1     -39.415 -53.088  14.574  1.00  0.00     0.273 C 
HETATM   19  C   UNL     1     -40.452 -51.469  13.111  1.00  0.00     0.245 C 
HETATM   20  C   UNL     1     -39.962 -54.245  13.722  1.00  0.00     0.030 C 
HETATM   21  C   UNL     1     -41.148 -53.835  12.842  1.00  0.00     0.004 C 
HETATM   22  C   UNL     1     -40.868 -52.527  12.094  1.00  0.00     0.038 C 
ENDBRANCH   3  14
TORSDOF 3
ENDMDL
MODEL 7
REMARK VINA RESULT:      -5.6      1.800      2.649
REMARK  3 active torsions:
REMARK  status: ('A' for Active; 'I' for Inactive)
REMARK    1  A    between atoms: C_8  and  C_9 
REMARK    2  A    between atoms: C_9  and  C_10 
REMARK       I    between atoms: C_10  and  N_12 
REMARK    3  A    between atoms: N_12  and  C_13 
ROOT
HETATM    1  C   UNL     1     -42.544 -52.004  12.904  1.00  0.00     0.222 C 
HETATM    2  O   UNL     1     -42.095 -52.132  14.038  1.00  0.00    -0.273 OA
HETATM    3  N   UNL     1     -42.238 -50.930  12.092  1.00  0.00    -0.354 N 
HETATM    4  H   UNL     1     -42.720 -50.838  11.206  1.00  0.00     0.162 HD
ENDROOT
BRANCH   1   5
HETATM    5  C   UNL     1     -43.514 -53.007  12.310  1.00  0.00     0.146 C 
BRANCH   5   6
HETATM    6  C   UNL     1     -44.639 -53.417  13.201  1.00  0.00     0.006 A 
HETATM    7  C   UNL     1     -44.689 -54.378  14.254  1.00  0.00     0.038 A 
HETATM    8  C   UNL     1     -43.626 -55.274  14.770  1.00  0.00     0.071 C 
HETATM    9  N   UNL     1     -45.898 -54.410  14.829  1.00  0.00    -0.265 N 
HETATM   10  O   UNL     1     -46.648 -53.449  14.194  1.00  0.00    -0.242 OA
ATOM     11  HN  UNL     1     -46.201 -55.024  15.585  1.00  0.00     0.194 HD
HETATM   12  C   UNL     1     -45.899 -52.847  13.238  1.00  0.00     0.081 A 
HETATM   13  C   UNL     1     -46.556 -51.748  12.502  1.00  0.00     0.079 C 
ENDBRANCH   5   6
ENDBRANCH   1   5
BRANCH   3  14
HETATM   14  C   UNL     1     -41.513 -49.763  12.600  1.00  0.00     0.119 C 
HETATM   15  C   UNL     1     -39.991 -49.975  12.559  1.00  0.00     0.057 C 
HETATM   16  C   UNL     1     -39.410 -48.781  11.796  1.00  0.00     0.275 C 
HETATM   17  N   UNL     1     -40.464 -47.778  11.871  1.00  0.00     0.095 N 
HETATM   18  C   UNL     1     -40.361 -46.706  10.883  1.00  0.00     0.273 C 
HETATM   19  C   UNL     1     -41.721 -48.521  11.719  1.00  0.00     0.245 C 
HETATM   20  C   UNL     1     -41.532 -45.724  11.041  1.00  0.00     0.030 C 
HETATM   21  C   UNL     1     -42.896 -46.420  11.118  1.00  0.00     0.004 C 
HETATM   22  C   UNL     1     -42.872 -47.597  12.101  1.00  0.00     0.038 C 
ENDBRANCH   3  14
TORSDOF 3
ENDMDL
MODEL 8
REMARK VINA RESULT:      -5.6      2.563      3.228
REMARK  3 active torsions:
REMARK  status: ('A' for Active; 'I' for Inactive)
REMARK    1  A    between atoms: C_8  and  C_9 
REMARK    2  A    between atoms: C_9  and  C_10 
REMARK       I    between atoms: C_10  and  N_12 
REMARK    3  A    between atoms: N_12  and  C_13 
ROOT
HETATM    1  C   UNL     1     -41.209 -50.018  11.526  1.00  0.00     0.222 C 
HETATM    2  O   UNL     1     -40.078 -50.028  11.053  1.00  0.00    -0.273 OA
HETATM    3  N   UNL     1     -42.178 -49.113  11.138  1.00  0.00    -0.354 N 
HETATM    4  H   UNL     1     -43.058 -49.100  11.639  1.00  0.00     0.162 HD
ENDROOT
BRANCH   1   5
HETATM    5  C   UNL     1     -41.628 -50.985  12.617  1.00  0.00     0.146 C 
BRANCH   5   6
HETATM    6  C   UNL     1     -40.510 -51.611  13.382  1.00  0.00     0.006 A 
HETATM    7  C   UNL     1     -39.523 -51.029  14.233  1.00  0.00     0.038 A 
HETATM    8  C   UNL     1     -39.309 -49.609  14.602  1.00  0.00     0.071 C 
HETATM    9  N   UNL     1     -38.717 -51.961  14.756  1.00  0.00    -0.265 N 
HETATM   10  O   UNL     1     -39.181 -53.170  14.292  1.00  0.00    -0.242 OA
ATOM     11  HN  UNL     1     -37.920 -51.807  15.374  1.00  0.00     0.194 HD
HETATM   12  C   UNL     1     -40.254 -52.967  13.489  1.00  0.00     0.081 A 
HETATM   13  C   UNL     1     -40.898 -54.183  12.955  1.00  0.00     0.079 C 
ENDBRANCH   5   6
ENDBRANCH   1   5
BRANCH   3  14
HETATM   14  C   UNL     1     -41.863 -47.972  10.277  1.00  0.00     0.119 C 
HETATM   15  C   UNL     1     -43.092 -47.502   9.480  1.00  0.00     0.057 C 
HETATM   16  C   UNL     1     -43.239 -46.004   9.757  1.00  0.00     0.275 C 
HETATM   17  N   UNL     1     -41.922 -45.612  10.242  1.00  0.00     0.095 N 
HETATM   18  C   UNL     1     -41.890 -44.348  10.974  1.00  0.00     0.273 C 
HETATM   19  C   UNL     1     -41.470 -46.725  11.085  1.00  0.00     0.245 C 
HETATM   20  C   UNL     1     -40.462 -44.048  11.454  1.00  0.00     0.030 C 
HETATM   21  C   UNL     1     -39.804 -45.237  12.164  1.00  0.00     0.004 C 
HETATM   22  C   UNL     1     -39.984 -46.536  11.370  1.00  0.00     0.038 C 
ENDBRANCH   3  14
TORSDOF 3
ENDMDL
MODEL 9
REMARK VINA RESULT:      -5.4      2.093      7.100
REMARK  3 active torsions:
REMARK  status: ('A' for Active; 'I' for Inactive)
REMARK    1  A    between atoms: C_8  and  C_9 
REMARK    2  A    between atoms: C_9  and  C_10 
REMARK       I    between atoms: C_10  and  N_12 
REMARK    3  A    between atoms: N_12  and  C_13 
ROOT
HETATM    1  C   UNL     1     -41.716 -51.190  12.257  1.00  0.00     0.222 C 
HETATM    2  O   UNL     1     -41.988 -50.694  13.345  1.00  0.00    -0.273 OA
HETATM    3  N   UNL     1     -42.305 -52.349  11.792  1.00  0.00    -0.354 N 
HETATM    4  H   UNL     1     -41.962 -52.755  10.930  1.00  0.00     0.162 HD
ENDROOT
BRANCH   1   5
HETATM    5  C   UNL     1     -40.667 -50.585  11.343  1.00  0.00     0.146 C 
BRANCH   5   6
HETATM    6  C   UNL     1     -40.445 -49.119  11.503  1.00  0.00     0.006 A 
HETATM    7  C   UNL     1     -41.199 -48.005  11.025  1.00  0.00     0.038 A 
HETATM    8  C   UNL     1     -42.434 -47.979  10.206  1.00  0.00     0.071 C 
HETATM    9  N   UNL     1     -40.666 -46.845  11.428  1.00  0.00    -0.265 N 
HETATM   10  O   UNL     1     -39.581 -47.173  12.206  1.00  0.00    -0.242 OA
ATOM     11  HN  UNL     1     -40.997 -45.907  11.203  1.00  0.00     0.194 HD
HETATM   12  C   UNL     1     -39.456 -48.522  12.266  1.00  0.00     0.081 A 
HETATM   13  C   UNL     1     -38.361 -49.031  13.114  1.00  0.00     0.079 C 
ENDBRANCH   5   6
ENDBRANCH   1   5
BRANCH   3  14
HETATM   14  C   UNL     1     -43.153 -53.179  12.650  1.00  0.00     0.119 C 
HETATM   15  C   UNL     1     -42.363 -53.778  13.825  1.00  0.00     0.057 C 
HETATM   16  C   UNL     1     -43.129 -53.400  15.096  1.00  0.00     0.275 C 
HETATM   17  N   UNL     1     -44.462 -53.073  14.611  1.00  0.00     0.095 N 
HETATM   18  C   UNL     1     -45.273 -52.282  15.534  1.00  0.00     0.273 C 
HETATM   19  C   UNL     1     -44.254 -52.361  13.345  1.00  0.00     0.245 C 
HETATM   20  C   UNL     1     -46.645 -51.979  14.912  1.00  0.00     0.030 C 
HETATM   21  C   UNL     1     -46.549 -51.432  13.483  1.00  0.00     0.004 C 
HETATM   22  C   UNL     1     -45.593 -52.266  12.623  1.00  0.00     0.038 C 
ENDBRANCH   3  14
TORSDOF 3
ENDMDL
