MODEL 1
REMARK VINA RESULT:      -5.7      0.000      0.000
REMARK  4 active torsions:
REMARK  status: ('A' for Active; 'I' for Inactive)
REMARK    1  A    between atoms: O_2  and  C_3 
REMARK    2  A    between atoms: C_3  and  C_4 
REMARK    3  A    between atoms: C_4  and  N_5 
REMARK       I    between atoms: N_5  and  C_6 
REMARK       I    between atoms: C_6  and  N_8 
REMARK    4  A    between atoms: N_8  and  C_9 
ROOT
HETATM    1  N   UNL     1     -41.389 -50.911  11.396  1.00  0.00    -0.340 N 
HETATM    2  C   UNL     1     -40.336 -50.050  11.397  1.00  0.00     0.321 C 
HETATM    3  O   UNL     1     -39.210 -50.365  11.771  1.00  0.00    -0.247 OA
HETATM    4  N   UNL     1     -40.601 -48.764  11.024  1.00  0.00    -0.295 N 
HETATM    5  H   UNL     1     -42.212 -50.590  10.884  1.00  0.00     0.164 HD
HETATM    6  H   UNL     1     -39.828 -48.134  11.175  1.00  0.00     0.172 HD
ENDROOT
BRANCH   1   7
HETATM    7  C   UNL     1     -41.300 -52.298  11.769  1.00  0.00     0.162 C 
BRANCH   7   8
HETATM    8  C   UNL     1     -42.110 -52.497  13.061  1.00  0.00     0.076 C 
HETATM    9  C   UNL     1     -43.581 -52.006  12.931  1.00  0.00     0.040 C 
HETATM   10  C   UNL     1     -44.011 -53.453  12.637  1.00  0.00     0.006 C 
HETATM   11  C   UNL     1     -42.696 -53.931  13.265  1.00  0.00     0.040 C 
BRANCH   8  12
HETATM   12  O   UNL     1     -41.390 -52.035  14.242  1.00  0.00    -0.383 OA
HETATM   13  C   UNL     1     -41.921 -50.931  14.958  1.00  0.00     0.202 C 
ENDBRANCH   8  12
ENDBRANCH   7   8
ENDBRANCH   1   7
BRANCH   4  14
HETATM   14  C   UNL     1     -41.818 -48.243  10.565  1.00  0.00     0.108 A 
HETATM   15  C   UNL     1     -42.791 -47.907  11.496  1.00  0.00     0.049 A 
HETATM   16  C   UNL     1     -44.052 -47.526  11.030  1.00  0.00     0.012 A 
HETATM   17  C   UNL     1     -44.296 -47.464   9.658  1.00  0.00    -0.046 A 
HETATM   18  C   UNL     1     -45.640 -47.155   9.087  1.00  0.00     0.049 C 
HETATM   19  C   UNL     1     -43.235 -47.734   8.809  1.00  0.00     0.096 A 
HETATM   20  N   UNL     1     -42.020 -48.128   9.236  1.00  0.00    -0.352 N 
ATOM     21  HN  UNL     1     -41.272 -48.333   8.573  1.00  0.00     0.166 HD
ENDBRANCH   4  14
TORSDOF 4
ENDMDL
MODEL 2
REMARK VINA RESULT:      -5.6      3.503      5.031
REMARK  4 active torsions:
REMARK  status: ('A' for Active; 'I' for Inactive)
REMARK    1  A    between atoms: O_2  and  C_3 
REMARK    2  A    between atoms: C_3  and  C_4 
REMARK    3  A    between atoms: C_4  and  N_5 
REMARK       I    between atoms: N_5  and  C_6 
REMARK       I    between atoms: C_6  and  N_8 
REMARK    4  A    between atoms: N_8  and  C_9 
ROOT
HETATM    1  N   UNL     1     -43.367 -52.537  13.784  1.00  0.00    -0.340 N 
HETATM    2  C   UNL     1     -43.496 -53.005  12.514  1.00  0.00     0.321 C 
HETATM    3  O   UNL     1     -44.470 -53.647  12.129  1.00  0.00    -0.247 OA
HETATM    4  N   UNL     1     -42.438 -52.794  11.676  1.00  0.00    -0.295 N 
HETATM    5  H   UNL     1     -42.615 -51.860  13.923  1.00  0.00     0.164 HD
HETATM    6  H   UNL     1     -42.520 -53.279  10.796  1.00  0.00     0.172 HD
ENDROOT
BRANCH   1   7
HETATM    7  C   UNL     1     -44.372 -52.677  14.804  1.00  0.00     0.162 C 
BRANCH   7   8
HETATM    8  C   UNL     1     -45.120 -51.338  14.922  1.00  0.00     0.076 C 
HETATM    9  C   UNL     1     -46.488 -51.346  14.179  1.00  0.00     0.040 C 
HETATM   10  C   UNL     1     -47.183 -51.660  15.514  1.00  0.00     0.006 C 
HETATM   11  C   UNL     1     -45.935 -51.145  16.241  1.00  0.00     0.040 C 
BRANCH   8  12
HETATM   12  O   UNL     1     -44.256 -50.196  14.648  1.00  0.00    -0.383 OA
HETATM   13  C   UNL     1     -43.649 -49.539  15.750  1.00  0.00     0.202 C 
ENDBRANCH   8  12
ENDBRANCH   7   8
ENDBRANCH   1   7
BRANCH   4  14
HETATM   14  C   UNL     1     -41.264 -52.081  11.950  1.00  0.00     0.108 A 
HETATM   15  C   UNL     1     -40.410 -52.559  12.934  1.00  0.00     0.049 A 
HETATM   16  C   UNL     1     -39.317 -51.770  13.304  1.00  0.00     0.012 A 
HETATM   17  C   UNL     1     -39.092 -50.551  12.666  1.00  0.00    -0.046 A 
HETATM   18  C   UNL     1     -38.002 -49.615  13.068  1.00  0.00     0.049 C 
HETATM   19  C   UNL     1     -39.951 -50.203  11.636  1.00  0.00     0.096 A 
HETATM   20  N   UNL     1     -41.025 -50.934  11.281  1.00  0.00    -0.352 N 
ATOM     21  HN  UNL     1     -41.641 -50.630  10.527  1.00  0.00     0.166 HD
ENDBRANCH   4  14
TORSDOF 4
ENDMDL
MODEL 3
REMARK VINA RESULT:      -5.5      2.038      2.693
REMARK  4 active torsions:
REMARK  status: ('A' for Active; 'I' for Inactive)
REMARK    1  A    between atoms: O_2  and  C_3 
REMARK    2  A    between atoms: C_3  and  C_4 
REMARK    3  A    between atoms: C_4  and  N_5 
REMARK       I    between atoms: N_5  and  C_6 
REMARK       I    between atoms: C_6  and  N_8 
REMARK    4  A    between atoms: N_8  and  C_9 
ROOT
HETATM    1  N   UNL     1     -42.488 -51.935  12.063  1.00  0.00    -0.340 N 
HETATM    2  C   UNL     1     -41.152 -52.157  11.938  1.00  0.00     0.321 C 
HETATM    3  O   UNL     1     -40.643 -53.270  12.038  1.00  0.00    -0.247 OA
HETATM    4  N   UNL     1     -40.364 -51.055  11.768  1.00  0.00    -0.295 N 
HETATM    5  H   UNL     1     -42.803 -51.009  11.769  1.00  0.00     0.164 HD
HETATM    6  H   UNL     1     -39.377 -51.254  11.823  1.00  0.00     0.172 HD
ENDROOT
BRANCH   1   7
HETATM    7  C   UNL     1     -43.465 -52.972  12.259  1.00  0.00     0.162 C 
BRANCH   7   8
HETATM    8  C   UNL     1     -44.281 -52.626  13.516  1.00  0.00     0.076 C 
HETATM    9  C   UNL     1     -44.711 -51.130  13.562  1.00  0.00     0.040 C 
HETATM   10  C   UNL     1     -46.080 -51.532  12.989  1.00  0.00     0.006 C 
HETATM   11  C   UNL     1     -45.803 -52.972  13.439  1.00  0.00     0.040 C 
BRANCH   8  12
HETATM   12  O   UNL     1     -43.670 -53.147  14.733  1.00  0.00    -0.383 OA
HETATM   13  C   UNL     1     -43.100 -54.446  14.690  1.00  0.00     0.202 C 
ENDBRANCH   8  12
ENDBRANCH   7   8
ENDBRANCH   1   7
BRANCH   4  14
HETATM   14  C   UNL     1     -40.779 -49.725  11.628  1.00  0.00     0.108 A 
HETATM   15  C   UNL     1     -40.815 -48.916  12.755  1.00  0.00     0.049 A 
HETATM   16  C   UNL     1     -41.366 -47.638  12.638  1.00  0.00     0.012 A 
HETATM   17  C   UNL     1     -41.835 -47.194  11.402  1.00  0.00    -0.046 A 
HETATM   18  C   UNL     1     -42.517 -45.879  11.219  1.00  0.00     0.049 C 
HETATM   19  C   UNL     1     -41.675 -48.041  10.318  1.00  0.00     0.096 A 
HETATM   20  N   UNL     1     -41.171 -49.287  10.413  1.00  0.00    -0.352 N 
ATOM     21  HN  UNL     1     -41.088 -49.884   9.590  1.00  0.00     0.166 HD
ENDBRANCH   4  14
TORSDOF 4
ENDMDL
MODEL 4
REMARK VINA RESULT:      -5.5      3.224      4.426
REMARK  4 active torsions:
REMARK  status: ('A' for Active; 'I' for Inactive)
REMARK    1  A    between atoms: O_2  and  C_3 
REMARK    2  A    between atoms: C_3  and  C_4 
REMARK    3  A    between atoms: C_4  and  N_5 
REMARK       I    between atoms: N_5  and  C_6 
REMARK       I    between atoms: C_6  and  N_8 
REMARK    4  A    between atoms: N_8  and  C_9 
ROOT
HETATM    1  N   UNL     1     -41.845 -52.391  12.768  1.00  0.00    -0.340 N 
HETATM    2  C   UNL     1     -41.807 -51.150  12.214  1.00  0.00     0.321 C 
HETATM    3  O   UNL     1     -40.877 -50.752  11.518  1.00  0.00    -0.247 OA
HETATM    4  N   UNL     1     -42.838 -50.311  12.529  1.00  0.00    -0.295 N 
HETATM    5  H   UNL     1     -42.749 -52.667  13.155  1.00  0.00     0.164 HD
HETATM    6  H   UNL     1     -42.695 -49.363  12.213  1.00  0.00     0.172 HD
ENDROOT
BRANCH   1   7
HETATM    7  C   UNL     1     -40.843 -53.402  12.558  1.00  0.00     0.162 C 
BRANCH   7   8
HETATM    8  C   UNL     1     -39.848 -53.337  13.729  1.00  0.00     0.076 C 
HETATM    9  C   UNL     1     -40.549 -53.120  15.102  1.00  0.00     0.040 C 
HETATM   10  C   UNL     1     -40.482 -54.637  15.348  1.00  0.00     0.006 C 
HETATM   11  C   UNL     1     -39.382 -54.722  14.283  1.00  0.00     0.040 C 
BRANCH   8  12
HETATM   12  O   UNL     1     -38.719 -52.459  13.448  1.00  0.00    -0.383 OA
HETATM   13  C   UNL     1     -38.578 -51.281  14.228  1.00  0.00     0.202 C 
ENDBRANCH   8  12
ENDBRANCH   7   8
ENDBRANCH   1   7
BRANCH   4  14
HETATM   14  C   UNL     1     -43.972 -50.605  13.295  1.00  0.00     0.108 A 
HETATM   15  C   UNL     1     -43.923 -50.391  14.666  1.00  0.00     0.049 A 
HETATM   16  C   UNL     1     -45.002 -50.821  15.444  1.00  0.00     0.012 A 
HETATM   17  C   UNL     1     -46.103 -51.420  14.834  1.00  0.00    -0.046 A 
HETATM   18  C   UNL     1     -47.248 -51.985  15.605  1.00  0.00     0.049 C 
HETATM   19  C   UNL     1     -46.095 -51.510  13.452  1.00  0.00     0.096 A 
HETATM   20  N   UNL     1     -45.056 -51.126  12.685  1.00  0.00    -0.352 N 
ATOM     21  HN  UNL     1     -45.088 -51.227  11.670  1.00  0.00     0.166 HD
ENDBRANCH   4  14
TORSDOF 4
ENDMDL
MODEL 5
REMARK VINA RESULT:      -5.4      2.422      5.648
REMARK  4 active torsions:
REMARK  status: ('A' for Active; 'I' for Inactive)
REMARK    1  A    between atoms: O_2  and  C_3 
REMARK    2  A    between atoms: C_3  and  C_4 
REMARK    3  A    between atoms: C_4  and  N_5 
REMARK       I    between atoms: N_5  and  C_6 
REMARK       I    between atoms: C_6  and  N_8 
REMARK    4  A    between atoms: N_8  and  C_9 
ROOT
HETATM    1  N   UNL     1     -42.127 -49.373  11.406  1.00  0.00    -0.340 N 
HETATM    2  C   UNL     1     -41.321 -50.362  11.877  1.00  0.00     0.321 C 
HETATM    3  O   UNL     1     -40.165 -50.525  11.497  1.00  0.00    -0.247 OA
HETATM    4  N   UNL     1     -41.885 -51.239  12.759  1.00  0.00    -0.295 N 
HETATM    5  H   UNL     1     -42.987 -49.224  11.936  1.00  0.00     0.164 HD
HETATM    6  H   UNL     1     -41.297 -52.031  12.969  1.00  0.00     0.172 HD
ENDROOT
BRANCH   1   7
HETATM    7  C   UNL     1     -41.710 -48.368  10.465  1.00  0.00     0.162 C 
BRANCH   7   8
HETATM    8  C   UNL     1     -42.748 -47.233  10.488  1.00  0.00     0.076 C 
HETATM    9  C   UNL     1     -43.138 -46.804  11.932  1.00  0.00     0.040 C 
HETATM   10  C   UNL     1     -42.126 -45.650  11.836  1.00  0.00     0.006 C 
HETATM   11  C   UNL     1     -42.165 -45.794  10.310  1.00  0.00     0.040 C 
BRANCH   8  12
HETATM   12  O   UNL     1     -43.860 -47.482   9.579  1.00  0.00    -0.383 OA
HETATM   13  C   UNL     1     -43.575 -47.601   8.193  1.00  0.00     0.202 C 
ENDBRANCH   8  12
ENDBRANCH   7   8
ENDBRANCH   1   7
BRANCH   4  14
HETATM   14  C   UNL     1     -43.177 -51.194  13.298  1.00  0.00     0.108 A 
HETATM   15  C   UNL     1     -43.369 -50.557  14.515  1.00  0.00     0.049 A 
HETATM   16  C   UNL     1     -44.627 -50.640  15.117  1.00  0.00     0.012 A 
HETATM   17  C   UNL     1     -45.658 -51.327  14.478  1.00  0.00    -0.046 A 
HETATM   18  C   UNL     1     -46.999 -51.535  15.099  1.00  0.00     0.049 C 
HETATM   19  C   UNL     1     -45.392 -51.854  13.225  1.00  0.00     0.096 A 
HETATM   20  N   UNL     1     -44.181 -51.808  12.639  1.00  0.00    -0.352 N 
ATOM     21  HN  UNL     1     -44.026 -52.226  11.721  1.00  0.00     0.166 HD
ENDBRANCH   4  14
TORSDOF 4
ENDMDL
MODEL 6
REMARK VINA RESULT:      -5.3      2.350      5.667
REMARK  4 active torsions:
REMARK  status: ('A' for Active; 'I' for Inactive)
REMARK    1  A    between atoms: O_2  and  C_3 
REMARK    2  A    between atoms: C_3  and  C_4 
REMARK    3  A    between atoms: C_4  and  N_5 
REMARK       I    between atoms: N_5  and  C_6 
REMARK       I    between atoms: C_6  and  N_8 
REMARK    4  A    between atoms: N_8  and  C_9 
ROOT
HETATM    1  N   UNL     1     -40.939 -50.614  13.252  1.00  0.00    -0.340 N 
HETATM    2  C   UNL     1     -40.168 -51.501  12.568  1.00  0.00     0.321 C 
HETATM    3  O   UNL     1     -39.066 -51.219  12.106  1.00  0.00    -0.247 OA
HETATM    4  N   UNL     1     -40.713 -52.733  12.342  1.00  0.00    -0.295 N 
HETATM    5  H   UNL     1     -41.735 -51.020  13.746  1.00  0.00     0.164 HD
HETATM    6  H   UNL     1     -40.168 -53.304  11.714  1.00  0.00     0.172 HD
ENDROOT
BRANCH   1   7
HETATM    7  C   UNL     1     -40.535 -49.270  13.572  1.00  0.00     0.162 C 
BRANCH   7   8
HETATM    8  C   UNL     1     -41.366 -48.305  12.709  1.00  0.00     0.076 C 
HETATM    9  C   UNL     1     -42.899 -48.486  12.911  1.00  0.00     0.040 C 
HETATM   10  C   UNL     1     -42.880 -47.314  13.906  1.00  0.00     0.006 C 
HETATM   11  C   UNL     1     -41.544 -46.870  13.299  1.00  0.00     0.040 C 
BRANCH   8  12
HETATM   12  O   UNL     1     -40.909 -48.268  11.325  1.00  0.00    -0.383 OA
HETATM   13  C   UNL     1     -41.874 -48.034  10.310  1.00  0.00     0.202 C 
ENDBRANCH   8  12
ENDBRANCH   7   8
ENDBRANCH   1   7
BRANCH   4  14
HETATM   14  C   UNL     1     -41.945 -53.218  12.800  1.00  0.00     0.108 A 
HETATM   15  C   UNL     1     -41.971 -53.976  13.962  1.00  0.00     0.049 A 
HETATM   16  C   UNL     1     -43.176 -54.577  14.336  1.00  0.00     0.012 A 
HETATM   17  C   UNL     1     -44.319 -54.382  13.561  1.00  0.00    -0.046 A 
HETATM   18  C   UNL     1     -45.616 -55.063  13.845  1.00  0.00     0.049 C 
HETATM   19  C   UNL     1     -44.211 -53.538  12.468  1.00  0.00     0.096 A 
HETATM   20  N   UNL     1     -43.055 -52.969  12.075  1.00  0.00    -0.352 N 
ATOM     21  HN  UNL     1     -43.019 -52.368  11.252  1.00  0.00     0.166 HD
ENDBRANCH   4  14
TORSDOF 4
ENDMDL
MODEL 7
REMARK VINA RESULT:      -5.1      4.393      6.433
REMARK  4 active torsions:
REMARK  status: ('A' for Active; 'I' for Inactive)
REMARK    1  A    between atoms: O_2  and  C_3 
REMARK    2  A    between atoms: C_3  and  C_4 
REMARK    3  A    between atoms: C_4  and  N_5 
REMARK       I    between atoms: N_5  and  C_6 
REMARK       I    between atoms: C_6  and  N_8 
REMARK    4  A    between atoms: N_8  and  C_9 
ROOT
HETATM    1  N   UNL     1     -45.548 -51.932  13.953  1.00  0.00    -0.340 N 
HETATM    2  C   UNL     1     -45.825 -52.238  12.657  1.00  0.00     0.321 C 
HETATM    3  O   UNL     1     -46.917 -52.029  12.135  1.00  0.00    -0.247 OA
HETATM    4  N   UNL     1     -44.840 -52.875  11.958  1.00  0.00    -0.295 N 
HETATM    5  H   UNL     1     -44.560 -51.974  14.208  1.00  0.00     0.164 HD
HETATM    6  H   UNL     1     -45.139 -53.207  11.054  1.00  0.00     0.172 HD
ENDROOT
BRANCH   1   7
HETATM    7  C   UNL     1     -46.467 -51.273  14.843  1.00  0.00     0.162 C 
BRANCH   7   8
HETATM    8  C   UNL     1     -46.077 -51.637  16.285  1.00  0.00     0.076 C 
HETATM    9  C   UNL     1     -45.649 -50.398  17.124  1.00  0.00     0.040 C 
HETATM   10  C   UNL     1     -47.072 -50.330  17.704  1.00  0.00     0.006 C 
HETATM   11  C   UNL     1     -47.272 -51.790  17.280  1.00  0.00     0.040 C 
BRANCH   8  12
HETATM   12  O   UNL     1     -45.177 -52.783  16.343  1.00  0.00    -0.383 OA
HETATM   13  C   UNL     1     -45.608 -53.936  17.050  1.00  0.00     0.202 C 
ENDBRANCH   8  12
ENDBRANCH   7   8
ENDBRANCH   1   7
BRANCH   4  14
HETATM   14  C   UNL     1     -43.545 -53.180  12.396  1.00  0.00     0.108 A 
HETATM   15  C   UNL     1     -43.390 -54.096  13.427  1.00  0.00     0.049 A 
HETATM   16  C   UNL     1     -42.112 -54.288  13.958  1.00  0.00     0.012 A 
HETATM   17  C   UNL     1     -41.028 -53.589  13.429  1.00  0.00    -0.046 A 
HETATM   18  C   UNL     1     -39.653 -53.674  14.001  1.00  0.00     0.049 C 
HETATM   19  C   UNL     1     -41.271 -52.763  12.344  1.00  0.00     0.096 A 
HETATM   20  N   UNL     1     -42.498 -52.543  11.834  1.00  0.00    -0.352 N 
ATOM     21  HN  UNL     1     -42.632 -51.912  11.043  1.00  0.00     0.166 HD
ENDBRANCH   4  14
TORSDOF 4
ENDMDL
MODEL 8
REMARK VINA RESULT:      -5.1      3.281      5.682
REMARK  4 active torsions:
REMARK  status: ('A' for Active; 'I' for Inactive)
REMARK    1  A    between atoms: O_2  and  C_3 
REMARK    2  A    between atoms: C_3  and  C_4 
REMARK    3  A    between atoms: C_4  and  N_5 
REMARK       I    between atoms: N_5  and  C_6 
REMARK       I    between atoms: C_6  and  N_8 
REMARK    4  A    between atoms: N_8  and  C_9 
ROOT
HETATM    1  N   UNL     1     -40.757 -50.038  12.976  1.00  0.00    -0.340 N 
HETATM    2  C   UNL     1     -40.332 -50.600  11.812  1.00  0.00     0.321 C 
HETATM    3  O   UNL     1     -39.509 -50.071  11.070  1.00  0.00    -0.247 OA
HETATM    4  N   UNL     1     -40.928 -51.775  11.451  1.00  0.00    -0.295 N 
HETATM    5  H   UNL     1     -41.286 -50.658  13.590  1.00  0.00     0.164 HD
HETATM    6  H   UNL     1     -40.686 -52.078  10.519  1.00  0.00     0.172 HD
ENDROOT
BRANCH   1   7
HETATM    7  C   UNL     1     -40.252 -48.800  13.507  1.00  0.00     0.162 C 
BRANCH   7   8
HETATM    8  C   UNL     1     -39.135 -49.133  14.511  1.00  0.00     0.076 C 
HETATM    9  C   UNL     1     -37.714 -49.036  13.884  1.00  0.00     0.040 C 
HETATM   10  C   UNL     1     -37.582 -47.618  14.465  1.00  0.00     0.006 C 
HETATM   11  C   UNL     1     -38.710 -47.958  15.448  1.00  0.00     0.040 C 
BRANCH   8  12
HETATM   12  O   UNL     1     -39.414 -50.350  15.264  1.00  0.00    -0.383 OA
HETATM   13  C   UNL     1     -38.314 -51.154  15.665  1.00  0.00     0.202 C 
ENDBRANCH   8  12
ENDBRANCH   7   8
ENDBRANCH   1   7
BRANCH   4  14
HETATM   14  C   UNL     1     -41.871 -52.511  12.178  1.00  0.00     0.108 A 
HETATM   15  C   UNL     1     -41.426 -53.342  13.196  1.00  0.00     0.049 A 
HETATM   16  C   UNL     1     -42.352 -54.182  13.821  1.00  0.00     0.012 A 
HETATM   17  C   UNL     1     -43.691 -54.148  13.434  1.00  0.00    -0.046 A 
HETATM   18  C   UNL     1     -44.719 -55.076  13.990  1.00  0.00     0.049 C 
HETATM   19  C   UNL     1     -44.053 -53.222  12.469  1.00  0.00     0.096 A 
HETATM   20  N   UNL     1     -43.173 -52.422  11.836  1.00  0.00    -0.352 N 
ATOM     21  HN  UNL     1     -43.483 -51.767  11.118  1.00  0.00     0.166 HD
ENDBRANCH   4  14
TORSDOF 4
ENDMDL
MODEL 9
REMARK VINA RESULT:      -5.0      4.187      6.280
REMARK  4 active torsions:
REMARK  status: ('A' for Active; 'I' for Inactive)
REMARK    1  A    between atoms: O_2  and  C_3 
REMARK    2  A    between atoms: C_3  and  C_4 
REMARK    3  A    between atoms: C_4  and  N_5 
REMARK       I    between atoms: N_5  and  C_6 
REMARK       I    between atoms: C_6  and  N_8 
REMARK    4  A    between atoms: N_8  and  C_9 
ROOT
HETATM    1  N   UNL     1     -44.656 -53.306  15.290  1.00  0.00    -0.340 N 
HETATM    2  C   UNL     1     -45.016 -54.282  14.414  1.00  0.00     0.321 C 
HETATM    3  O   UNL     1     -46.022 -54.972  14.551  1.00  0.00    -0.247 OA
HETATM    4  N   UNL     1     -44.153 -54.524  13.383  1.00  0.00    -0.295 N 
HETATM    5  H   UNL     1     -43.917 -52.681  14.964  1.00  0.00     0.164 HD
HETATM    6  H   UNL     1     -44.388 -55.345  12.846  1.00  0.00     0.172 HD
ENDROOT
BRANCH   1   7
HETATM    7  C   UNL     1     -45.435 -52.922  16.437  1.00  0.00     0.162 C 
BRANCH   7   8
HETATM    8  C   UNL     1     -45.900 -51.470  16.233  1.00  0.00     0.076 C 
HETATM    9  C   UNL     1     -47.270 -51.375  15.499  1.00  0.00     0.040 C 
HETATM   10  C   UNL     1     -47.962 -51.227  16.865  1.00  0.00     0.006 C 
HETATM   11  C   UNL     1     -46.610 -50.819  17.463  1.00  0.00     0.040 C 
BRANCH   8  12
HETATM   12  O   UNL     1     -44.840 -50.618  15.708  1.00  0.00    -0.383 OA
HETATM   13  C   UNL     1     -44.156 -49.767  16.616  1.00  0.00     0.202 C 
ENDBRANCH   8  12
ENDBRANCH   7   8
ENDBRANCH   1   7
BRANCH   4  14
HETATM   14  C   UNL     1     -42.975 -53.831  13.078  1.00  0.00     0.108 A 
HETATM   15  C   UNL     1     -41.797 -54.212  13.704  1.00  0.00     0.049 A 
HETATM   16  C   UNL     1     -40.657 -53.428  13.508  1.00  0.00     0.012 A 
HETATM   17  C   UNL     1     -40.717 -52.311  12.677  1.00  0.00    -0.046 A 
HETATM   18  C   UNL     1     -39.568 -51.376  12.491  1.00  0.00     0.049 C 
HETATM   19  C   UNL     1     -41.915 -52.063  12.028  1.00  0.00     0.096 A 
HETATM   20  N   UNL     1     -43.033 -52.789  12.223  1.00  0.00    -0.352 N 
ATOM     21  HN  UNL     1     -43.900 -52.559  11.736  1.00  0.00     0.166 HD
ENDBRANCH   4  14
TORSDOF 4
ENDMDL
