MODEL 1
REMARK VINA RESULT:      -6.3      0.000      0.000
REMARK  7 active torsions:
REMARK  status: ('A' for Active; 'I' for Inactive)
REMARK    1  A    between atoms: N_2  and  C_3 
REMARK    2  A    between atoms: N_2  and  C_20 
REMARK    3  A    between atoms: C_3  and  C_4 
REMARK    4  A    between atoms: C_4  and  O_5 
REMARK    5  A    between atoms: C_4  and  C_6 
REMARK    6  A    between atoms: C_6  and  N_7 
REMARK    7  A    between atoms: C_20  and  C_21 
ROOT
HETATM    1  C   UNL     1     -41.982 -49.706  12.156  1.00  0.00     0.182 C 
ENDROOT
BRANCH   1   2
HETATM    2  C   UNL     1     -40.824 -50.625  11.745  1.00  0.00     0.166 C 
BRANCH   2   3
HETATM    3  C   UNL     1     -41.192 -52.126  11.855  1.00  0.00     0.305 C 
BRANCH   3   4
HETATM    4  N   UNL     1     -41.569 -52.597  13.206  1.00  0.00     0.090 N 
HETATM    5  C   UNL     1     -40.414 -53.245  13.837  1.00  0.00     0.310 C 
BRANCH   4   6
HETATM    6  C   UNL     1     -42.741 -53.490  13.173  1.00  0.00     0.310 C 
BRANCH   6   7
HETATM    7  C   UNL     1     -44.057 -52.772  13.391  1.00  0.00    -0.030 A 
HETATM    8  C   UNL     1     -45.102 -52.916  12.468  1.00  0.00     0.009 A 
HETATM    9  C   UNL     1     -46.307 -52.239  12.654  1.00  0.00     0.001 A 
HETATM   10  C   UNL     1     -46.479 -51.418  13.766  1.00  0.00     0.000 A 
HETATM   11  C   UNL     1     -45.449 -51.278  14.698  1.00  0.00     0.001 A 
HETATM   12  C   UNL     1     -44.244 -51.955  14.513  1.00  0.00     0.009 A 
ENDBRANCH   6   7
ENDBRANCH   4   6
ENDBRANCH   3   4
ENDBRANCH   2   3
BRANCH   2  13
HETATM   13  O   UNL     1     -40.353 -50.296  10.433  1.00  0.00    -0.392 OA
HETATM   14  H   UNL     1     -39.720 -51.000  10.175  1.00  0.00     0.210 HD
ENDBRANCH   2  13
ENDBRANCH   1   2
BRANCH   1  15
HETATM   15  N   UNL     1     -42.005 -48.439  11.448  1.00  0.00    -0.284 N 
HETATM   16  N   UNL     1     -42.767 -48.335  10.327  1.00  0.00    -0.308 N 
HETATM   17  C   UNL     1     -42.487 -47.114   9.856  1.00  0.00     0.122 A 
ATOM     18  HN  UNL     1     -43.405 -49.028   9.935  1.00  0.00     0.186 HD
HETATM   19  C   UNL     1     -41.593 -46.434  10.686  1.00  0.00     0.032 A 
HETATM   20  C   UNL     1     -40.970 -45.147  10.649  1.00  0.00     0.122 A 
HETATM   21  C   UNL     1     -41.323 -47.293  11.721  1.00  0.00     0.133 A 
HETATM   22  N   UNL     1     -40.141 -44.789  11.587  1.00  0.00    -0.306 N 
HETATM   23  N   UNL     1     -39.880 -45.666  12.653  1.00  0.00    -0.261 N 
ATOM     24  HN  UNL     1     -39.684 -43.878  11.549  1.00  0.00     0.186 HD
HETATM   25  C   UNL     1     -38.914 -45.220  13.633  1.00  0.00     0.181 C 
HETATM   26  C   UNL     1     -40.453 -46.946  12.804  1.00  0.00     0.290 A 
HETATM   27  O   UNL     1     -40.234 -47.681  13.762  1.00  0.00    -0.264 OA
ENDBRANCH   1  15
TORSDOF 7
ENDMDL
MODEL 2
REMARK VINA RESULT:      -6.3      3.881      7.188
REMARK  7 active torsions:
REMARK  status: ('A' for Active; 'I' for Inactive)
REMARK    1  A    between atoms: N_2  and  C_3 
REMARK    2  A    between atoms: N_2  and  C_20 
REMARK    3  A    between atoms: C_3  and  C_4 
REMARK    4  A    between atoms: C_4  and  O_5 
REMARK    5  A    between atoms: C_4  and  C_6 
REMARK    6  A    between atoms: C_6  and  N_7 
REMARK    7  A    between atoms: C_20  and  C_21 
ROOT
HETATM    1  C   UNL     1     -44.046 -53.834  12.538  1.00  0.00     0.182 C 
ENDROOT
BRANCH   1   2
HETATM    2  C   UNL     1     -42.663 -53.185  12.668  1.00  0.00     0.166 C 
BRANCH   2   3
HETATM    3  C   UNL     1     -41.642 -54.106  13.383  1.00  0.00     0.305 C 
BRANCH   3   4
HETATM    4  N   UNL     1     -40.241 -53.630  13.386  1.00  0.00     0.090 N 
HETATM    5  C   UNL     1     -39.383 -54.640  14.016  1.00  0.00     0.310 C 
BRANCH   4   6
HETATM    6  C   UNL     1     -40.105 -52.317  14.043  1.00  0.00     0.310 C 
BRANCH   6   7
HETATM    7  C   UNL     1     -39.360 -51.296  13.207  1.00  0.00    -0.030 A 
HETATM    8  C   UNL     1     -40.064 -50.297  12.520  1.00  0.00     0.009 A 
HETATM    9  C   UNL     1     -39.383 -49.370  11.732  1.00  0.00     0.001 A 
HETATM   10  C   UNL     1     -37.995 -49.429  11.630  1.00  0.00     0.000 A 
HETATM   11  C   UNL     1     -37.284 -50.411  12.322  1.00  0.00     0.001 A 
HETATM   12  C   UNL     1     -37.964 -51.339  13.110  1.00  0.00     0.009 A 
ENDBRANCH   6   7
ENDBRANCH   4   6
ENDBRANCH   3   4
ENDBRANCH   2   3
BRANCH   2  13
HETATM   13  O   UNL     1     -42.176 -52.759  11.390  1.00  0.00    -0.392 OA
HETATM   14  H   UNL     1     -42.617 -53.322  10.718  1.00  0.00     0.210 HD
ENDBRANCH   2  13
ENDBRANCH   1   2
BRANCH   1  15
HETATM   15  N   UNL     1     -45.127 -53.023  13.068  1.00  0.00    -0.284 N 
HETATM   16  N   UNL     1     -45.741 -52.136  12.241  1.00  0.00    -0.308 N 
HETATM   17  C   UNL     1     -46.588 -51.478  13.041  1.00  0.00     0.122 A 
ATOM     18  HN  UNL     1     -45.590 -52.002  11.241  1.00  0.00     0.186 HD
HETATM   19  C   UNL     1     -46.547 -51.966  14.349  1.00  0.00     0.032 A 
HETATM   20  C   UNL     1     -47.214 -51.628  15.568  1.00  0.00     0.122 A 
HETATM   21  C   UNL     1     -45.625 -52.982  14.335  1.00  0.00     0.133 A 
HETATM   22  N   UNL     1     -46.945 -52.272  16.667  1.00  0.00    -0.306 N 
HETATM   23  N   UNL     1     -46.012 -53.322  16.644  1.00  0.00    -0.261 N 
ATOM     24  HN  UNL     1     -47.409 -52.017  17.539  1.00  0.00     0.186 HD
HETATM   25  C   UNL     1     -45.729 -53.961  17.911  1.00  0.00     0.181 C 
HETATM   26  C   UNL     1     -45.312 -53.756  15.498  1.00  0.00     0.290 A 
HETATM   27  O   UNL     1     -44.525 -54.697  15.498  1.00  0.00    -0.264 OA
ENDBRANCH   1  15
TORSDOF 7
ENDMDL
MODEL 3
REMARK VINA RESULT:      -6.2      2.188      4.119
REMARK  7 active torsions:
REMARK  status: ('A' for Active; 'I' for Inactive)
REMARK    1  A    between atoms: N_2  and  C_3 
REMARK    2  A    between atoms: N_2  and  C_20 
REMARK    3  A    between atoms: C_3  and  C_4 
REMARK    4  A    between atoms: C_4  and  O_5 
REMARK    5  A    between atoms: C_4  and  C_6 
REMARK    6  A    between atoms: C_6  and  N_7 
REMARK    7  A    between atoms: C_20  and  C_21 
ROOT
HETATM    1  C   UNL     1     -41.207 -52.587  14.019  1.00  0.00     0.182 C 
ENDROOT
BRANCH   1   2
HETATM    2  C   UNL     1     -41.608 -53.809  13.183  1.00  0.00     0.166 C 
BRANCH   2   3
HETATM    3  C   UNL     1     -43.061 -53.712  12.652  1.00  0.00     0.305 C 
BRANCH   3   4
HETATM    4  N   UNL     1     -44.108 -53.523  13.680  1.00  0.00     0.090 N 
HETATM    5  C   UNL     1     -44.942 -54.728  13.754  1.00  0.00     0.310 C 
BRANCH   4   6
HETATM    6  C   UNL     1     -44.918 -52.318  13.429  1.00  0.00     0.310 C 
BRANCH   6   7
HETATM    7  C   UNL     1     -45.497 -51.703  14.688  1.00  0.00    -0.030 A 
HETATM    8  C   UNL     1     -44.676 -50.975  15.560  1.00  0.00     0.009 A 
HETATM    9  C   UNL     1     -45.200 -50.428  16.730  1.00  0.00     0.001 A 
HETATM   10  C   UNL     1     -46.549 -50.598  17.034  1.00  0.00     0.000 A 
HETATM   11  C   UNL     1     -47.378 -51.310  16.165  1.00  0.00     0.001 A 
HETATM   12  C   UNL     1     -46.854 -51.858  14.995  1.00  0.00     0.009 A 
ENDBRANCH   6   7
ENDBRANCH   4   6
ENDBRANCH   3   4
ENDBRANCH   2   3
BRANCH   2  13
HETATM   13  O   UNL     1     -40.676 -54.027  12.119  1.00  0.00    -0.392 OA
HETATM   14  H   UNL     1     -39.863 -53.526  12.347  1.00  0.00     0.210 HD
ENDBRANCH   2  13
ENDBRANCH   1   2
BRANCH   1  15
HETATM   15  N   UNL     1     -40.055 -51.873  13.499  1.00  0.00    -0.284 N 
HETATM   16  N   UNL     1     -38.814 -52.281  13.874  1.00  0.00    -0.308 N 
HETATM   17  C   UNL     1     -37.995 -51.370  13.334  1.00  0.00     0.122 A 
ATOM     18  HN  UNL     1     -38.564 -53.094  14.437  1.00  0.00     0.186 HD
HETATM   19  C   UNL     1     -38.699 -50.420  12.591  1.00  0.00     0.032 A 
HETATM   20  C   UNL     1     -38.333 -49.259  11.841  1.00  0.00     0.122 A 
HETATM   21  C   UNL     1     -40.020 -50.783  12.684  1.00  0.00     0.133 A 
HETATM   22  N   UNL     1     -39.244 -48.538  11.253  1.00  0.00    -0.306 N 
HETATM   23  N   UNL     1     -40.592 -48.924  11.338  1.00  0.00    -0.261 N 
ATOM     24  HN  UNL     1     -38.981 -47.701  10.734  1.00  0.00     0.186 HD
HETATM   25  C   UNL     1     -41.554 -48.050  10.700  1.00  0.00     0.181 C 
HETATM   26  C   UNL     1     -41.066 -50.058  12.029  1.00  0.00     0.290 A 
HETATM   27  O   UNL     1     -42.247 -50.391  12.061  1.00  0.00    -0.264 OA
ENDBRANCH   1  15
TORSDOF 7
ENDMDL
MODEL 4
REMARK VINA RESULT:      -6.2      1.943      2.769
REMARK  7 active torsions:
REMARK  status: ('A' for Active; 'I' for Inactive)
REMARK    1  A    between atoms: N_2  and  C_3 
REMARK    2  A    between atoms: N_2  and  C_20 
REMARK    3  A    between atoms: C_3  and  C_4 
REMARK    4  A    between atoms: C_4  and  O_5 
REMARK    5  A    between atoms: C_4  and  C_6 
REMARK    6  A    between atoms: C_6  and  N_7 
REMARK    7  A    between atoms: C_20  and  C_21 
ROOT
HETATM    1  C   UNL     1     -41.523 -51.741  12.793  1.00  0.00     0.182 C 
ENDROOT
BRANCH   1   2
HETATM    2  C   UNL     1     -40.836 -53.099  12.597  1.00  0.00     0.166 C 
BRANCH   2   3
HETATM    3  C   UNL     1     -41.591 -54.252  13.304  1.00  0.00     0.305 C 
BRANCH   3   4
HETATM    4  N   UNL     1     -42.293 -53.886  14.555  1.00  0.00     0.090 N 
HETATM    5  C   UNL     1     -41.523 -54.373  15.706  1.00  0.00     0.310 C 
BRANCH   4   6
HETATM    6  C   UNL     1     -43.679 -54.387  14.578  1.00  0.00     0.310 C 
BRANCH   6   7
HETATM    7  C   UNL     1     -44.705 -53.348  14.172  1.00  0.00    -0.030 A 
HETATM    8  C   UNL     1     -45.224 -52.460  15.123  1.00  0.00     0.009 A 
HETATM    9  C   UNL     1     -46.185 -51.517  14.757  1.00  0.00     0.001 A 
HETATM   10  C   UNL     1     -46.629 -51.452  13.438  1.00  0.00     0.000 A 
HETATM   11  C   UNL     1     -46.107 -52.324  12.481  1.00  0.00     0.001 A 
HETATM   12  C   UNL     1     -45.147 -53.267  12.846  1.00  0.00     0.009 A 
ENDBRANCH   6   7
ENDBRANCH   4   6
ENDBRANCH   3   4
ENDBRANCH   2   3
BRANCH   2  13
HETATM   13  O   UNL     1     -40.643 -53.377  11.205  1.00  0.00    -0.392 OA
HETATM   14  H   UNL     1     -39.711 -53.147  10.997  1.00  0.00     0.210 HD
ENDBRANCH   2  13
ENDBRANCH   1   2
BRANCH   1  15
HETATM   15  N   UNL     1     -40.726 -50.611  12.350  1.00  0.00    -0.284 N 
HETATM   16  N   UNL     1     -39.502 -50.851  11.809  1.00  0.00    -0.308 N 
HETATM   17  C   UNL     1     -38.986 -49.631  11.618  1.00  0.00     0.122 A 
ATOM     18  HN  UNL     1     -39.075 -51.753  11.597  1.00  0.00     0.186 HD
HETATM   19  C   UNL     1     -39.883 -48.627  11.992  1.00  0.00     0.032 A 
HETATM   20  C   UNL     1     -39.841 -47.198  12.009  1.00  0.00     0.122 A 
HETATM   21  C   UNL     1     -41.008 -49.282  12.428  1.00  0.00     0.133 A 
HETATM   22  N   UNL     1     -40.860 -46.513  12.443  1.00  0.00    -0.306 N 
HETATM   23  N   UNL     1     -42.014 -47.187  12.874  1.00  0.00    -0.261 N 
ATOM     24  HN  UNL     1     -40.819 -45.495  12.471  1.00  0.00     0.186 HD
HETATM   25  C   UNL     1     -43.088 -46.364  13.387  1.00  0.00     0.181 C 
HETATM   26  C   UNL     1     -42.176 -48.589  12.881  1.00  0.00     0.290 A 
HETATM   27  O   UNL     1     -43.208 -49.152  13.232  1.00  0.00    -0.264 OA
ENDBRANCH   1  15
TORSDOF 7
ENDMDL
MODEL 5
REMARK VINA RESULT:      -6.1      2.751      3.720
REMARK  7 active torsions:
REMARK  status: ('A' for Active; 'I' for Inactive)
REMARK    1  A    between atoms: N_2  and  C_3 
REMARK    2  A    between atoms: N_2  and  C_20 
REMARK    3  A    between atoms: C_3  and  C_4 
REMARK    4  A    between atoms: C_4  and  O_5 
REMARK    5  A    between atoms: C_4  and  C_6 
REMARK    6  A    between atoms: C_6  and  N_7 
REMARK    7  A    between atoms: C_20  and  C_21 
ROOT
HETATM    1  C   UNL     1     -40.619 -52.769  14.745  1.00  0.00     0.182 C 
ENDROOT
BRANCH   1   2
HETATM    2  C   UNL     1     -40.686 -54.145  14.070  1.00  0.00     0.166 C 
BRANCH   2   3
HETATM    3  C   UNL     1     -42.131 -54.538  13.669  1.00  0.00     0.305 C 
BRANCH   3   4
HETATM    4  N   UNL     1     -43.106 -54.615  14.779  1.00  0.00     0.090 N 
HETATM    5  C   UNL     1     -42.664 -55.626  15.746  1.00  0.00     0.310 C 
BRANCH   4   6
HETATM    6  C   UNL     1     -44.472 -54.887  14.296  1.00  0.00     0.310 C 
BRANCH   6   7
HETATM    7  C   UNL     1     -45.333 -53.644  14.183  1.00  0.00    -0.030 A 
HETATM    8  C   UNL     1     -45.503 -53.014  12.943  1.00  0.00     0.009 A 
HETATM    9  C   UNL     1     -46.277 -51.858  12.839  1.00  0.00     0.001 A 
HETATM   10  C   UNL     1     -46.889 -51.327  13.972  1.00  0.00     0.000 A 
HETATM   11  C   UNL     1     -46.737 -51.955  15.209  1.00  0.00     0.001 A 
HETATM   12  C   UNL     1     -45.963 -53.111  15.314  1.00  0.00     0.009 A 
ENDBRANCH   6   7
ENDBRANCH   4   6
ENDBRANCH   3   4
ENDBRANCH   2   3
BRANCH   2  13
HETATM   13  O   UNL     1     -39.797 -54.207  12.949  1.00  0.00    -0.392 OA
HETATM   14  H   UNL     1     -40.057 -53.483  12.341  1.00  0.00     0.210 HD
ENDBRANCH   2  13
ENDBRANCH   1   2
BRANCH   1  15
HETATM   15  N   UNL     1     -41.073 -51.679  13.900  1.00  0.00    -0.284 N 
HETATM   16  N   UNL     1     -42.383 -51.320  13.948  1.00  0.00    -0.308 N 
HETATM   17  C   UNL     1     -42.502 -50.391  12.992  1.00  0.00     0.122 A 
ATOM     18  HN  UNL     1     -43.109 -51.677  14.570  1.00  0.00     0.186 HD
HETATM   19  C   UNL     1     -41.278 -50.131  12.372  1.00  0.00     0.032 A 
HETATM   20  C   UNL     1     -40.853 -49.268  11.313  1.00  0.00     0.122 A 
HETATM   21  C   UNL     1     -40.367 -50.946  12.995  1.00  0.00     0.133 A 
HETATM   22  N   UNL     1     -39.608 -49.258  10.931  1.00  0.00    -0.306 N 
HETATM   23  N   UNL     1     -38.677 -50.083  11.583  1.00  0.00    -0.261 N 
ATOM     24  HN  UNL     1     -39.312 -48.655  10.164  1.00  0.00     0.186 HD
HETATM   25  C   UNL     1     -37.323 -50.053  11.074  1.00  0.00     0.181 C 
HETATM   26  C   UNL     1     -38.978 -50.954  12.650  1.00  0.00     0.290 A 
HETATM   27  O   UNL     1     -38.139 -51.641  13.224  1.00  0.00    -0.264 OA
ENDBRANCH   1  15
TORSDOF 7
ENDMDL
MODEL 6
REMARK VINA RESULT:      -6.1      2.267      3.881
REMARK  7 active torsions:
REMARK  status: ('A' for Active; 'I' for Inactive)
REMARK    1  A    between atoms: N_2  and  C_3 
REMARK    2  A    between atoms: N_2  and  C_20 
REMARK    3  A    between atoms: C_3  and  C_4 
REMARK    4  A    between atoms: C_4  and  O_5 
REMARK    5  A    between atoms: C_4  and  C_6 
REMARK    6  A    between atoms: C_6  and  N_7 
REMARK    7  A    between atoms: C_20  and  C_21 
ROOT
HETATM    1  C   UNL     1     -40.696 -52.467  14.378  1.00  0.00     0.182 C 
ENDROOT
BRANCH   1   2
HETATM    2  C   UNL     1     -40.707 -53.928  13.909  1.00  0.00     0.166 C 
BRANCH   2   3
HETATM    3  C   UNL     1     -42.128 -54.418  13.534  1.00  0.00     0.305 C 
BRANCH   3   4
HETATM    4  N   UNL     1     -43.096 -54.496  14.651  1.00  0.00     0.090 N 
HETATM    5  C   UNL     1     -42.642 -55.501  15.619  1.00  0.00     0.310 C 
BRANCH   4   6
HETATM    6  C   UNL     1     -44.464 -54.776  14.179  1.00  0.00     0.310 C 
BRANCH   6   7
HETATM    7  C   UNL     1     -45.372 -53.562  14.201  1.00  0.00    -0.030 A 
HETATM    8  C   UNL     1     -45.518 -52.770  13.054  1.00  0.00     0.009 A 
HETATM    9  C   UNL     1     -46.335 -51.640  13.077  1.00  0.00     0.001 A 
HETATM   10  C   UNL     1     -47.017 -51.298  14.243  1.00  0.00     0.000 A 
HETATM   11  C   UNL     1     -46.888 -52.088  15.386  1.00  0.00     0.001 A 
HETATM   12  C   UNL     1     -46.071 -53.218  15.364  1.00  0.00     0.009 A 
ENDBRANCH   6   7
ENDBRANCH   4   6
ENDBRANCH   3   4
ENDBRANCH   2   3
BRANCH   2  13
HETATM   13  O   UNL     1     -39.785 -54.125  12.831  1.00  0.00    -0.392 OA
HETATM   14  H   UNL     1     -39.546 -55.076  12.833  1.00  0.00     0.210 HD
ENDBRANCH   2  13
ENDBRANCH   1   2
BRANCH   1  15
HETATM   15  N   UNL     1     -39.676 -51.654  13.741  1.00  0.00    -0.284 N 
HETATM   16  N   UNL     1     -38.378 -51.842  14.097  1.00  0.00    -0.308 N 
HETATM   17  C   UNL     1     -37.717 -50.885  13.436  1.00  0.00     0.122 A 
ATOM     18  HN  UNL     1     -37.995 -52.550  14.724  1.00  0.00     0.186 HD
HETATM   19  C   UNL     1     -38.574 -50.124  12.637  1.00  0.00     0.032 A 
HETATM   20  C   UNL     1     -38.404 -49.005  11.763  1.00  0.00     0.122 A 
HETATM   21  C   UNL     1     -39.824 -50.659  12.824  1.00  0.00     0.133 A 
HETATM   22  N   UNL     1     -39.428 -48.484  11.150  1.00  0.00    -0.306 N 
HETATM   23  N   UNL     1     -40.702 -49.046  11.333  1.00  0.00    -0.261 N 
ATOM     24  HN  UNL     1     -39.305 -47.675  10.542  1.00  0.00     0.186 HD
HETATM   25  C   UNL     1     -41.799 -48.387  10.657  1.00  0.00     0.181 C 
HETATM   26  C   UNL     1     -40.985 -50.160  12.150  1.00  0.00     0.290 A 
HETATM   27  O   UNL     1     -42.103 -50.652  12.267  1.00  0.00    -0.264 OA
ENDBRANCH   1  15
TORSDOF 7
ENDMDL
MODEL 7
REMARK VINA RESULT:      -6.1      1.943      2.965
REMARK  7 active torsions:
REMARK  status: ('A' for Active; 'I' for Inactive)
REMARK    1  A    between atoms: N_2  and  C_3 
REMARK    2  A    between atoms: N_2  and  C_20 
REMARK    3  A    between atoms: C_3  and  C_4 
REMARK    4  A    between atoms: C_4  and  O_5 
REMARK    5  A    between atoms: C_4  and  C_6 
REMARK    6  A    between atoms: C_6  and  N_7 
REMARK    7  A    between atoms: C_20  and  C_21 
ROOT
HETATM    1  C   UNL     1     -41.372 -49.335  12.427  1.00  0.00     0.182 C 
ENDROOT
BRANCH   1   2
HETATM    2  C   UNL     1     -40.140 -49.863  11.680  1.00  0.00     0.166 C 
BRANCH   2   3
HETATM    3  C   UNL     1     -39.573 -51.158  12.314  1.00  0.00     0.305 C 
BRANCH   3   4
HETATM    4  N   UNL     1     -40.484 -51.873  13.235  1.00  0.00     0.090 N 
HETATM    5  C   UNL     1     -39.866 -51.960  14.563  1.00  0.00     0.310 C 
BRANCH   4   6
HETATM    6  C   UNL     1     -40.856 -53.204  12.721  1.00  0.00     0.310 C 
BRANCH   6   7
HETATM    7  C   UNL     1     -42.246 -53.646  13.134  1.00  0.00    -0.030 A 
HETATM    8  C   UNL     1     -43.370 -53.175  12.442  1.00  0.00     0.009 A 
HETATM    9  C   UNL     1     -44.652 -53.563  12.832  1.00  0.00     0.001 A 
HETATM   10  C   UNL     1     -44.818 -54.427  13.912  1.00  0.00     0.000 A 
HETATM   11  C   UNL     1     -43.704 -54.912  14.599  1.00  0.00     0.001 A 
HETATM   12  C   UNL     1     -42.422 -54.525  14.209  1.00  0.00     0.009 A 
ENDBRANCH   6   7
ENDBRANCH   4   6
ENDBRANCH   3   4
ENDBRANCH   2   3
BRANCH   2  13
HETATM   13  O   UNL     1     -40.427 -50.044  10.289  1.00  0.00    -0.392 OA
HETATM   14  H   UNL     1     -41.000 -49.295  10.018  1.00  0.00     0.210 HD
ENDBRANCH   2  13
ENDBRANCH   1   2
BRANCH   1  15
HETATM   15  N   UNL     1     -41.385 -47.893  12.593  1.00  0.00    -0.284 N 
HETATM   16  N   UNL     1     -40.816 -47.361  13.707  1.00  0.00    -0.308 N 
HETATM   17  C   UNL     1     -41.091 -46.054  13.620  1.00  0.00     0.122 A 
ATOM     18  HN  UNL     1     -40.300 -47.847  14.441  1.00  0.00     0.186 HD
HETATM   19  C   UNL     1     -41.786 -45.750  12.448  1.00  0.00     0.032 A 
HETATM   20  C   UNL     1     -42.322 -44.552  11.880  1.00  0.00     0.122 A 
HETATM   21  C   UNL     1     -41.934 -46.944  11.786  1.00  0.00     0.133 A 
HETATM   22  N   UNL     1     -42.956 -44.587  10.743  1.00  0.00    -0.306 N 
HETATM   23  N   UNL     1     -43.091 -45.808  10.063  1.00  0.00    -0.261 N 
ATOM     24  HN  UNL     1     -43.352 -43.733  10.350  1.00  0.00     0.186 HD
HETATM   25  C   UNL     1     -43.848 -45.779   8.830  1.00  0.00     0.181 C 
HETATM   26  C   UNL     1     -42.586 -47.045  10.515  1.00  0.00     0.290 A 
HETATM   27  O   UNL     1     -42.689 -48.093   9.886  1.00  0.00    -0.264 OA
ENDBRANCH   1  15
TORSDOF 7
ENDMDL
MODEL 8
REMARK VINA RESULT:      -6.1      2.647      6.720
REMARK  7 active torsions:
REMARK  status: ('A' for Active; 'I' for Inactive)
REMARK    1  A    between atoms: N_2  and  C_3 
REMARK    2  A    between atoms: N_2  and  C_20 
REMARK    3  A    between atoms: C_3  and  C_4 
REMARK    4  A    between atoms: C_4  and  O_5 
REMARK    5  A    between atoms: C_4  and  C_6 
REMARK    6  A    between atoms: C_6  and  N_7 
REMARK    7  A    between atoms: C_20  and  C_21 
ROOT
HETATM    1  C   UNL     1     -41.117 -51.802  13.936  1.00  0.00     0.182 C 
ENDROOT
BRANCH   1   2
HETATM    2  C   UNL     1     -40.423 -51.833  12.568  1.00  0.00     0.166 C 
BRANCH   2   3
HETATM    3  C   UNL     1     -39.047 -51.121  12.587  1.00  0.00     0.305 C 
BRANCH   3   4
HETATM    4  N   UNL     1     -38.934 -49.920  11.728  1.00  0.00     0.090 N 
HETATM    5  C   UNL     1     -37.556 -49.796  11.241  1.00  0.00     0.310 C 
BRANCH   4   6
HETATM    6  C   UNL     1     -39.375 -48.699  12.426  1.00  0.00     0.310 C 
BRANCH   6   7
HETATM    7  C   UNL     1     -40.771 -48.251  12.040  1.00  0.00    -0.030 A 
HETATM    8  C   UNL     1     -41.624 -47.692  13.002  1.00  0.00     0.009 A 
HETATM    9  C   UNL     1     -42.916 -47.299  12.655  1.00  0.00     0.001 A 
HETATM   10  C   UNL     1     -43.363 -47.456  11.345  1.00  0.00     0.000 A 
HETATM   11  C   UNL     1     -42.516 -47.999  10.377  1.00  0.00     0.001 A 
HETATM   12  C   UNL     1     -41.224 -48.392  10.723  1.00  0.00     0.009 A 
ENDBRANCH   6   7
ENDBRANCH   4   6
ENDBRANCH   3   4
ENDBRANCH   2   3
BRANCH   2  13
HETATM   13  O   UNL     1     -40.310 -53.175  12.084  1.00  0.00    -0.392 OA
HETATM   14  H   UNL     1     -39.630 -53.619  12.634  1.00  0.00     0.210 HD
ENDBRANCH   2  13
ENDBRANCH   1   2
BRANCH   1  15
HETATM   15  N   UNL     1     -42.044 -52.899  14.149  1.00  0.00    -0.284 N 
HETATM   16  N   UNL     1     -41.570 -54.057  14.680  1.00  0.00    -0.308 N 
HETATM   17  C   UNL     1     -42.619 -54.887  14.639  1.00  0.00     0.122 A 
ATOM     18  HN  UNL     1     -40.631 -54.249  15.028  1.00  0.00     0.186 HD
HETATM   19  C   UNL     1     -43.756 -54.255  14.130  1.00  0.00     0.032 A 
HETATM   20  C   UNL     1     -45.100 -54.668  13.865  1.00  0.00     0.122 A 
HETATM   21  C   UNL     1     -43.371 -52.968  13.853  1.00  0.00     0.133 A 
HETATM   22  N   UNL     1     -45.958 -53.832  13.355  1.00  0.00    -0.306 N 
HETATM   23  N   UNL     1     -45.562 -52.510  13.088  1.00  0.00    -0.261 N 
ATOM     24  HN  UNL     1     -46.910 -54.134  13.150  1.00  0.00     0.186 HD
HETATM   25  C   UNL     1     -46.555 -51.651  12.478  1.00  0.00     0.181 C 
HETATM   26  C   UNL     1     -44.274 -51.988  13.328  1.00  0.00     0.290 A 
HETATM   27  O   UNL     1     -43.963 -50.821  13.117  1.00  0.00    -0.264 OA
ENDBRANCH   1  15
TORSDOF 7
ENDMDL
MODEL 9
REMARK VINA RESULT:      -6.0      1.842      2.473
REMARK  7 active torsions:
REMARK  status: ('A' for Active; 'I' for Inactive)
REMARK    1  A    between atoms: N_2  and  C_3 
REMARK    2  A    between atoms: N_2  and  C_20 
REMARK    3  A    between atoms: C_3  and  C_4 
REMARK    4  A    between atoms: C_4  and  O_5 
REMARK    5  A    between atoms: C_4  and  C_6 
REMARK    6  A    between atoms: C_6  and  N_7 
REMARK    7  A    between atoms: C_20  and  C_21 
ROOT
HETATM    1  C   UNL     1     -38.965 -48.816  11.789  1.00  0.00     0.182 C 
ENDROOT
BRANCH   1   2
HETATM    2  C   UNL     1     -39.850 -50.036  11.503  1.00  0.00     0.166 C 
BRANCH   2   3
HETATM    3  C   UNL     1     -40.911 -50.270  12.607  1.00  0.00     0.305 C 
BRANCH   3   4
HETATM    4  N   UNL     1     -40.902 -51.612  13.230  1.00  0.00     0.090 N 
HETATM    5  C   UNL     1     -39.532 -51.959  13.623  1.00  0.00     0.310 C 
BRANCH   4   6
HETATM    6  C   UNL     1     -41.489 -52.636  12.346  1.00  0.00     0.310 C 
BRANCH   6   7
HETATM    7  C   UNL     1     -42.615 -53.419  12.991  1.00  0.00    -0.030 A 
HETATM    8  C   UNL     1     -42.356 -54.259  14.083  1.00  0.00     0.009 A 
HETATM    9  C   UNL     1     -43.385 -54.998  14.664  1.00  0.00     0.001 A 
HETATM   10  C   UNL     1     -44.681 -54.900  14.162  1.00  0.00     0.000 A 
HETATM   11  C   UNL     1     -44.952 -54.056  13.084  1.00  0.00     0.001 A 
HETATM   12  C   UNL     1     -43.923 -53.316  12.502  1.00  0.00     0.009 A 
ENDBRANCH   6   7
ENDBRANCH   4   6
ENDBRANCH   3   4
ENDBRANCH   2   3
BRANCH   2  13
HETATM   13  O   UNL     1     -40.456 -49.934  10.209  1.00  0.00    -0.392 OA
HETATM   14  H   UNL     1     -39.740 -49.705   9.578  1.00  0.00     0.210 HD
ENDBRANCH   2  13
ENDBRANCH   1   2
BRANCH   1  15
HETATM   15  N   UNL     1     -39.681 -47.553  11.763  1.00  0.00    -0.284 N 
HETATM   16  N   UNL     1     -40.270 -47.163  10.602  1.00  0.00    -0.308 N 
HETATM   17  C   UNL     1     -40.733 -45.936  10.868  1.00  0.00     0.122 A 
ATOM     18  HN  UNL     1     -40.342 -47.685   9.728  1.00  0.00     0.186 HD
HETATM   19  C   UNL     1     -40.482 -45.566  12.191  1.00  0.00     0.032 A 
HETATM   20  C   UNL     1     -40.741 -44.397  12.973  1.00  0.00     0.122 A 
HETATM   21  C   UNL     1     -39.834 -46.635  12.757  1.00  0.00     0.133 A 
HETATM   22  N   UNL     1     -40.359 -44.337  14.217  1.00  0.00    -0.306 N 
HETATM   23  N   UNL     1     -39.711 -45.441  14.795  1.00  0.00    -0.261 N 
ATOM     24  HN  UNL     1     -40.530 -43.495  14.766  1.00  0.00     0.186 HD
HETATM   25  C   UNL     1     -39.273 -45.285  16.166  1.00  0.00     0.181 C 
HETATM   26  C   UNL     1     -39.423 -46.650  14.129  1.00  0.00     0.290 A 
HETATM   27  O   UNL     1     -38.884 -47.612  14.667  1.00  0.00    -0.264 OA
ENDBRANCH   1  15
TORSDOF 7
ENDMDL
