MODEL 1
REMARK VINA RESULT:      -5.6      0.000      0.000
REMARK  3 active torsions:
REMARK  status: ('A' for Active; 'I' for Inactive)
REMARK    1  A    between atoms: C_2  and  C_3 
REMARK    2  A    between atoms: C_7  and  N_8 
REMARK       I    between atoms: N_8  and  C_9 
REMARK       I    between atoms: C_9  and  N_11 
REMARK    3  A    between atoms: N_11  and  C_12 
ROOT
HETATM    1  C   UNL     1     -38.931 -50.386  12.169  1.00  0.00     0.035 C 
HETATM    2  N   UNL     1     -39.724 -50.049  11.110  1.00  0.00    -0.303 N 
HETATM    3  N   UNL     1     -40.830 -50.799  11.005  1.00  0.00    -0.285 N 
ATOM      4  HN  UNL     1     -41.610 -50.680  10.360  1.00  0.00     0.188 HD
HETATM    5  C   UNL     1     -40.673 -51.737  11.939  1.00  0.00     0.131 C 
HETATM    6  C   UNL     1     -39.552 -51.468  12.773  1.00  0.00     0.007 C 
HETATM    7  C   UNL     1     -39.126 -52.155  14.018  1.00  0.00     0.054 C 
HETATM    8  H   UNL     1     -39.574 -49.315  10.426  1.00  0.00     0.186 HD
ENDROOT
BRANCH   5   9
HETATM    9  N   UNL     1     -41.588 -52.764  11.984  1.00  0.00    -0.293 N 
HETATM   10  C   UNL     1     -42.827 -52.613  12.566  1.00  0.00     0.322 C 
HETATM   11  O   UNL     1     -43.274 -51.581  13.060  1.00  0.00    -0.247 OA
HETATM   12  N   UNL     1     -43.537 -53.801  12.562  1.00  0.00    -0.338 N 
HETATM   13  H   UNL     1     -43.225 -54.530  11.938  1.00  0.00     0.164 HD
HETATM   14  H   UNL     1     -41.137 -53.655  12.129  1.00  0.00     0.172 HD
BRANCH  12  15
HETATM   15  C   UNL     1     -44.856 -53.887  13.111  1.00  0.00     0.086 A 
HETATM   16  C   UNL     1     -45.042 -54.023  14.595  1.00  0.00     0.027 A 
HETATM   17  C   UNL     1     -45.380 -55.170  13.691  1.00  0.00     0.027 A 
ENDBRANCH  12  15
ENDBRANCH   5   9
BRANCH   1  18
HETATM   18  C   UNL     1     -37.671 -49.663  12.486  1.00  0.00     0.055 C 
HETATM   19  C   UNL     1     -37.874 -48.625  13.575  1.00  0.00     0.011 C 
ENDBRANCH   1  18
TORSDOF 3
ENDMDL
MODEL 2
REMARK VINA RESULT:      -5.6      6.431      6.955
REMARK  3 active torsions:
REMARK  status: ('A' for Active; 'I' for Inactive)
REMARK    1  A    between atoms: C_2  and  C_3 
REMARK    2  A    between atoms: C_7  and  N_8 
REMARK       I    between atoms: N_8  and  C_9 
REMARK       I    between atoms: C_9  and  N_11 
REMARK    3  A    between atoms: N_11  and  C_12 
ROOT
HETATM    1  C   UNL     1     -40.264 -44.346  11.996  1.00  0.00     0.035 C 
HETATM    2  N   UNL     1     -39.782 -44.735  10.779  1.00  0.00    -0.303 N 
HETATM    3  N   UNL     1     -40.596 -45.572  10.120  1.00  0.00    -0.285 N 
ATOM      4  HN  UNL     1     -40.499 -45.922   9.168  1.00  0.00     0.188 HD
HETATM    5  C   UNL     1     -41.563 -45.839  10.998  1.00  0.00     0.131 C 
HETATM    6  C   UNL     1     -41.466 -45.017  12.154  1.00  0.00     0.007 C 
HETATM    7  C   UNL     1     -42.421 -44.872  13.282  1.00  0.00     0.054 C 
HETATM    8  H   UNL     1     -38.911 -44.463  10.336  1.00  0.00     0.186 HD
ENDROOT
BRANCH   5   9
HETATM    9  N   UNL     1     -42.490 -46.801  10.666  1.00  0.00    -0.293 N 
HETATM   10  C   UNL     1     -43.459 -46.583   9.712  1.00  0.00     0.322 C 
HETATM   11  O   UNL     1     -43.591 -45.567   9.034  1.00  0.00    -0.247 OA
HETATM   12  N   UNL     1     -44.321 -47.660   9.610  1.00  0.00    -0.338 N 
HETATM   13  H   UNL     1     -44.021 -48.538  10.005  1.00  0.00     0.164 HD
HETATM   14  H   UNL     1     -42.778 -47.332  11.474  1.00  0.00     0.172 HD
BRANCH  12  15
HETATM   15  C   UNL     1     -45.407 -47.664   8.678  1.00  0.00     0.086 A 
HETATM   16  C   UNL     1     -46.727 -47.059   9.065  1.00  0.00     0.027 A 
HETATM   17  C   UNL     1     -46.609 -48.542   8.882  1.00  0.00     0.027 A 
ENDBRANCH  12  15
ENDBRANCH   5   9
BRANCH   1  18
HETATM   18  C   UNL     1     -39.532 -43.399  12.879  1.00  0.00     0.055 C 
HETATM   19  C   UNL     1     -39.966 -41.962  12.647  1.00  0.00     0.011 C 
ENDBRANCH   1  18
TORSDOF 3
ENDMDL
MODEL 3
REMARK VINA RESULT:      -5.5      1.372      6.238
REMARK  3 active torsions:
REMARK  status: ('A' for Active; 'I' for Inactive)
REMARK    1  A    between atoms: C_2  and  C_3 
REMARK    2  A    between atoms: C_7  and  N_8 
REMARK       I    between atoms: N_8  and  C_9 
REMARK       I    between atoms: C_9  and  N_11 
REMARK    3  A    between atoms: N_11  and  C_12 
ROOT
HETATM    1  C   UNL     1     -44.167 -54.241  13.348  1.00  0.00     0.035 C 
HETATM    2  N   UNL     1     -44.237 -53.555  12.170  1.00  0.00    -0.303 N 
HETATM    3  N   UNL     1     -43.059 -53.061  11.763  1.00  0.00    -0.285 N 
ATOM      4  HN  UNL     1     -42.844 -52.597  10.881  1.00  0.00     0.188 HD
HETATM    5  C   UNL     1     -42.235 -53.315  12.779  1.00  0.00     0.131 C 
HETATM    6  C   UNL     1     -42.846 -54.148  13.757  1.00  0.00     0.007 C 
HETATM    7  C   UNL     1     -42.237 -54.798  14.945  1.00  0.00     0.054 C 
HETATM    8  H   UNL     1     -45.053 -53.392  11.589  1.00  0.00     0.186 HD
ENDROOT
BRANCH   5   9
HETATM    9  N   UNL     1     -40.963 -52.791  12.727  1.00  0.00    -0.293 N 
HETATM   10  C   UNL     1     -40.719 -51.513  12.277  1.00  0.00     0.322 C 
HETATM   11  O   UNL     1     -41.565 -50.697  11.919  1.00  0.00    -0.247 OA
HETATM   12  N   UNL     1     -39.363 -51.240  12.242  1.00  0.00    -0.338 N 
HETATM   13  H   UNL     1     -38.750 -51.844  12.767  1.00  0.00     0.164 HD
HETATM   14  H   UNL     1     -40.286 -53.490  12.463  1.00  0.00     0.172 HD
BRANCH  12  15
HETATM   15  C   UNL     1     -38.867 -49.968  11.811  1.00  0.00     0.086 A 
HETATM   16  C   UNL     1     -37.460 -49.848  11.296  1.00  0.00     0.027 A 
HETATM   17  C   UNL     1     -37.833 -49.221  12.605  1.00  0.00     0.027 A 
ENDBRANCH  12  15
ENDBRANCH   5   9
BRANCH   1  18
HETATM   18  C   UNL     1     -45.352 -54.894  13.965  1.00  0.00     0.055 C 
HETATM   19  C   UNL     1     -45.955 -54.042  15.068  1.00  0.00     0.011 C 
ENDBRANCH   1  18
TORSDOF 3
ENDMDL
MODEL 4
REMARK VINA RESULT:      -5.5      3.577      5.262
REMARK  3 active torsions:
REMARK  status: ('A' for Active; 'I' for Inactive)
REMARK    1  A    between atoms: C_2  and  C_3 
REMARK    2  A    between atoms: C_7  and  N_8 
REMARK       I    between atoms: N_8  and  C_9 
REMARK       I    between atoms: C_9  and  N_11 
REMARK    3  A    between atoms: N_11  and  C_12 
ROOT
HETATM    1  C   UNL     1     -39.374 -51.355  12.787  1.00  0.00     0.035 C 
HETATM    2  N   UNL     1     -40.395 -52.000  12.150  1.00  0.00    -0.303 N 
HETATM    3  N   UNL     1     -40.952 -51.282  11.164  1.00  0.00    -0.285 N 
ATOM      4  HN  UNL     1     -41.660 -51.580  10.493  1.00  0.00     0.188 HD
HETATM    5  C   UNL     1     -40.368 -50.088  11.264  1.00  0.00     0.131 C 
HETATM    6  C   UNL     1     -39.292 -50.105  12.195  1.00  0.00     0.007 C 
HETATM    7  C   UNL     1     -38.285 -49.051  12.480  1.00  0.00     0.054 C 
HETATM    8  H   UNL     1     -40.756 -52.930  12.330  1.00  0.00     0.186 HD
ENDROOT
BRANCH   5   9
HETATM    9  N   UNL     1     -40.841 -49.068  10.470  1.00  0.00    -0.293 N 
HETATM   10  C   UNL     1     -42.020 -48.413  10.749  1.00  0.00     0.322 C 
HETATM   11  O   UNL     1     -42.749 -48.615  11.717  1.00  0.00    -0.247 OA
HETATM   12  N   UNL     1     -42.327 -47.485   9.770  1.00  0.00    -0.338 N 
HETATM   13  H   UNL     1     -41.587 -47.199   9.147  1.00  0.00     0.164 HD
HETATM   14  H   UNL     1     -40.650 -49.239   9.495  1.00  0.00     0.172 HD
BRANCH  12  15
HETATM   15  C   UNL     1     -43.507 -46.678   9.847  1.00  0.00     0.086 A 
HETATM   16  C   UNL     1     -44.713 -47.035   9.025  1.00  0.00     0.027 A 
HETATM   17  C   UNL     1     -43.929 -45.798   8.705  1.00  0.00     0.027 A 
ENDBRANCH  12  15
ENDBRANCH   5   9
BRANCH   1  18
HETATM   18  C   UNL     1     -38.600 -51.981  13.892  1.00  0.00     0.055 C 
HETATM   19  C   UNL     1     -39.116 -53.371  14.224  1.00  0.00     0.011 C 
ENDBRANCH   1  18
TORSDOF 3
ENDMDL
MODEL 5
REMARK VINA RESULT:      -5.5      2.763      6.204
REMARK  3 active torsions:
REMARK  status: ('A' for Active; 'I' for Inactive)
REMARK    1  A    between atoms: C_2  and  C_3 
REMARK    2  A    between atoms: C_7  and  N_8 
REMARK       I    between atoms: N_8  and  C_9 
REMARK       I    between atoms: C_9  and  N_11 
REMARK    3  A    between atoms: N_11  and  C_12 
ROOT
HETATM    1  C   UNL     1     -40.814 -52.844  12.605  1.00  0.00     0.035 C 
HETATM    2  N   UNL     1     -41.296 -52.462  11.387  1.00  0.00    -0.303 N 
HETATM    3  N   UNL     1     -40.843 -51.267  10.980  1.00  0.00    -0.285 N 
ATOM      4  HN  UNL     1     -40.986 -50.816  10.077  1.00  0.00     0.188 HD
HETATM    5  C   UNL     1     -40.162 -50.806  12.029  1.00  0.00     0.131 C 
HETATM    6  C   UNL     1     -40.019 -51.797  13.040  1.00  0.00     0.007 C 
HETATM    7  C   UNL     1     -39.202 -51.757  14.279  1.00  0.00     0.054 C 
HETATM    8  H   UNL     1     -41.930 -52.968  10.778  1.00  0.00     0.186 HD
ENDROOT
BRANCH   5   9
HETATM    9  N   UNL     1     -39.690 -49.514  11.977  1.00  0.00    -0.293 N 
HETATM   10  C   UNL     1     -40.444 -48.482  11.465  1.00  0.00     0.322 C 
HETATM   11  O   UNL     1     -41.596 -48.565  11.046  1.00  0.00    -0.247 OA
HETATM   12  N   UNL     1     -39.731 -47.296  11.444  1.00  0.00    -0.338 N 
HETATM   13  H   UNL     1     -38.901 -47.240  12.013  1.00  0.00     0.164 HD
HETATM   14  H   UNL     1     -38.705 -49.489  11.764  1.00  0.00     0.172 HD
BRANCH  12  15
HETATM   15  C   UNL     1     -40.312 -46.082  10.957  1.00  0.00     0.086 A 
HETATM   16  C   UNL     1     -39.517 -45.180  10.056  1.00  0.00     0.027 A 
HETATM   17  C   UNL     1     -39.849 -44.740  11.450  1.00  0.00     0.027 A 
ENDBRANCH  12  15
ENDBRANCH   5   9
BRANCH   1  18
HETATM   18  C   UNL     1     -41.168 -54.147  13.231  1.00  0.00     0.055 C 
HETATM   19  C   UNL     1     -42.562 -54.123  13.834  1.00  0.00     0.011 C 
ENDBRANCH   1  18
TORSDOF 3
ENDMDL
MODEL 6
REMARK VINA RESULT:      -5.4      3.024      3.919
REMARK  3 active torsions:
REMARK  status: ('A' for Active; 'I' for Inactive)
REMARK    1  A    between atoms: C_2  and  C_3 
REMARK    2  A    between atoms: C_7  and  N_8 
REMARK       I    between atoms: N_8  and  C_9 
REMARK       I    between atoms: C_9  and  N_11 
REMARK    3  A    between atoms: N_11  and  C_12 
ROOT
HETATM    1  C   UNL     1     -40.852 -46.668  10.804  1.00  0.00     0.035 C 
HETATM    2  N   UNL     1     -41.639 -47.239   9.846  1.00  0.00    -0.303 N 
HETATM    3  N   UNL     1     -41.669 -48.578   9.903  1.00  0.00    -0.285 N 
ATOM      4  HN  UNL     1     -42.249 -49.217   9.360  1.00  0.00     0.188 HD
HETATM    5  C   UNL     1     -40.766 -48.882  10.835  1.00  0.00     0.131 C 
HETATM    6  C   UNL     1     -40.297 -47.722  11.511  1.00  0.00     0.007 C 
HETATM    7  C   UNL     1     -39.426 -47.626  12.710  1.00  0.00     0.054 C 
HETATM    8  H   UNL     1     -42.187 -46.776   9.129  1.00  0.00     0.186 HD
ENDROOT
BRANCH   5   9
HETATM    9  N   UNL     1     -40.453 -50.209  11.024  1.00  0.00    -0.293 N 
HETATM   10  C   UNL     1     -41.214 -51.031  11.825  1.00  0.00     0.322 C 
HETATM   11  O   UNL     1     -42.244 -50.716  12.414  1.00  0.00    -0.247 OA
HETATM   12  N   UNL     1     -40.659 -52.295  11.925  1.00  0.00    -0.338 N 
HETATM   13  H   UNL     1     -39.967 -52.557  11.240  1.00  0.00     0.164 HD
HETATM   14  H   UNL     1     -39.455 -50.351  11.066  1.00  0.00     0.172 HD
BRANCH  12  15
HETATM   15  C   UNL     1     -41.278 -53.325  12.703  1.00  0.00     0.086 A 
HETATM   16  C   UNL     1     -41.147 -53.313  14.200  1.00  0.00     0.027 A 
HETATM   17  C   UNL     1     -40.462 -54.378  13.398  1.00  0.00     0.027 A 
ENDBRANCH  12  15
ENDBRANCH   5   9
BRANCH   1  18
HETATM   18  C   UNL     1     -40.699 -45.194  10.937  1.00  0.00     0.055 C 
HETATM   19  C   UNL     1     -39.508 -44.677  10.149  1.00  0.00     0.011 C 
ENDBRANCH   1  18
TORSDOF 3
ENDMDL
MODEL 7
REMARK VINA RESULT:      -5.1      4.631      6.257
REMARK  3 active torsions:
REMARK  status: ('A' for Active; 'I' for Inactive)
REMARK    1  A    between atoms: C_2  and  C_3 
REMARK    2  A    between atoms: C_7  and  N_8 
REMARK       I    between atoms: N_8  and  C_9 
REMARK       I    between atoms: C_9  and  N_11 
REMARK    3  A    between atoms: N_11  and  C_12 
ROOT
HETATM    1  C   UNL     1     -45.671 -52.582  12.740  1.00  0.00     0.035 C 
HETATM    2  N   UNL     1     -44.530 -52.868  12.046  1.00  0.00    -0.303 N 
HETATM    3  N   UNL     1     -43.834 -53.895  12.554  1.00  0.00    -0.285 N 
ATOM      4  HN  UNL     1     -43.009 -54.348  12.163  1.00  0.00     0.188 HD
HETATM    5  C   UNL     1     -44.471 -54.186  13.688  1.00  0.00     0.131 C 
HETATM    6  C   UNL     1     -45.692 -53.467  13.806  1.00  0.00     0.007 C 
HETATM    7  C   UNL     1     -46.772 -53.616  14.815  1.00  0.00     0.054 C 
HETATM    8  H   UNL     1     -44.172 -52.408  11.216  1.00  0.00     0.186 HD
ENDROOT
BRANCH   5   9
HETATM    9  N   UNL     1     -43.902 -55.118  14.528  1.00  0.00    -0.293 N 
HETATM   10  C   UNL     1     -42.756 -54.852  15.242  1.00  0.00     0.322 C 
HETATM   11  O   UNL     1     -42.141 -53.789  15.256  1.00  0.00    -0.247 OA
HETATM   12  N   UNL     1     -42.333 -55.963  15.950  1.00  0.00    -0.338 N 
HETATM   13  H   UNL     1     -42.996 -56.710  16.090  1.00  0.00     0.164 HD
HETATM   14  H   UNL     1     -43.985 -56.051  14.154  1.00  0.00     0.172 HD
BRANCH  12  15
HETATM   15  C   UNL     1     -41.161 -55.925  16.772  1.00  0.00     0.086 A 
HETATM   16  C   UNL     1     -40.404 -57.192  17.057  1.00  0.00     0.027 A 
HETATM   17  C   UNL     1     -41.158 -56.507  18.157  1.00  0.00     0.027 A 
ENDBRANCH  12  15
ENDBRANCH   5   9
BRANCH   1  18
HETATM   18  C   UNL     1     -46.604 -51.498  12.332  1.00  0.00     0.055 C 
HETATM   19  C   UNL     1     -47.357 -51.852  11.061  1.00  0.00     0.011 C 
ENDBRANCH   1  18
TORSDOF 3
ENDMDL
MODEL 8
REMARK VINA RESULT:      -5.1      5.104      7.188
REMARK  3 active torsions:
REMARK  status: ('A' for Active; 'I' for Inactive)
REMARK    1  A    between atoms: C_2  and  C_3 
REMARK    2  A    between atoms: C_7  and  N_8 
REMARK       I    between atoms: N_8  and  C_9 
REMARK       I    between atoms: C_9  and  N_11 
REMARK    3  A    between atoms: N_11  and  C_12 
ROOT
HETATM    1  C   UNL     1     -39.823 -49.376  11.454  1.00  0.00     0.035 C 
HETATM    2  N   UNL     1     -40.576 -49.521  10.325  1.00  0.00    -0.303 N 
HETATM    3  N   UNL     1     -41.412 -48.497  10.100  1.00  0.00    -0.285 N 
ATOM      4  HN  UNL     1     -42.001 -48.336   9.284  1.00  0.00     0.188 HD
HETATM    5  C   UNL     1     -41.294 -47.739  11.190  1.00  0.00     0.131 C 
HETATM    6  C   UNL     1     -40.233 -48.183  12.027  1.00  0.00     0.007 C 
HETATM    7  C   UNL     1     -39.661 -47.535  13.235  1.00  0.00     0.054 C 
HETATM    8  H   UNL     1     -40.566 -50.288   9.661  1.00  0.00     0.186 HD
ENDROOT
BRANCH   5   9
HETATM    9  N   UNL     1     -42.149 -46.670  11.330  1.00  0.00    -0.293 N 
HETATM   10  C   UNL     1     -41.861 -45.431  10.802  1.00  0.00     0.322 C 
HETATM   11  O   UNL     1     -40.872 -45.141  10.133  1.00  0.00    -0.247 OA
HETATM   12  N   UNL     1     -42.827 -44.500  11.139  1.00  0.00    -0.338 N 
HETATM   13  H   UNL     1     -43.714 -44.846  11.471  1.00  0.00     0.164 HD
HETATM   14  H   UNL     1     -42.599 -46.672  12.233  1.00  0.00     0.172 HD
BRANCH  12  15
HETATM   15  C   UNL     1     -42.743 -43.141  10.698  1.00  0.00     0.086 A 
HETATM   16  C   UNL     1     -42.103 -42.106  11.579  1.00  0.00     0.027 A 
HETATM   17  C   UNL     1     -43.580 -42.062  11.325  1.00  0.00     0.027 A 
ENDBRANCH  12  15
ENDBRANCH   5   9
BRANCH   1  18
HETATM   18  C   UNL     1     -38.813 -50.383  11.875  1.00  0.00     0.055 C 
HETATM   19  C   UNL     1     -37.416 -50.008  11.412  1.00  0.00     0.011 C 
ENDBRANCH   1  18
TORSDOF 3
ENDMDL
MODEL 9
REMARK VINA RESULT:      -4.9      2.271      6.086
REMARK  3 active torsions:
REMARK  status: ('A' for Active; 'I' for Inactive)
REMARK    1  A    between atoms: C_2  and  C_3 
REMARK    2  A    between atoms: C_7  and  N_8 
REMARK       I    between atoms: N_8  and  C_9 
REMARK       I    between atoms: C_9  and  N_11 
REMARK    3  A    between atoms: N_11  and  C_12 
ROOT
HETATM    1  C   UNL     1     -42.677 -53.586  13.123  1.00  0.00     0.035 C 
HETATM    2  N   UNL     1     -41.571 -53.956  12.414  1.00  0.00    -0.303 N 
HETATM    3  N   UNL     1     -40.960 -52.933  11.797  1.00  0.00    -0.285 N 
ATOM      4  HN  UNL     1     -40.076 -52.944  11.291  1.00  0.00     0.188 HD
HETATM    5  C   UNL     1     -41.778 -51.900  11.999  1.00  0.00     0.131 C 
HETATM    6  C   UNL     1     -42.818 -52.223  12.915  1.00  0.00     0.007 C 
HETATM    7  C   UNL     1     -43.828 -51.329  13.536  1.00  0.00     0.054 C 
HETATM    8  H   UNL     1     -41.173 -54.883  12.315  1.00  0.00     0.186 HD
ENDROOT
BRANCH   5   9
HETATM    9  N   UNL     1     -41.497 -50.718  11.353  1.00  0.00    -0.293 N 
HETATM   10  C   UNL     1     -40.633 -49.785  11.881  1.00  0.00     0.322 C 
HETATM   11  O   UNL     1     -39.997 -49.896  12.926  1.00  0.00    -0.247 OA
HETATM   12  N   UNL     1     -40.574 -48.648  11.094  1.00  0.00    -0.338 N 
HETATM   13  H   UNL     1     -40.918 -48.715  10.149  1.00  0.00     0.164 HD
HETATM   14  H   UNL     1     -42.312 -50.351  10.884  1.00  0.00     0.172 HD
BRANCH  12  15
HETATM   15  C   UNL     1     -39.735 -47.541  11.441  1.00  0.00     0.086 A 
HETATM   16  C   UNL     1     -40.272 -46.438  12.309  1.00  0.00     0.027 A 
HETATM   17  C   UNL     1     -39.969 -46.172  10.866  1.00  0.00     0.027 A 
ENDBRANCH  12  15
ENDBRANCH   5   9
BRANCH   1  18
HETATM   18  C   UNL     1     -43.487 -54.558  13.905  1.00  0.00     0.055 C 
HETATM   19  C   UNL     1     -42.738 -55.061  15.127  1.00  0.00     0.011 C 
ENDBRANCH   1  18
TORSDOF 3
ENDMDL
