MODEL 1
REMARK VINA RESULT:      -5.5      0.000      0.000
REMARK  5 active torsions:
REMARK  status: ('A' for Active; 'I' for Inactive)
REMARK    1  A    between atoms: C_2  and  C_3 
REMARK    2  A    between atoms: C_2  and  N_10 
REMARK    3  A    between atoms: C_3  and  N_4 
REMARK       I    between atoms: N_10  and  C_11 
REMARK    4  A    between atoms: C_11  and  C_13 
REMARK    5  A    between atoms: C_13  and  C_14 
ROOT
HETATM    1  N   UNL     1     -41.373 -47.633  10.339  1.00  0.00    -0.355 N 
HETATM    2  C   UNL     1     -41.478 -48.763  11.125  1.00  0.00     0.218 C 
HETATM    3  O   UNL     1     -42.470 -49.025  11.799  1.00  0.00    -0.274 OA
HETATM    4  H   UNL     1     -40.436 -47.338  10.098  1.00  0.00     0.162 HD
ENDROOT
BRANCH   1   5
HETATM    5  C   UNL     1     -42.438 -46.619  10.306  1.00  0.00     0.100 C 
HETATM    6  C   UNL     1     -41.863 -45.271  10.751  1.00  0.00     0.034 C 
BRANCH   5   7
HETATM    7  C   UNL     1     -43.088 -46.523   8.912  1.00  0.00     0.172 C 
BRANCH   7   8
HETATM    8  N   UNL     1     -44.516 -46.772   8.924  1.00  0.00    -0.302 N 
HETATM    9  C   UNL     1     -45.133 -47.990   8.936  1.00  0.00     0.111 A 
HETATM   10  C   UNL     1     -46.482 -47.733   8.932  1.00  0.00     0.037 A 
HETATM   11  C   UNL     1     -46.578 -46.330   8.905  1.00  0.00     0.108 A 
HETATM   12  N   UNL     1     -45.379 -45.739   8.893  1.00  0.00    -0.310 N 
ATOM     13  HN  UNL     1     -45.168 -44.741   8.866  1.00  0.00     0.186 HD
ENDBRANCH   7   8
ENDBRANCH   5   7
ENDBRANCH   1   5
BRANCH   2  14
HETATM   14  C   UNL     1     -40.270 -49.677  11.085  1.00  0.00     0.111 C 
BRANCH  14  15
HETATM   15  C   UNL     1     -39.023 -49.110  11.765  1.00  0.00     0.017 C 
HETATM   16  C   UNL     1     -37.708 -49.786  11.341  1.00  0.00     0.012 C 
HETATM   17  C   UNL     1     -37.382 -50.799  12.440  1.00  0.00     0.027 C 
HETATM   18  C   UNL     1     -38.115 -50.239  13.617  1.00  0.00    -0.030 C 
HETATM   19  C   UNL     1     -39.007 -49.310  13.253  1.00  0.00    -0.026 C 
ENDBRANCH  14  15
ENDBRANCH   2  14
TORSDOF 5
ENDMDL
MODEL 2
REMARK VINA RESULT:      -5.4      3.985      6.553
REMARK  5 active torsions:
REMARK  status: ('A' for Active; 'I' for Inactive)
REMARK    1  A    between atoms: C_2  and  C_3 
REMARK    2  A    between atoms: C_2  and  N_10 
REMARK    3  A    between atoms: C_3  and  N_4 
REMARK       I    between atoms: N_10  and  C_11 
REMARK    4  A    between atoms: C_11  and  C_13 
REMARK    5  A    between atoms: C_13  and  C_14 
ROOT
HETATM    1  N   UNL     1     -42.176 -49.928  11.891  1.00  0.00    -0.355 N 
HETATM    2  C   UNL     1     -41.892 -51.254  12.148  1.00  0.00     0.218 C 
HETATM    3  O   UNL     1     -40.886 -51.820  11.729  1.00  0.00    -0.274 OA
HETATM    4  H   UNL     1     -43.145 -49.650  11.982  1.00  0.00     0.162 HD
ENDROOT
BRANCH   1   5
HETATM    5  C   UNL     1     -41.308 -49.109  11.032  1.00  0.00     0.100 C 
HETATM    6  C   UNL     1     -42.169 -48.099  10.265  1.00  0.00     0.034 C 
BRANCH   5   7
HETATM    7  C   UNL     1     -40.203 -48.407  11.845  1.00  0.00     0.172 C 
BRANCH   7   8
HETATM    8  N   UNL     1     -39.045 -49.245  12.084  1.00  0.00    -0.302 N 
HETATM    9  C   UNL     1     -38.424 -49.458  13.281  1.00  0.00     0.111 A 
HETATM   10  C   UNL     1     -37.375 -50.305  13.020  1.00  0.00     0.037 A 
HETATM   11  C   UNL     1     -37.440 -50.537  11.634  1.00  0.00     0.108 A 
HETATM   12  N   UNL     1     -38.454 -49.886  11.057  1.00  0.00    -0.310 N 
ATOM     13  HN  UNL     1     -38.718 -49.875  10.071  1.00  0.00     0.186 HD
ENDBRANCH   7   8
ENDBRANCH   5   7
ENDBRANCH   1   5
BRANCH   2  14
HETATM   14  C   UNL     1     -42.916 -51.967  13.006  1.00  0.00     0.111 C 
BRANCH  14  15
HETATM   15  C   UNL     1     -42.943 -53.487  12.833  1.00  0.00     0.017 C 
HETATM   16  C   UNL     1     -44.354 -54.098  12.818  1.00  0.00     0.012 C 
HETATM   17  C   UNL     1     -44.593 -54.636  14.229  1.00  0.00     0.027 C 
HETATM   18  C   UNL     1     -43.200 -54.852  14.729  1.00  0.00    -0.030 C 
HETATM   19  C   UNL     1     -42.294 -54.232  13.964  1.00  0.00    -0.026 C 
ENDBRANCH  14  15
ENDBRANCH   2  14
TORSDOF 5
ENDMDL
MODEL 3
REMARK VINA RESULT:      -5.4      3.608      6.644
REMARK  5 active torsions:
REMARK  status: ('A' for Active; 'I' for Inactive)
REMARK    1  A    between atoms: C_2  and  C_3 
REMARK    2  A    between atoms: C_2  and  N_10 
REMARK    3  A    between atoms: C_3  and  N_4 
REMARK       I    between atoms: N_10  and  C_11 
REMARK    4  A    between atoms: C_11  and  C_13 
REMARK    5  A    between atoms: C_13  and  C_14 
ROOT
HETATM    1  N   UNL     1     -42.252 -49.751  11.866  1.00  0.00    -0.355 N 
HETATM    2  C   UNL     1     -42.047 -51.077  12.188  1.00  0.00     0.218 C 
HETATM    3  O   UNL     1     -41.078 -51.722  11.800  1.00  0.00    -0.274 OA
HETATM    4  H   UNL     1     -43.202 -49.411  11.941  1.00  0.00     0.162 HD
ENDROOT
BRANCH   1   5
HETATM    5  C   UNL     1     -41.337 -49.028  10.969  1.00  0.00     0.100 C 
HETATM    6  C   UNL     1     -42.143 -48.042  10.117  1.00  0.00     0.034 C 
BRANCH   5   7
HETATM    7  C   UNL     1     -40.219 -48.314  11.753  1.00  0.00     0.172 C 
BRANCH   7   8
HETATM    8  N   UNL     1     -39.091 -49.172  12.055  1.00  0.00    -0.302 N 
HETATM    9  C   UNL     1     -38.482 -49.325  13.268  1.00  0.00     0.111 A 
HETATM   10  C   UNL     1     -37.461 -50.223  13.070  1.00  0.00     0.037 A 
HETATM   11  C   UNL     1     -37.529 -50.545  11.702  1.00  0.00     0.108 A 
HETATM   12  N   UNL     1     -38.518 -49.900  11.077  1.00  0.00    -0.310 N 
ATOM     13  HN  UNL     1     -38.778 -49.947  10.091  1.00  0.00     0.186 HD
ENDBRANCH   7   8
ENDBRANCH   5   7
ENDBRANCH   1   5
BRANCH   2  14
HETATM   14  C   UNL     1     -43.111 -51.685  13.078  1.00  0.00     0.111 C 
BRANCH  14  15
HETATM   15  C   UNL     1     -44.252 -50.734  13.446  1.00  0.00     0.017 C 
HETATM   16  C   UNL     1     -44.430 -50.514  14.957  1.00  0.00     0.012 C 
HETATM   17  C   UNL     1     -45.572 -51.438  15.384  1.00  0.00     0.027 C 
HETATM   18  C   UNL     1     -46.323 -51.629  14.105  1.00  0.00    -0.030 C 
HETATM   19  C   UNL     1     -45.607 -51.239  13.044  1.00  0.00    -0.026 C 
ENDBRANCH  14  15
ENDBRANCH   2  14
TORSDOF 5
ENDMDL
MODEL 4
REMARK VINA RESULT:      -5.0      4.012      6.479
REMARK  5 active torsions:
REMARK  status: ('A' for Active; 'I' for Inactive)
REMARK    1  A    between atoms: C_2  and  C_3 
REMARK    2  A    between atoms: C_2  and  N_10 
REMARK    3  A    between atoms: C_3  and  N_4 
REMARK       I    between atoms: N_10  and  C_11 
REMARK    4  A    between atoms: C_11  and  C_13 
REMARK    5  A    between atoms: C_13  and  C_14 
ROOT
HETATM    1  N   UNL     1     -44.283 -50.598  12.848  1.00  0.00    -0.355 N 
HETATM    2  C   UNL     1     -43.504 -49.880  13.732  1.00  0.00     0.218 C 
HETATM    3  O   UNL     1     -43.300 -50.233  14.890  1.00  0.00    -0.274 OA
HETATM    4  H   UNL     1     -44.657 -50.085  12.059  1.00  0.00     0.162 HD
ENDROOT
BRANCH   1   5
HETATM    5  C   UNL     1     -44.985 -51.822  13.262  1.00  0.00     0.100 C 
HETATM    6  C   UNL     1     -46.491 -51.636  13.048  1.00  0.00     0.034 C 
BRANCH   5   7
HETATM    7  C   UNL     1     -44.457 -53.061  12.511  1.00  0.00     0.172 C 
BRANCH   7   8
HETATM    8  N   UNL     1     -43.016 -53.202  12.578  1.00  0.00    -0.302 N 
HETATM    9  C   UNL     1     -42.305 -53.887  13.521  1.00  0.00     0.111 A 
HETATM   10  C   UNL     1     -40.982 -53.733  13.186  1.00  0.00     0.037 A 
HETATM   11  C   UNL     1     -40.997 -52.928  12.032  1.00  0.00     0.108 A 
HETATM   12  N   UNL     1     -42.237 -52.596  11.661  1.00  0.00    -0.310 N 
ATOM     13  HN  UNL     1     -42.525 -52.019  10.871  1.00  0.00     0.186 HD
ENDBRANCH   7   8
ENDBRANCH   5   7
ENDBRANCH   1   5
BRANCH   2  14
HETATM   14  C   UNL     1     -42.897 -48.615  13.160  1.00  0.00     0.111 C 
BRANCH  14  15
HETATM   15  C   UNL     1     -42.788 -48.597  11.634  1.00  0.00     0.017 C 
HETATM   16  C   UNL     1     -41.350 -48.466  11.104  1.00  0.00     0.012 C 
HETATM   17  C   UNL     1     -41.164 -46.988  10.755  1.00  0.00     0.027 C 
HETATM   18  C   UNL     1     -42.571 -46.535  10.526  1.00  0.00    -0.030 C 
HETATM   19  C   UNL     1     -43.461 -47.415  10.999  1.00  0.00    -0.026 C 
ENDBRANCH  14  15
ENDBRANCH   2  14
TORSDOF 5
ENDMDL
MODEL 5
REMARK VINA RESULT:      -5.0      5.320      7.605
REMARK  5 active torsions:
REMARK  status: ('A' for Active; 'I' for Inactive)
REMARK    1  A    between atoms: C_2  and  C_3 
REMARK    2  A    between atoms: C_2  and  N_10 
REMARK    3  A    between atoms: C_3  and  N_4 
REMARK       I    between atoms: N_10  and  C_11 
REMARK    4  A    between atoms: C_11  and  C_13 
REMARK    5  A    between atoms: C_13  and  C_14 
ROOT
HETATM    1  N   UNL     1     -42.920 -53.821  13.228  1.00  0.00    -0.355 N 
HETATM    2  C   UNL     1     -43.747 -53.715  14.327  1.00  0.00     0.218 C 
HETATM    3  O   UNL     1     -43.478 -53.030  15.309  1.00  0.00    -0.274 OA
HETATM    4  H   UNL     1     -43.053 -54.635  12.641  1.00  0.00     0.162 HD
ENDROOT
BRANCH   1   5
HETATM    5  C   UNL     1     -41.609 -53.156  13.186  1.00  0.00     0.100 C 
HETATM    6  C   UNL     1     -40.512 -54.189  13.467  1.00  0.00     0.034 C 
BRANCH   5   7
HETATM    7  C   UNL     1     -41.378 -52.438  11.842  1.00  0.00     0.172 C 
BRANCH   7   8
HETATM    8  N   UNL     1     -40.918 -51.072  11.991  1.00  0.00    -0.302 N 
HETATM    9  C   UNL     1     -40.789 -50.377  13.159  1.00  0.00     0.111 A 
HETATM   10  C   UNL     1     -40.336 -49.128  12.809  1.00  0.00     0.037 A 
HETATM   11  C   UNL     1     -40.235 -49.164  11.407  1.00  0.00     0.108 A 
HETATM   12  N   UNL     1     -40.596 -50.348  10.902  1.00  0.00    -0.310 N 
ATOM     13  HN  UNL     1     -40.623 -50.634   9.923  1.00  0.00     0.186 HD
ENDBRANCH   7   8
ENDBRANCH   5   7
ENDBRANCH   1   5
BRANCH   2  14
HETATM   14  C   UNL     1     -45.036 -54.505  14.229  1.00  0.00     0.111 C 
BRANCH  14  15
HETATM   15  C   UNL     1     -46.240 -53.699  13.739  1.00  0.00     0.017 C 
HETATM   16  C   UNL     1     -45.894 -52.598  12.723  1.00  0.00     0.012 C 
HETATM   17  C   UNL     1     -45.829 -51.295  13.521  1.00  0.00     0.027 C 
HETATM   18  C   UNL     1     -46.688 -51.604  14.706  1.00  0.00    -0.030 C 
HETATM   19  C   UNL     1     -46.921 -52.917  14.824  1.00  0.00    -0.026 C 
ENDBRANCH  14  15
ENDBRANCH   2  14
TORSDOF 5
ENDMDL
MODEL 6
REMARK VINA RESULT:      -4.9      4.741      5.754
REMARK  5 active torsions:
REMARK  status: ('A' for Active; 'I' for Inactive)
REMARK    1  A    between atoms: C_2  and  C_3 
REMARK    2  A    between atoms: C_2  and  N_10 
REMARK    3  A    between atoms: C_3  and  N_4 
REMARK       I    between atoms: N_10  and  C_11 
REMARK    4  A    between atoms: C_11  and  C_13 
REMARK    5  A    between atoms: C_13  and  C_14 
ROOT
HETATM    1  N   UNL     1     -42.324 -52.486  13.097  1.00  0.00    -0.355 N 
HETATM    2  C   UNL     1     -41.180 -52.409  12.330  1.00  0.00     0.218 C 
HETATM    3  O   UNL     1     -40.493 -53.385  12.044  1.00  0.00    -0.274 OA
HETATM    4  H   UNL     1     -42.623 -51.630  13.547  1.00  0.00     0.162 HD
ENDROOT
BRANCH   1   5
HETATM    5  C   UNL     1     -42.770 -53.758  13.686  1.00  0.00     0.100 C 
HETATM    6  C   UNL     1     -42.705 -53.656  15.213  1.00  0.00     0.034 C 
BRANCH   5   7
HETATM    7  C   UNL     1     -44.183 -54.142  13.205  1.00  0.00     0.172 C 
BRANCH   7   8
HETATM    8  N   UNL     1     -45.133 -53.050  13.282  1.00  0.00    -0.302 N 
HETATM    9  C   UNL     1     -45.697 -52.534  14.413  1.00  0.00     0.111 A 
HETATM   10  C   UNL     1     -46.536 -51.530  13.997  1.00  0.00     0.037 A 
HETATM   11  C   UNL     1     -46.418 -51.525  12.595  1.00  0.00     0.108 A 
HETATM   12  N   UNL     1     -45.568 -52.456  12.153  1.00  0.00    -0.310 N 
ATOM     13  HN  UNL     1     -45.309 -52.667  11.189  1.00  0.00     0.186 HD
ENDBRANCH   7   8
ENDBRANCH   5   7
ENDBRANCH   1   5
BRANCH   2  14
HETATM   14  C   UNL     1     -40.834 -51.015  11.847  1.00  0.00     0.111 C 
BRANCH  14  15
HETATM   15  C   UNL     1     -39.839 -50.264  12.734  1.00  0.00     0.017 C 
HETATM   16  C   UNL     1     -39.109 -49.109  12.029  1.00  0.00     0.012 C 
HETATM   17  C   UNL     1     -37.743 -49.662  11.620  1.00  0.00     0.027 C 
HETATM   18  C   UNL     1     -37.552 -50.786  12.587  1.00  0.00    -0.030 C 
HETATM   19  C   UNL     1     -38.694 -51.114  13.204  1.00  0.00    -0.026 C 
ENDBRANCH  14  15
ENDBRANCH   2  14
TORSDOF 5
ENDMDL
MODEL 7
REMARK VINA RESULT:      -4.9      4.685      5.911
REMARK  5 active torsions:
REMARK  status: ('A' for Active; 'I' for Inactive)
REMARK    1  A    between atoms: C_2  and  C_3 
REMARK    2  A    between atoms: C_2  and  N_10 
REMARK    3  A    between atoms: C_3  and  N_4 
REMARK       I    between atoms: N_10  and  C_11 
REMARK    4  A    between atoms: C_11  and  C_13 
REMARK    5  A    between atoms: C_13  and  C_14 
ROOT
HETATM    1  N   UNL     1     -42.738 -52.305  13.007  1.00  0.00    -0.355 N 
HETATM    2  C   UNL     1     -41.668 -51.736  12.347  1.00  0.00     0.218 C 
HETATM    3  O   UNL     1     -40.828 -52.390  11.736  1.00  0.00    -0.274 OA
HETATM    4  H   UNL     1     -43.167 -51.747  13.734  1.00  0.00     0.162 HD
ENDROOT
BRANCH   1   5
HETATM    5  C   UNL     1     -42.911 -53.764  13.073  1.00  0.00     0.100 C 
HETATM    6  C   UNL     1     -42.340 -54.278  14.399  1.00  0.00     0.034 C 
BRANCH   5   7
HETATM    7  C   UNL     1     -44.388 -54.169  12.900  1.00  0.00     0.172 C 
BRANCH   7   8
HETATM    8  N   UNL     1     -45.312 -53.071  13.094  1.00  0.00    -0.302 N 
HETATM    9  C   UNL     1     -45.773 -52.591  14.287  1.00  0.00     0.111 A 
HETATM   10  C   UNL     1     -46.630 -51.563  13.978  1.00  0.00     0.037 A 
HETATM   11  C   UNL     1     -46.629 -51.508  12.573  1.00  0.00     0.108 A 
HETATM   12  N   UNL     1     -45.831 -52.431  12.028  1.00  0.00    -0.310 N 
ATOM     13  HN  UNL     1     -45.657 -52.610  11.039  1.00  0.00     0.186 HD
ENDBRANCH   7   8
ENDBRANCH   5   7
ENDBRANCH   1   5
BRANCH   2  14
HETATM   14  C   UNL     1     -41.609 -50.224  12.421  1.00  0.00     0.111 C 
BRANCH  14  15
HETATM   15  C   UNL     1     -40.799 -49.564  11.303  1.00  0.00     0.017 C 
HETATM   16  C   UNL     1     -39.475 -48.934  11.767  1.00  0.00     0.012 C 
HETATM   17  C   UNL     1     -39.755 -47.439  11.928  1.00  0.00     0.027 C 
HETATM   18  C   UNL     1     -40.925 -47.234  11.020  1.00  0.00    -0.030 C 
HETATM   19  C   UNL     1     -41.494 -48.393  10.670  1.00  0.00    -0.026 C 
ENDBRANCH  14  15
ENDBRANCH   2  14
TORSDOF 5
ENDMDL
MODEL 8
REMARK VINA RESULT:      -4.9      4.132      5.931
REMARK  5 active torsions:
REMARK  status: ('A' for Active; 'I' for Inactive)
REMARK    1  A    between atoms: C_2  and  C_3 
REMARK    2  A    between atoms: C_2  and  N_10 
REMARK    3  A    between atoms: C_3  and  N_4 
REMARK       I    between atoms: N_10  and  C_11 
REMARK    4  A    between atoms: C_11  and  C_13 
REMARK    5  A    between atoms: C_13  and  C_14 
ROOT
HETATM    1  N   UNL     1     -42.735 -51.106  12.532  1.00  0.00    -0.355 N 
HETATM    2  C   UNL     1     -41.787 -50.285  11.956  1.00  0.00     0.218 C 
HETATM    3  O   UNL     1     -40.701 -50.691  11.553  1.00  0.00    -0.274 OA
HETATM    4  H   UNL     1     -43.426 -50.654  13.117  1.00  0.00     0.162 HD
ENDROOT
BRANCH   1   5
HETATM    5  C   UNL     1     -42.478 -52.536  12.759  1.00  0.00     0.100 C 
HETATM    6  C   UNL     1     -41.809 -52.715  14.126  1.00  0.00     0.034 C 
BRANCH   5   7
HETATM    7  C   UNL     1     -43.769 -53.370  12.648  1.00  0.00     0.172 C 
BRANCH   7   8
HETATM    8  N   UNL     1     -44.968 -52.618  12.958  1.00  0.00    -0.302 N 
HETATM    9  C   UNL     1     -45.384 -52.216  14.195  1.00  0.00     0.111 A 
HETATM   10  C   UNL     1     -46.570 -51.551  14.000  1.00  0.00     0.037 A 
HETATM   11  C   UNL     1     -46.791 -51.615  12.612  1.00  0.00     0.108 A 
HETATM   12  N   UNL     1     -45.819 -52.272  11.973  1.00  0.00    -0.310 N 
ATOM     13  HN  UNL     1     -45.741 -52.466  10.974  1.00  0.00     0.186 HD
ENDBRANCH   7   8
ENDBRANCH   5   7
ENDBRANCH   1   5
BRANCH   2  14
HETATM   14  C   UNL     1     -42.191 -48.830  11.845  1.00  0.00     0.111 C 
BRANCH  14  15
HETATM   15  C   UNL     1     -41.713 -48.133  10.570  1.00  0.00     0.017 C 
HETATM   16  C   UNL     1     -41.001 -46.791  10.809  1.00  0.00     0.012 C 
HETATM   17  C   UNL     1     -42.050 -45.708  10.553  1.00  0.00     0.027 C 
HETATM   18  C   UNL     1     -43.016 -46.406   9.650  1.00  0.00    -0.030 C 
HETATM   19  C   UNL     1     -42.830 -47.731   9.651  1.00  0.00    -0.026 C 
ENDBRANCH  14  15
ENDBRANCH   2  14
TORSDOF 5
ENDMDL
MODEL 9
REMARK VINA RESULT:      -4.9      3.949      5.619
REMARK  5 active torsions:
REMARK  status: ('A' for Active; 'I' for Inactive)
REMARK    1  A    between atoms: C_2  and  C_3 
REMARK    2  A    between atoms: C_2  and  N_10 
REMARK    3  A    between atoms: C_3  and  N_4 
REMARK       I    between atoms: N_10  and  C_11 
REMARK    4  A    between atoms: C_11  and  C_13 
REMARK    5  A    between atoms: C_13  and  C_14 
ROOT
HETATM    1  N   UNL     1     -42.560 -50.479  11.978  1.00  0.00    -0.355 N 
HETATM    2  C   UNL     1     -43.096 -50.912  13.173  1.00  0.00     0.218 C 
HETATM    3  O   UNL     1     -42.705 -50.518  14.268  1.00  0.00    -0.274 OA
HETATM    4  H   UNL     1     -42.703 -51.080  11.177  1.00  0.00     0.162 HD
ENDROOT
BRANCH   1   5
HETATM    5  C   UNL     1     -41.423 -49.547  11.938  1.00  0.00     0.100 C 
HETATM    6  C   UNL     1     -40.133 -50.338  11.702  1.00  0.00     0.034 C 
BRANCH   5   7
HETATM    7  C   UNL     1     -41.620 -48.455  10.868  1.00  0.00     0.172 C 
BRANCH   7   8
HETATM    8  N   UNL     1     -41.026 -47.184  11.228  1.00  0.00    -0.302 N 
HETATM    9  C   UNL     1     -41.081 -46.571  12.447  1.00  0.00     0.111 A 
HETATM   10  C   UNL     1     -40.392 -45.391  12.312  1.00  0.00     0.037 A 
HETATM   11  C   UNL     1     -39.969 -45.377  10.971  1.00  0.00     0.108 A 
HETATM   12  N   UNL     1     -40.360 -46.466  10.303  1.00  0.00    -0.310 N 
ATOM     13  HN  UNL     1     -40.193 -46.699   9.324  1.00  0.00     0.186 HD
ENDBRANCH   7   8
ENDBRANCH   5   7
ENDBRANCH   1   5
BRANCH   2  14
HETATM   14  C   UNL     1     -44.226 -51.911  13.037  1.00  0.00     0.111 C 
BRANCH  14  15
HETATM   15  C   UNL     1     -43.778 -53.337  12.710  1.00  0.00     0.017 C 
HETATM   16  C   UNL     1     -44.674 -54.435  13.306  1.00  0.00     0.012 C 
HETATM   17  C   UNL     1     -43.966 -54.911  14.576  1.00  0.00     0.027 C 
HETATM   18  C   UNL     1     -42.542 -54.543  14.304  1.00  0.00    -0.030 C 
HETATM   19  C   UNL     1     -42.434 -53.689  13.280  1.00  0.00    -0.026 C 
ENDBRANCH  14  15
ENDBRANCH   2  14
TORSDOF 5
ENDMDL
