MODEL 1
REMARK VINA RESULT:      -6.1      0.000      0.000
REMARK  3 active torsions:
REMARK  status: ('A' for Active; 'I' for Inactive)
REMARK    1  A    between atoms: C_2  and  C_5 
REMARK    2  A    between atoms: C_9  and  N_10 
REMARK       I    between atoms: N_10  and  C_11 
REMARK       I    between atoms: C_11  and  N_13 
REMARK    3  A    between atoms: N_13  and  C_14 
ROOT
HETATM    1  C   UNL     1     -40.455 -46.399  11.124  1.00  0.00     0.088 A 
HETATM    2  N   UNL     1     -39.799 -47.154  12.019  1.00  0.00    -0.353 N 
ATOM      3  HN  UNL     1     -39.057 -46.761  12.599  1.00  0.00     0.166 HD
HETATM    4  C   UNL     1     -40.157 -48.451  12.124  1.00  0.00     0.120 A 
HETATM    5  C   UNL     1     -41.162 -49.041  11.391  1.00  0.00     0.067 A 
HETATM    6  C   UNL     1     -41.797 -48.172  10.523  1.00  0.00     0.120 A 
HETATM    7  N   UNL     1     -41.474 -46.862  10.371  1.00  0.00    -0.353 N 
ATOM      8  HN  UNL     1     -41.977 -46.259   9.720  1.00  0.00     0.166 HD
ENDROOT
BRANCH   5   9
HETATM    9  N   UNL     1     -41.558 -50.398  11.503  1.00  0.00    -0.306 N 
HETATM   10  C   UNL     1     -42.334 -50.908  12.520  1.00  0.00     0.321 C 
HETATM   11  O   UNL     1     -42.707 -50.289  13.508  1.00  0.00    -0.247 OA
HETATM   12  N   UNL     1     -42.729 -52.207  12.291  1.00  0.00    -0.338 N 
HETATM   13  H   UNL     1     -42.128 -52.794  11.732  1.00  0.00     0.164 HD
HETATM   14  H   UNL     1     -41.271 -51.033  10.771  1.00  0.00     0.171 HD
BRANCH  12  15
HETATM   15  C   UNL     1     -43.603 -52.855  13.255  1.00  0.00     0.086 C 
HETATM   16  C   UNL     1     -42.848 -53.680  14.306  1.00  0.00     0.025 C 
HETATM   17  C   UNL     1     -43.633 -54.985  14.462  1.00  0.00     0.002 C 
HETATM   18  C   UNL     1     -44.955 -54.756  13.745  1.00  0.00     0.002 C 
HETATM   19  C   UNL     1     -44.586 -53.821  12.605  1.00  0.00     0.025 C 
ENDBRANCH  12  15
ENDBRANCH   5   9
BRANCH   1  20
HETATM   20  C   UNL     1     -40.035 -44.934  11.021  1.00  0.00     0.007 C 
HETATM   21  C   UNL     1     -41.284 -44.026  10.979  1.00  0.00     0.022 C 
HETATM   22  C   UNL     1     -39.229 -44.729   9.728  1.00  0.00     0.022 C 
HETATM   23  C   UNL     1     -39.182 -44.509  12.228  1.00  0.00     0.022 C 
ENDBRANCH   1  20
TORSDOF 3
ENDMDL
MODEL 2
REMARK VINA RESULT:      -5.7      1.792      2.005
REMARK  3 active torsions:
REMARK  status: ('A' for Active; 'I' for Inactive)
REMARK    1  A    between atoms: C_2  and  C_5 
REMARK    2  A    between atoms: C_9  and  N_10 
REMARK       I    between atoms: N_10  and  C_11 
REMARK       I    between atoms: C_11  and  N_13 
REMARK    3  A    between atoms: N_13  and  C_14 
ROOT
HETATM    1  C   UNL     1     -41.021 -45.848  11.335  1.00  0.00     0.088 A 
HETATM    2  N   UNL     1     -40.684 -46.948  10.643  1.00  0.00    -0.353 N 
ATOM      3  HN  UNL     1     -39.866 -46.960  10.034  1.00  0.00     0.166 HD
HETATM    4  C   UNL     1     -41.469 -48.037  10.782  1.00  0.00     0.120 A 
HETATM    5  C   UNL     1     -42.574 -48.099  11.600  1.00  0.00     0.067 A 
HETATM    6  C   UNL     1     -42.816 -46.928  12.294  1.00  0.00     0.120 A 
HETATM    7  N   UNL     1     -42.066 -45.801  12.188  1.00  0.00    -0.353 N 
ATOM      8  HN  UNL     1     -42.281 -44.961  12.725  1.00  0.00     0.166 HD
ENDROOT
BRANCH   5   9
HETATM    9  N   UNL     1     -43.396 -49.243  11.767  1.00  0.00    -0.306 N 
HETATM   10  C   UNL     1     -43.603 -49.894  12.963  1.00  0.00     0.321 C 
HETATM   11  O   UNL     1     -43.038 -49.638  14.018  1.00  0.00    -0.247 OA
HETATM   12  N   UNL     1     -44.588 -50.852  12.886  1.00  0.00    -0.338 N 
HETATM   13  H   UNL     1     -44.740 -51.306  11.998  1.00  0.00     0.164 HD
HETATM   14  H   UNL     1     -43.886 -49.591  10.954  1.00  0.00     0.171 HD
BRANCH  12  15
HETATM   15  C   UNL     1     -44.955 -51.580  14.090  1.00  0.00     0.086 C 
HETATM   16  C   UNL     1     -44.879 -53.105  13.930  1.00  0.00     0.025 C 
HETATM   17  C   UNL     1     -46.132 -53.663  14.607  1.00  0.00     0.002 C 
HETATM   18  C   UNL     1     -46.727 -52.503  15.390  1.00  0.00     0.002 C 
HETATM   19  C   UNL     1     -46.378 -51.287  14.547  1.00  0.00     0.025 C 
ENDBRANCH  12  15
ENDBRANCH   5   9
BRANCH   1  20
HETATM   20  C   UNL     1     -40.121 -44.626  11.163  1.00  0.00     0.007 C 
HETATM   21  C   UNL     1     -40.981 -43.347  11.049  1.00  0.00     0.022 C 
HETATM   22  C   UNL     1     -39.294 -44.784   9.878  1.00  0.00     0.022 C 
HETATM   23  C   UNL     1     -39.175 -44.453  12.363  1.00  0.00     0.022 C 
ENDBRANCH   1  20
TORSDOF 3
ENDMDL
MODEL 3
REMARK VINA RESULT:      -5.5      1.448      2.151
REMARK  3 active torsions:
REMARK  status: ('A' for Active; 'I' for Inactive)
REMARK    1  A    between atoms: C_2  and  C_5 
REMARK    2  A    between atoms: C_9  and  N_10 
REMARK       I    between atoms: N_10  and  C_11 
REMARK       I    between atoms: C_11  and  N_13 
REMARK    3  A    between atoms: N_13  and  C_14 
ROOT
HETATM    1  C   UNL     1     -40.446 -46.814  11.369  1.00  0.00     0.088 A 
HETATM    2  N   UNL     1     -39.435 -47.486  11.942  1.00  0.00    -0.353 N 
ATOM      3  HN  UNL     1     -38.684 -46.996  12.430  1.00  0.00     0.166 HD
HETATM    4  C   UNL     1     -39.448 -48.832  11.849  1.00  0.00     0.120 A 
HETATM    5  C   UNL     1     -40.438 -49.558  11.227  1.00  0.00     0.067 A 
HETATM    6  C   UNL     1     -41.449 -48.776  10.699  1.00  0.00     0.120 A 
HETATM    7  N   UNL     1     -41.484 -47.420  10.756  1.00  0.00    -0.353 N 
ATOM      8  HN  UNL     1     -42.255 -46.886  10.356  1.00  0.00     0.166 HD
ENDROOT
BRANCH   5   9
HETATM    9  N   UNL     1     -40.472 -50.973  11.137  1.00  0.00    -0.306 N 
HETATM   10  C   UNL     1     -40.699 -51.822  12.196  1.00  0.00     0.321 C 
HETATM   11  O   UNL     1     -40.808 -51.484  13.367  1.00  0.00    -0.247 OA
HETATM   12  N   UNL     1     -40.868 -53.132  11.805  1.00  0.00    -0.338 N 
HETATM   13  H   UNL     1     -40.403 -53.439  10.964  1.00  0.00     0.164 HD
HETATM   14  H   UNL     1     -40.344 -51.388  10.223  1.00  0.00     0.171 HD
BRANCH  12  15
HETATM   15  C   UNL     1     -41.174 -54.132  12.814  1.00  0.00     0.086 C 
HETATM   16  C   UNL     1     -42.584 -53.994  13.405  1.00  0.00     0.025 C 
HETATM   17  C   UNL     1     -42.433 -54.198  14.913  1.00  0.00     0.002 C 
HETATM   18  C   UNL     1     -41.026 -54.741  15.114  1.00  0.00     0.002 C 
HETATM   19  C   UNL     1     -40.225 -54.078  14.006  1.00  0.00     0.025 C 
ENDBRANCH  12  15
ENDBRANCH   5   9
BRANCH   1  20
HETATM   20  C   UNL     1     -40.412 -45.291  11.485  1.00  0.00     0.007 C 
HETATM   21  C   UNL     1     -39.715 -44.682  10.248  1.00  0.00     0.022 C 
HETATM   22  C   UNL     1     -39.623 -44.898  12.744  1.00  0.00     0.022 C 
HETATM   23  C   UNL     1     -41.831 -44.703  11.566  1.00  0.00     0.022 C 
ENDBRANCH   1  20
TORSDOF 3
ENDMDL
MODEL 4
REMARK VINA RESULT:      -5.4      1.779      2.450
REMARK  3 active torsions:
REMARK  status: ('A' for Active; 'I' for Inactive)
REMARK    1  A    between atoms: C_2  and  C_5 
REMARK    2  A    between atoms: C_9  and  N_10 
REMARK       I    between atoms: N_10  and  C_11 
REMARK       I    between atoms: C_11  and  N_13 
REMARK    3  A    between atoms: N_13  and  C_14 
ROOT
HETATM    1  C   UNL     1     -42.114 -44.823  11.605  1.00  0.00     0.088 A 
HETATM    2  N   UNL     1     -41.123 -45.416  10.922  1.00  0.00    -0.353 N 
ATOM      3  HN  UNL     1     -40.364 -44.872  10.510  1.00  0.00     0.166 HD
HETATM    4  C   UNL     1     -41.166 -46.760  10.798  1.00  0.00     0.120 A 
HETATM    5  C   UNL     1     -42.145 -47.559  11.344  1.00  0.00     0.067 A 
HETATM    6  C   UNL     1     -43.100 -46.856  12.056  1.00  0.00     0.120 A 
HETATM    7  N   UNL     1     -43.110 -45.507  12.206  1.00  0.00    -0.353 N 
ATOM      8  HN  UNL     1     -43.835 -45.033  12.746  1.00  0.00     0.166 HD
ENDROOT
BRANCH   5   9
HETATM    9  N   UNL     1     -42.193 -48.972  11.236  1.00  0.00    -0.306 N 
HETATM   10  C   UNL     1     -41.875 -49.849  12.248  1.00  0.00     0.321 C 
HETATM   11  O   UNL     1     -41.422 -49.537  13.342  1.00  0.00    -0.247 OA
HETATM   12  N   UNL     1     -42.187 -51.154  11.943  1.00  0.00    -0.338 N 
HETATM   13  H   UNL     1     -42.171 -51.431  10.972  1.00  0.00     0.164 HD
HETATM   14  H   UNL     1     -42.507 -49.364  10.358  1.00  0.00     0.171 HD
BRANCH  12  15
HETATM   15  C   UNL     1     -41.960 -52.183  12.944  1.00  0.00     0.086 C 
HETATM   16  C   UNL     1     -40.642 -52.946  12.749  1.00  0.00     0.025 C 
HETATM   17  C   UNL     1     -40.969 -54.421  12.985  1.00  0.00     0.002 C 
HETATM   18  C   UNL     1     -42.362 -54.440  13.598  1.00  0.00     0.002 C 
HETATM   19  C   UNL     1     -43.051 -53.248  12.955  1.00  0.00     0.025 C 
ENDBRANCH  12  15
ENDBRANCH   5   9
BRANCH   1  20
HETATM   20  C   UNL     1     -42.047 -43.303  11.733  1.00  0.00     0.007 C 
HETATM   21  C   UNL     1     -42.195 -42.889  13.215  1.00  0.00     0.022 C 
HETATM   22  C   UNL     1     -43.194 -42.676  10.926  1.00  0.00     0.022 C 
HETATM   23  C   UNL     1     -40.703 -42.756  11.222  1.00  0.00     0.022 C 
ENDBRANCH   1  20
TORSDOF 3
ENDMDL
MODEL 5
REMARK VINA RESULT:      -5.3      2.827      7.654
REMARK  3 active torsions:
REMARK  status: ('A' for Active; 'I' for Inactive)
REMARK    1  A    between atoms: C_2  and  C_5 
REMARK    2  A    between atoms: C_9  and  N_10 
REMARK       I    between atoms: N_10  and  C_11 
REMARK       I    between atoms: C_11  and  N_13 
REMARK    3  A    between atoms: N_13  and  C_14 
ROOT
HETATM    1  C   UNL     1     -39.829 -53.301  14.475  1.00  0.00     0.088 A 
HETATM    2  N   UNL     1     -39.214 -52.110  14.526  1.00  0.00    -0.353 N 
ATOM      3  HN  UNL     1     -38.574 -51.877  15.286  1.00  0.00     0.166 HD
HETATM    4  C   UNL     1     -39.471 -51.231  13.534  1.00  0.00     0.120 A 
HETATM    5  C   UNL     1     -40.304 -51.485  12.468  1.00  0.00     0.067 A 
HETATM    6  C   UNL     1     -40.861 -52.750  12.490  1.00  0.00     0.120 A 
HETATM    7  N   UNL     1     -40.644 -53.670  13.464  1.00  0.00    -0.353 N 
ATOM      8  HN  UNL     1     -41.075 -54.594  13.434  1.00  0.00     0.166 HD
ENDROOT
BRANCH   5   9
HETATM    9  N   UNL     1     -40.570 -50.577  11.412  1.00  0.00    -0.306 N 
HETATM   10  C   UNL     1     -41.594 -49.658  11.405  1.00  0.00     0.321 C 
HETATM   11  O   UNL     1     -42.467 -49.561  12.258  1.00  0.00    -0.247 OA
HETATM   12  N   UNL     1     -41.515 -48.775  10.352  1.00  0.00    -0.338 N 
HETATM   13  H   UNL     1     -41.077 -49.092   9.500  1.00  0.00     0.164 HD
HETATM   14  H   UNL     1     -39.946 -50.588  10.615  1.00  0.00     0.171 HD
BRANCH  12  15
HETATM   15  C   UNL     1     -42.500 -47.711  10.252  1.00  0.00     0.086 C 
HETATM   16  C   UNL     1     -43.262 -47.706   8.920  1.00  0.00     0.025 C 
HETATM   17  C   UNL     1     -43.342 -46.243   8.483  1.00  0.00     0.002 C 
HETATM   18  C   UNL     1     -42.908 -45.430   9.693  1.00  0.00     0.002 C 
HETATM   19  C   UNL     1     -41.884 -46.322  10.375  1.00  0.00     0.025 C 
ENDBRANCH  12  15
ENDBRANCH   5   9
BRANCH   1  20
HETATM   20  C   UNL     1     -39.525 -54.281  15.606  1.00  0.00     0.007 C 
HETATM   21  C   UNL     1     -40.831 -54.945  16.098  1.00  0.00     0.022 C 
HETATM   22  C   UNL     1     -38.885 -53.518  16.776  1.00  0.00     0.022 C 
HETATM   23  C   UNL     1     -38.574 -55.397  15.141  1.00  0.00     0.022 C 
ENDBRANCH   1  20
TORSDOF 3
ENDMDL
MODEL 6
REMARK VINA RESULT:      -5.0     15.998     18.519
REMARK  3 active torsions:
REMARK  status: ('A' for Active; 'I' for Inactive)
REMARK    1  A    between atoms: C_2  and  C_5 
REMARK    2  A    between atoms: C_9  and  N_10 
REMARK       I    between atoms: N_10  and  C_11 
REMARK       I    between atoms: C_11  and  N_13 
REMARK    3  A    between atoms: N_13  and  C_14 
ROOT
HETATM    1  C   UNL     1     -52.460 -55.605  -2.830  1.00  0.00     0.088 A 
HETATM    2  N   UNL     1     -53.191 -55.116  -1.816  1.00  0.00    -0.353 N 
ATOM      3  HN  UNL     1     -54.138 -55.452  -1.637  1.00  0.00     0.166 HD
HETATM    4  C   UNL     1     -52.628 -54.165  -1.041  1.00  0.00     0.120 A 
HETATM    5  C   UNL     1     -51.350 -53.682  -1.211  1.00  0.00     0.067 A 
HETATM    6  C   UNL     1     -50.670 -54.273  -2.259  1.00  0.00     0.120 A 
HETATM    7  N   UNL     1     -51.188 -55.227  -3.074  1.00  0.00    -0.353 N 
ATOM      8  HN  UNL     1     -50.644 -55.637  -3.833  1.00  0.00     0.166 HD
ENDROOT
BRANCH   5   9
HETATM    9  N   UNL     1     -50.741 -52.695  -0.394  1.00  0.00    -0.306 N 
HETATM   10  C   UNL     1     -50.840 -51.337  -0.598  1.00  0.00     0.321 C 
HETATM   11  O   UNL     1     -51.382 -50.800  -1.555  1.00  0.00    -0.247 OA
HETATM   12  N   UNL     1     -50.317 -50.601   0.442  1.00  0.00    -0.338 N 
HETATM   13  H   UNL     1     -49.566 -51.007   0.979  1.00  0.00     0.164 HD
HETATM   14  H   UNL     1     -50.216 -53.011   0.411  1.00  0.00     0.171 HD
BRANCH  12  15
HETATM   15  C   UNL     1     -50.406 -49.151   0.390  1.00  0.00     0.086 C 
HETATM   16  C   UNL     1     -49.063 -48.447   0.628  1.00  0.00     0.025 C 
HETATM   17  C   UNL     1     -49.361 -47.273   1.562  1.00  0.00     0.002 C 
HETATM   18  C   UNL     1     -50.877 -47.147   1.590  1.00  0.00     0.002 C 
HETATM   19  C   UNL     1     -51.358 -48.580   1.433  1.00  0.00     0.025 C 
ENDBRANCH  12  15
ENDBRANCH   5   9
BRANCH   1  20
HETATM   20  C   UNL     1     -53.116 -56.680  -3.694  1.00  0.00     0.007 C 
HETATM   21  C   UNL     1     -52.112 -57.197  -4.749  1.00  0.00     0.022 C 
HETATM   22  C   UNL     1     -54.329 -56.076  -4.418  1.00  0.00     0.022 C 
HETATM   23  C   UNL     1     -53.570 -57.881  -2.847  1.00  0.00     0.022 C 
ENDBRANCH   1  20
TORSDOF 3
ENDMDL
MODEL 7
REMARK VINA RESULT:      -4.8     15.362     17.615
REMARK  3 active torsions:
REMARK  status: ('A' for Active; 'I' for Inactive)
REMARK    1  A    between atoms: C_2  and  C_5 
REMARK    2  A    between atoms: C_9  and  N_10 
REMARK       I    between atoms: N_10  and  C_11 
REMARK       I    between atoms: C_11  and  N_13 
REMARK    3  A    between atoms: N_13  and  C_14 
ROOT
HETATM    1  C   UNL     1     -49.605 -55.387  -3.093  1.00  0.00     0.088 A 
HETATM    2  N   UNL     1     -50.839 -54.992  -2.742  1.00  0.00    -0.353 N 
ATOM      3  HN  UNL     1     -51.669 -55.409  -3.167  1.00  0.00     0.166 HD
HETATM    4  C   UNL     1     -50.943 -54.024  -1.808  1.00  0.00     0.120 A 
HETATM    5  C   UNL     1     -49.870 -53.434  -1.178  1.00  0.00     0.067 A 
HETATM    6  C   UNL     1     -48.647 -53.934  -1.585  1.00  0.00     0.120 A 
HETATM    7  N   UNL     1     -48.483 -54.900  -2.525  1.00  0.00    -0.353 N 
ATOM      8  HN  UNL     1     -47.558 -55.240  -2.788  1.00  0.00     0.166 HD
ENDROOT
BRANCH   5   9
HETATM    9  N   UNL     1     -49.966 -52.428  -0.183  1.00  0.00    -0.306 N 
HETATM   10  C   UNL     1     -50.020 -51.076  -0.436  1.00  0.00     0.321 C 
HETATM   11  O   UNL     1     -49.898 -50.553  -1.536  1.00  0.00    -0.247 OA
HETATM   12  N   UNL     1     -50.301 -50.332   0.688  1.00  0.00    -0.338 N 
HETATM   13  H   UNL     1     -50.011 -50.697   1.583  1.00  0.00     0.164 HD
HETATM   14  H   UNL     1     -50.024 -52.726   0.781  1.00  0.00     0.171 HD
BRANCH  12  15
HETATM   15  C   UNL     1     -50.447 -48.892   0.558  1.00  0.00     0.086 C 
HETATM   16  C   UNL     1     -49.143 -48.121   0.805  1.00  0.00     0.025 C 
HETATM   17  C   UNL     1     -49.523 -46.915   1.667  1.00  0.00     0.002 C 
HETATM   18  C   UNL     1     -51.042 -46.852   1.638  1.00  0.00     0.002 C 
HETATM   19  C   UNL     1     -51.458 -48.310   1.539  1.00  0.00     0.025 C 
ENDBRANCH  12  15
ENDBRANCH   5   9
BRANCH   1  20
HETATM   20  C   UNL     1     -49.510 -56.483  -4.153  1.00  0.00     0.007 C 
HETATM   21  C   UNL     1     -48.515 -57.575  -3.697  1.00  0.00     0.022 C 
HETATM   22  C   UNL     1     -49.007 -55.872  -5.469  1.00  0.00     0.022 C 
HETATM   23  C   UNL     1     -50.873 -57.156  -4.388  1.00  0.00     0.022 C 
ENDBRANCH   1  20
TORSDOF 3
ENDMDL
MODEL 8
REMARK VINA RESULT:      -4.8      3.966      7.644
REMARK  3 active torsions:
REMARK  status: ('A' for Active; 'I' for Inactive)
REMARK    1  A    between atoms: C_2  and  C_5 
REMARK    2  A    between atoms: C_9  and  N_10 
REMARK       I    between atoms: N_10  and  C_11 
REMARK       I    between atoms: C_11  and  N_13 
REMARK    3  A    between atoms: N_13  and  C_14 
ROOT
HETATM    1  C   UNL     1     -44.586 -51.281  13.612  1.00  0.00     0.088 A 
HETATM    2  N   UNL     1     -44.458 -50.446  14.656  1.00  0.00    -0.353 N 
ATOM      3  HN  UNL     1     -45.224 -50.301  15.314  1.00  0.00     0.166 HD
HETATM    4  C   UNL     1     -43.280 -49.805  14.801  1.00  0.00     0.120 A 
HETATM    5  C   UNL     1     -42.198 -49.968  13.965  1.00  0.00     0.067 A 
HETATM    6  C   UNL     1     -42.420 -50.872  12.944  1.00  0.00     0.120 A 
HETATM    7  N   UNL     1     -43.586 -51.539  12.745  1.00  0.00    -0.353 N 
ATOM      8  HN  UNL     1     -43.700 -52.202  11.978  1.00  0.00     0.166 HD
ENDROOT
BRANCH   5   9
HETATM    9  N   UNL     1     -40.950 -49.313  14.117  1.00  0.00    -0.306 N 
HETATM   10  C   UNL     1     -40.083 -49.508  15.168  1.00  0.00     0.321 C 
HETATM   11  O   UNL     1     -40.307 -50.195  16.156  1.00  0.00    -0.247 OA
HETATM   12  N   UNL     1     -38.864 -48.896  14.978  1.00  0.00    -0.338 N 
HETATM   13  H   UNL     1     -38.836 -48.062  14.411  1.00  0.00     0.164 HD
HETATM   14  H   UNL     1     -40.664 -48.673  13.388  1.00  0.00     0.171 HD
BRANCH  12  15
HETATM   15  C   UNL     1     -37.828 -49.067  15.983  1.00  0.00     0.086 C 
HETATM   16  C   UNL     1     -37.145 -47.753  16.387  1.00  0.00     0.025 C 
HETATM   17  C   UNL     1     -35.649 -48.061  16.464  1.00  0.00     0.002 C 
HETATM   18  C   UNL     1     -35.538 -49.577  16.406  1.00  0.00     0.002 C 
HETATM   19  C   UNL     1     -36.704 -49.987  15.521  1.00  0.00     0.025 C 
ENDBRANCH  12  15
ENDBRANCH   5   9
BRANCH   1  20
HETATM   20  C   UNL     1     -45.928 -51.996  13.465  1.00  0.00     0.007 C 
HETATM   21  C   UNL     1     -46.859 -51.620  14.639  1.00  0.00     0.022 C 
HETATM   22  C   UNL     1     -45.696 -53.515  13.484  1.00  0.00     0.022 C 
HETATM   23  C   UNL     1     -46.634 -51.602  12.157  1.00  0.00     0.022 C 
ENDBRANCH   1  20
TORSDOF 3
ENDMDL
MODEL 9
REMARK VINA RESULT:      -4.8     14.193     15.212
REMARK  3 active torsions:
REMARK  status: ('A' for Active; 'I' for Inactive)
REMARK    1  A    between atoms: C_2  and  C_5 
REMARK    2  A    between atoms: C_9  and  N_10 
REMARK       I    between atoms: N_10  and  C_11 
REMARK       I    between atoms: C_11  and  N_13 
REMARK    3  A    between atoms: N_13  and  C_14 
ROOT
HETATM    1  C   UNL     1     -50.117 -46.467   1.586  1.00  0.00     0.088 A 
HETATM    2  N   UNL     1     -49.079 -47.044   0.961  1.00  0.00    -0.353 N 
ATOM      3  HN  UNL     1     -48.245 -46.509   0.716  1.00  0.00     0.166 HD
HETATM    4  C   UNL     1     -49.178 -48.358   0.668  1.00  0.00     0.120 A 
HETATM    5  C   UNL     1     -50.261 -49.145   0.987  1.00  0.00     0.067 A 
HETATM    6  C   UNL     1     -51.261 -48.466   1.658  1.00  0.00     0.120 A 
HETATM    7  N   UNL     1     -51.218 -47.146   1.971  1.00  0.00    -0.353 N 
ATOM      8  HN  UNL     1     -51.980 -46.689   2.473  1.00  0.00     0.166 HD
ENDROOT
BRANCH   5   9
HETATM    9  N   UNL     1     -50.369 -50.530   0.699  1.00  0.00    -0.306 N 
HETATM   10  C   UNL     1     -51.094 -51.061  -0.344  1.00  0.00     0.321 C 
HETATM   11  O   UNL     1     -51.814 -50.427  -1.105  1.00  0.00    -0.247 OA
HETATM   12  N   UNL     1     -50.879 -52.410  -0.512  1.00  0.00    -0.338 N 
HETATM   13  H   UNL     1     -50.635 -52.956   0.301  1.00  0.00     0.164 HD
HETATM   14  H   UNL     1     -49.858 -51.173   1.289  1.00  0.00     0.171 HD
BRANCH  12  15
HETATM   15  C   UNL     1     -51.535 -53.093  -1.615  1.00  0.00     0.086 C 
HETATM   16  C   UNL     1     -52.894 -53.698  -1.239  1.00  0.00     0.025 C 
HETATM   17  C   UNL     1     -52.931 -55.086  -1.880  1.00  0.00     0.002 C 
HETATM   18  C   UNL     1     -51.754 -55.125  -2.843  1.00  0.00     0.002 C 
HETATM   19  C   UNL     1     -50.711 -54.251  -2.166  1.00  0.00     0.025 C 
ENDBRANCH  12  15
ENDBRANCH   5   9
BRANCH   1  20
HETATM   20  C   UNL     1     -49.986 -44.980   1.908  1.00  0.00     0.007 C 
HETATM   21  C   UNL     1     -48.968 -44.775   3.053  1.00  0.00     0.022 C 
HETATM   22  C   UNL     1     -51.351 -44.436   2.355  1.00  0.00     0.022 C 
HETATM   23  C   UNL     1     -49.491 -44.184   0.689  1.00  0.00     0.022 C 
ENDBRANCH   1  20
TORSDOF 3
ENDMDL
