MODEL 1
REMARK VINA RESULT:      -7.2      0.000      0.000
REMARK  4 active torsions:
REMARK  status: ('A' for Active; 'I' for Inactive)
REMARK    1  A    between atoms: C_4  and  N_5 
REMARK       I    between atoms: N_5  and  C_6 
REMARK       I    between atoms: C_6  and  N_8 
REMARK    2  A    between atoms: N_8  and  C_9 
REMARK    3  A    between atoms: C_10  and  C_11 
REMARK    4  A    between atoms: C_11  and  O_12 
ROOT
HETATM    1  N   UNL     1     -41.481 -47.834  10.232  1.00  0.00    -0.293 N 
HETATM    2  C   UNL     1     -41.034 -48.800  11.078  1.00  0.00     0.322 C 
HETATM    3  O   UNL     1     -39.930 -48.669  11.603  1.00  0.00    -0.247 OA
HETATM    4  N   UNL     1     -41.887 -49.826  11.373  1.00  0.00    -0.337 N 
HETATM    5  H   UNL     1     -40.854 -47.044  10.159  1.00  0.00     0.172 HD
HETATM    6  H   UNL     1     -42.822 -49.703  10.994  1.00  0.00     0.164 HD
ENDROOT
BRANCH   4   7
HETATM    7  C   UNL     1     -41.762 -50.597  12.588  1.00  0.00     0.096 C 
HETATM    8  C   UNL     1     -42.095 -52.113  12.499  1.00  0.00     0.036 C 
HETATM    9  C   UNL     1     -42.965 -52.331  13.780  1.00  0.00    -0.006 C 
HETATM   10  C   UNL     1     -44.393 -51.857  13.482  1.00  0.00     0.005 C 
HETATM   11  C   UNL     1     -42.503 -51.220  14.728  1.00  0.00     0.012 C 
HETATM   12  C   UNL     1     -44.204 -50.346  13.292  1.00  0.00     0.007 C 
HETATM   13  C   UNL     1     -42.729 -50.117  13.696  1.00  0.00     0.009 C 
BRANCH   8  14
HETATM   14  C   UNL     1     -40.844 -52.992  12.492  1.00  0.00     0.171 C 
BRANCH  14  15
HETATM   15  O   UNL     1     -40.575 -53.474  11.177  1.00  0.00    -0.400 OA
HETATM   16  H   UNL     1     -40.162 -52.755  10.674  1.00  0.00     0.209 HD
ENDBRANCH  14  15
ENDBRANCH   8  14
ENDBRANCH   4   7
BRANCH   1  17
HETATM   17  C   UNL     1     -42.697 -47.748   9.589  1.00  0.00     0.132 A 
HETATM   18  C   UNL     1     -43.907 -47.361  10.211  1.00  0.00     0.084 A 
HETATM   19  C   UNL     1     -44.849 -47.452   9.218  1.00  0.00     0.076 A 
HETATM   20  C   UNL     1     -46.307 -47.246   9.144  1.00  0.00     0.079 C 
HETATM   21  O   UNL     1     -44.244 -47.837   8.065  1.00  0.00    -0.241 OA
HETATM   22  N   UNL     1     -42.903 -48.050   8.302  1.00  0.00    -0.245 N 
ATOM     23  HN  UNL     1     -42.207 -48.373   7.631  1.00  0.00     0.196 HD
ENDBRANCH   1  17
TORSDOF 4
ENDMDL
MODEL 2
REMARK VINA RESULT:      -6.5      1.975      2.629
REMARK  4 active torsions:
REMARK  status: ('A' for Active; 'I' for Inactive)
REMARK    1  A    between atoms: C_4  and  N_5 
REMARK       I    between atoms: N_5  and  C_6 
REMARK       I    between atoms: C_6  and  N_8 
REMARK    2  A    between atoms: N_8  and  C_9 
REMARK    3  A    between atoms: C_10  and  C_11 
REMARK    4  A    between atoms: C_11  and  O_12 
ROOT
HETATM    1  N   UNL     1     -42.240 -46.186   9.539  1.00  0.00    -0.293 N 
HETATM    2  C   UNL     1     -41.205 -46.617  10.309  1.00  0.00     0.322 C 
HETATM    3  O   UNL     1     -40.454 -45.786  10.817  1.00  0.00    -0.247 OA
HETATM    4  N   UNL     1     -41.114 -47.958  10.553  1.00  0.00    -0.337 N 
HETATM    5  H   UNL     1     -42.322 -45.179   9.506  1.00  0.00     0.172 HD
HETATM    6  H   UNL     1     -41.905 -48.492  10.203  1.00  0.00     0.164 HD
ENDROOT
BRANCH   4   7
HETATM    7  C   UNL     1     -40.425 -48.478  11.711  1.00  0.00     0.096 C 
HETATM    8  C   UNL     1     -39.598 -49.780  11.514  1.00  0.00     0.036 C 
HETATM    9  C   UNL     1     -40.000 -50.614  12.774  1.00  0.00    -0.006 C 
HETATM   10  C   UNL     1     -41.360 -51.272  12.506  1.00  0.00     0.005 C 
HETATM   11  C   UNL     1     -40.409 -49.552  13.800  1.00  0.00     0.012 C 
HETATM   12  C   UNL     1     -42.299 -50.060  12.424  1.00  0.00     0.007 C 
HETATM   13  C   UNL     1     -41.395 -48.879  12.847  1.00  0.00     0.009 C 
BRANCH   8  14
HETATM   14  C   UNL     1     -38.093 -49.518  11.448  1.00  0.00     0.171 C 
BRANCH  14  15
HETATM   15  O   UNL     1     -37.536 -50.083  10.263  1.00  0.00    -0.400 OA
HETATM   16  H   UNL     1     -37.745 -49.491   9.524  1.00  0.00     0.209 HD
ENDBRANCH  14  15
ENDBRANCH   8  14
ENDBRANCH   4   7
BRANCH   1  17
HETATM   17  C   UNL     1     -43.227 -46.930   8.930  1.00  0.00     0.132 A 
HETATM   18  C   UNL     1     -44.527 -47.120   9.454  1.00  0.00     0.084 A 
HETATM   19  C   UNL     1     -45.147 -47.944   8.549  1.00  0.00     0.076 A 
HETATM   20  C   UNL     1     -46.472 -48.583   8.461  1.00  0.00     0.079 C 
HETATM   21  O   UNL     1     -44.290 -48.208   7.529  1.00  0.00    -0.241 OA
HETATM   22  N   UNL     1     -43.079 -47.598   7.780  1.00  0.00    -0.245 N 
ATOM     23  HN  UNL     1     -42.239 -47.647   7.204  1.00  0.00     0.196 HD
ENDBRANCH   1  17
TORSDOF 4
ENDMDL
MODEL 3
REMARK VINA RESULT:      -6.2      3.355      4.903
REMARK  4 active torsions:
REMARK  status: ('A' for Active; 'I' for Inactive)
REMARK    1  A    between atoms: C_4  and  N_5 
REMARK       I    between atoms: N_5  and  C_6 
REMARK       I    between atoms: C_6  and  N_8 
REMARK    2  A    between atoms: N_8  and  C_9 
REMARK    3  A    between atoms: C_10  and  C_11 
REMARK    4  A    between atoms: C_11  and  O_12 
ROOT
HETATM    1  N   UNL     1     -40.541 -52.853  13.165  1.00  0.00    -0.293 N 
HETATM    2  C   UNL     1     -41.704 -53.424  13.578  1.00  0.00     0.322 C 
HETATM    3  O   UNL     1     -41.659 -54.481  14.204  1.00  0.00    -0.247 OA
HETATM    4  N   UNL     1     -42.861 -52.735  13.352  1.00  0.00    -0.337 N 
HETATM    5  H   UNL     1     -39.717 -53.350  13.477  1.00  0.00     0.172 HD
HETATM    6  H   UNL     1     -42.716 -51.801  12.977  1.00  0.00     0.164 HD
ENDROOT
BRANCH   4   7
HETATM    7  C   UNL     1     -44.045 -52.949  14.151  1.00  0.00     0.096 C 
HETATM    8  C   UNL     1     -45.228 -53.695  13.473  1.00  0.00     0.036 C 
HETATM    9  C   UNL     1     -46.454 -52.828  13.911  1.00  0.00    -0.006 C 
HETATM   10  C   UNL     1     -46.527 -51.596  13.000  1.00  0.00     0.005 C 
HETATM   11  C   UNL     1     -45.990 -52.173  15.216  1.00  0.00     0.012 C 
HETATM   12  C   UNL     1     -45.250 -50.833  13.378  1.00  0.00     0.007 C 
HETATM   13  C   UNL     1     -44.709 -51.623  14.592  1.00  0.00     0.009 C 
BRANCH   8  14
HETATM   14  C   UNL     1     -45.352 -55.147  13.935  1.00  0.00     0.171 C 
BRANCH  14  15
HETATM   15  O   UNL     1     -44.248 -55.507  14.763  1.00  0.00    -0.400 OA
HETATM   16  H   UNL     1     -43.542 -54.858  14.618  1.00  0.00     0.209 HD
ENDBRANCH  14  15
ENDBRANCH   8  14
ENDBRANCH   4   7
BRANCH   1  17
HETATM   17  C   UNL     1     -40.355 -51.654  12.511  1.00  0.00     0.132 A 
HETATM   18  C   UNL     1     -39.674 -50.540  13.056  1.00  0.00     0.084 A 
HETATM   19  C   UNL     1     -39.763 -49.574  12.085  1.00  0.00     0.076 A 
HETATM   20  C   UNL     1     -39.329 -48.170  11.972  1.00  0.00     0.079 C 
HETATM   21  O   UNL     1     -40.425 -50.081  11.013  1.00  0.00    -0.241 OA
HETATM   22  N   UNL     1     -40.821 -51.372  11.289  1.00  0.00    -0.245 N 
ATOM     23  HN  UNL     1     -41.360 -51.989  10.682  1.00  0.00     0.196 HD
ENDBRANCH   1  17
TORSDOF 4
ENDMDL
MODEL 4
REMARK VINA RESULT:      -6.2      4.387      6.449
REMARK  4 active torsions:
REMARK  status: ('A' for Active; 'I' for Inactive)
REMARK    1  A    between atoms: C_4  and  N_5 
REMARK       I    between atoms: N_5  and  C_6 
REMARK       I    between atoms: C_6  and  N_8 
REMARK    2  A    between atoms: N_8  and  C_9 
REMARK    3  A    between atoms: C_10  and  C_11 
REMARK    4  A    between atoms: C_11  and  O_12 
ROOT
HETATM    1  N   UNL     1     -42.181 -54.759  14.223  1.00  0.00    -0.293 N 
HETATM    2  C   UNL     1     -43.539 -54.682  14.202  1.00  0.00     0.322 C 
HETATM    3  O   UNL     1     -44.194 -55.564  14.753  1.00  0.00    -0.247 OA
HETATM    4  N   UNL     1     -44.100 -53.568  13.644  1.00  0.00    -0.337 N 
HETATM    5  H   UNL     1     -41.833 -55.540  14.762  1.00  0.00     0.172 HD
HETATM    6  H   UNL     1     -43.424 -52.854  13.386  1.00  0.00     0.164 HD
ENDROOT
BRANCH   4   7
HETATM    7  C   UNL     1     -45.428 -53.124  13.999  1.00  0.00     0.096 C 
HETATM    8  C   UNL     1     -45.807 -51.664  13.623  1.00  0.00     0.036 C 
HETATM    9  C   UNL     1     -46.507 -51.163  14.929  1.00  0.00    -0.006 C 
HETATM   10  C   UNL     1     -45.423 -50.769  15.940  1.00  0.00     0.005 C 
HETATM   11  C   UNL     1     -47.030 -52.448  15.579  1.00  0.00     0.012 C 
HETATM   12  C   UNL     1     -44.758 -52.117  16.249  1.00  0.00     0.007 C 
HETATM   13  C   UNL     1     -45.668 -53.138  15.527  1.00  0.00     0.009 C 
BRANCH   8  14
HETATM   14  C   UNL     1     -46.729 -51.588  12.406  1.00  0.00     0.171 C 
BRANCH  14  15
HETATM   15  O   UNL     1     -46.516 -52.705  11.544  1.00  0.00    -0.400 OA
HETATM   16  H   UNL     1     -45.639 -52.608  11.142  1.00  0.00     0.209 HD
ENDBRANCH  14  15
ENDBRANCH   8  14
ENDBRANCH   4   7
BRANCH   1  17
HETATM   17  C   UNL     1     -41.260 -53.861  13.728  1.00  0.00     0.132 A 
HETATM   18  C   UNL     1     -40.662 -52.826  14.485  1.00  0.00     0.084 A 
HETATM   19  C   UNL     1     -39.854 -52.169  13.592  1.00  0.00     0.076 A 
HETATM   20  C   UNL     1     -38.975 -50.988  13.658  1.00  0.00     0.079 C 
HETATM   21  O   UNL     1     -39.933 -52.786  12.384  1.00  0.00    -0.241 OA
HETATM   22  N   UNL     1     -40.834 -53.826  12.461  1.00  0.00    -0.245 N 
ATOM     23  HN  UNL     1     -41.119 -54.445  11.702  1.00  0.00     0.196 HD
ENDBRANCH   1  17
TORSDOF 4
ENDMDL
MODEL 5
REMARK VINA RESULT:      -6.1      1.980      2.220
REMARK  4 active torsions:
REMARK  status: ('A' for Active; 'I' for Inactive)
REMARK    1  A    between atoms: C_4  and  N_5 
REMARK       I    between atoms: N_5  and  C_6 
REMARK       I    between atoms: C_6  and  N_8 
REMARK    2  A    between atoms: N_8  and  C_9 
REMARK    3  A    between atoms: C_10  and  C_11 
REMARK    4  A    between atoms: C_11  and  O_12 
ROOT
HETATM    1  N   UNL     1     -40.411 -49.686  10.993  1.00  0.00    -0.293 N 
HETATM    2  C   UNL     1     -40.817 -50.794  11.668  1.00  0.00     0.322 C 
HETATM    3  O   UNL     1     -39.987 -51.654  11.957  1.00  0.00    -0.247 OA
HETATM    4  N   UNL     1     -42.122 -50.845  12.072  1.00  0.00    -0.337 N 
HETATM    5  H   UNL     1     -39.412 -49.655  10.839  1.00  0.00     0.172 HD
HETATM    6  H   UNL     1     -42.636 -49.984  11.905  1.00  0.00     0.164 HD
ENDROOT
BRANCH   4   7
HETATM    7  C   UNL     1     -42.544 -51.662  13.185  1.00  0.00     0.096 C 
HETATM    8  C   UNL     1     -42.997 -53.114  12.863  1.00  0.00     0.036 C 
HETATM    9  C   UNL     1     -44.297 -53.247  13.723  1.00  0.00    -0.006 C 
HETATM   10  C   UNL     1     -45.449 -52.572  12.968  1.00  0.00     0.005 C 
HETATM   11  C   UNL     1     -44.088 -52.241  14.859  1.00  0.00     0.012 C 
HETATM   12  C   UNL     1     -45.026 -51.096  12.979  1.00  0.00     0.007 C 
HETATM   13  C   UNL     1     -43.787 -51.087  13.904  1.00  0.00     0.009 C 
BRANCH   8  14
HETATM   14  C   UNL     1     -41.945 -54.157  13.238  1.00  0.00     0.171 C 
BRANCH  14  15
HETATM   15  O   UNL     1     -41.005 -54.327  12.179  1.00  0.00    -0.400 OA
HETATM   16  H   UNL     1     -41.304 -53.793  11.426  1.00  0.00     0.209 HD
ENDBRANCH  14  15
ENDBRANCH   8  14
ENDBRANCH   4   7
BRANCH   1  17
HETATM   17  C   UNL     1     -41.150 -48.583  10.625  1.00  0.00     0.132 A 
HETATM   18  C   UNL     1     -41.141 -47.345  11.311  1.00  0.00     0.084 A 
HETATM   19  C   UNL     1     -42.037 -46.565  10.626  1.00  0.00     0.076 A 
HETATM   20  C   UNL     1     -42.563 -45.198  10.788  1.00  0.00     0.079 C 
HETATM   21  O   UNL     1     -42.531 -47.272   9.577  1.00  0.00    -0.241 OA
HETATM   22  N   UNL     1     -41.998 -48.543   9.592  1.00  0.00    -0.245 N 
ATOM     23  HN  UNL     1     -42.209 -49.302   8.944  1.00  0.00     0.196 HD
ENDBRANCH   1  17
TORSDOF 4
ENDMDL
MODEL 6
REMARK VINA RESULT:      -6.1      4.488      6.637
REMARK  4 active torsions:
REMARK  status: ('A' for Active; 'I' for Inactive)
REMARK    1  A    between atoms: C_4  and  N_5 
REMARK       I    between atoms: N_5  and  C_6 
REMARK       I    between atoms: C_6  and  N_8 
REMARK    2  A    between atoms: N_8  and  C_9 
REMARK    3  A    between atoms: C_10  and  C_11 
REMARK    4  A    between atoms: C_11  and  O_12 
ROOT
HETATM    1  N   UNL     1     -41.437 -54.638  14.793  1.00  0.00    -0.293 N 
HETATM    2  C   UNL     1     -42.792 -54.567  14.875  1.00  0.00     0.322 C 
HETATM    3  O   UNL     1     -43.401 -55.463  15.456  1.00  0.00    -0.247 OA
HETATM    4  N   UNL     1     -43.397 -53.444  14.385  1.00  0.00    -0.337 N 
HETATM    5  H   UNL     1     -41.046 -55.429  15.287  1.00  0.00     0.172 HD
HETATM    6  H   UNL     1     -42.745 -52.722  14.092  1.00  0.00     0.164 HD
ENDROOT
BRANCH   4   7
HETATM    7  C   UNL     1     -44.696 -53.014  14.848  1.00  0.00     0.096 C 
HETATM    8  C   UNL     1     -45.933 -53.534  14.064  1.00  0.00     0.036 C 
HETATM    9  C   UNL     1     -46.797 -52.238  13.923  1.00  0.00    -0.006 C 
HETATM   10  C   UNL     1     -46.238 -51.406  12.763  1.00  0.00     0.005 C 
HETATM   11  C   UNL     1     -46.360 -51.376  15.112  1.00  0.00     0.012 C 
HETATM   12  C   UNL     1     -44.857 -50.995  13.291  1.00  0.00     0.007 C 
HETATM   13  C   UNL     1     -44.877 -51.480  14.759  1.00  0.00     0.009 C 
BRANCH   8  14
HETATM   14  C   UNL     1     -46.674 -54.647  14.803  1.00  0.00     0.171 C 
BRANCH  14  15
HETATM   15  O   UNL     1     -46.166 -54.797  16.128  1.00  0.00    -0.400 OA
HETATM   16  H   UNL     1     -46.724 -55.441  16.590  1.00  0.00     0.209 HD
ENDBRANCH  14  15
ENDBRANCH   8  14
ENDBRANCH   4   7
BRANCH   1  17
HETATM   17  C   UNL     1     -40.559 -53.726  14.248  1.00  0.00     0.132 A 
HETATM   18  C   UNL     1     -39.794 -52.802  14.999  1.00  0.00     0.084 A 
HETATM   19  C   UNL     1     -39.102 -52.082  14.058  1.00  0.00     0.076 A 
HETATM   20  C   UNL     1     -38.162 -50.948  14.100  1.00  0.00     0.079 C 
HETATM   21  O   UNL     1     -39.404 -52.559  12.823  1.00  0.00    -0.241 OA
HETATM   22  N   UNL     1     -40.336 -53.568  12.939  1.00  0.00    -0.245 N 
ATOM     23  HN  UNL     1     -40.770 -54.090  12.177  1.00  0.00     0.196 HD
ENDBRANCH   1  17
TORSDOF 4
ENDMDL
MODEL 7
REMARK VINA RESULT:      -6.1      2.673      5.087
REMARK  4 active torsions:
REMARK  status: ('A' for Active; 'I' for Inactive)
REMARK    1  A    between atoms: C_4  and  N_5 
REMARK       I    between atoms: N_5  and  C_6 
REMARK       I    between atoms: C_6  and  N_8 
REMARK    2  A    between atoms: N_8  and  C_9 
REMARK    3  A    between atoms: C_10  and  C_11 
REMARK    4  A    between atoms: C_11  and  O_12 
ROOT
HETATM    1  N   UNL     1     -43.203 -52.507  12.489  1.00  0.00    -0.293 N 
HETATM    2  C   UNL     1     -42.184 -51.660  12.184  1.00  0.00     0.322 C 
HETATM    3  O   UNL     1     -41.142 -52.122  11.722  1.00  0.00    -0.247 OA
HETATM    4  N   UNL     1     -42.413 -50.320  12.323  1.00  0.00    -0.337 N 
HETATM    5  H   UNL     1     -43.012 -53.469  12.242  1.00  0.00     0.172 HD
HETATM    6  H   UNL     1     -43.376 -50.091  12.552  1.00  0.00     0.164 HD
ENDROOT
BRANCH   4   7
HETATM    7  C   UNL     1     -41.657 -49.336  11.583  1.00  0.00     0.096 C 
HETATM    8  C   UNL     1     -40.474 -48.653  12.324  1.00  0.00     0.036 C 
HETATM    9  C   UNL     1     -40.671 -47.151  11.936  1.00  0.00    -0.006 C 
HETATM   10  C   UNL     1     -41.760 -46.557  12.838  1.00  0.00     0.005 C 
HETATM   11  C   UNL     1     -41.425 -47.213  10.604  1.00  0.00     0.012 C 
HETATM   12  C   UNL     1     -43.010 -47.326  12.392  1.00  0.00     0.007 C 
HETATM   13  C   UNL     1     -42.519 -48.123  11.161  1.00  0.00     0.009 C 
BRANCH   8  14
HETATM   14  C   UNL     1     -39.112 -49.191  11.882  1.00  0.00     0.171 C 
BRANCH  14  15
HETATM   15  O   UNL     1     -39.250 -50.028  10.735  1.00  0.00    -0.400 OA
HETATM   16  H   UNL     1     -38.799 -49.594   9.994  1.00  0.00     0.209 HD
ENDBRANCH  14  15
ENDBRANCH   8  14
ENDBRANCH   4   7
BRANCH   1  17
HETATM   17  C   UNL     1     -44.464 -52.204  12.954  1.00  0.00     0.132 A 
HETATM   18  C   UNL     1     -44.768 -51.886  14.299  1.00  0.00     0.084 A 
HETATM   19  C   UNL     1     -46.127 -51.697  14.310  1.00  0.00     0.076 A 
HETATM   20  C   UNL     1     -47.126 -51.387  15.348  1.00  0.00     0.079 C 
HETATM   21  O   UNL     1     -46.608 -51.857  13.050  1.00  0.00    -0.241 OA
HETATM   22  N   UNL     1     -45.573 -52.203  12.207  1.00  0.00    -0.245 N 
ATOM     23  HN  UNL     1     -45.641 -52.415  11.211  1.00  0.00     0.196 HD
ENDBRANCH   1  17
TORSDOF 4
ENDMDL
MODEL 8
REMARK VINA RESULT:      -5.9      3.636      5.684
REMARK  4 active torsions:
REMARK  status: ('A' for Active; 'I' for Inactive)
REMARK    1  A    between atoms: C_4  and  N_5 
REMARK       I    between atoms: N_5  and  C_6 
REMARK       I    between atoms: C_6  and  N_8 
REMARK    2  A    between atoms: N_8  and  C_9 
REMARK    3  A    between atoms: C_10  and  C_11 
REMARK    4  A    between atoms: C_11  and  O_12 
ROOT
HETATM    1  N   UNL     1     -41.660 -54.206  13.210  1.00  0.00    -0.293 N 
HETATM    2  C   UNL     1     -40.817 -53.147  13.083  1.00  0.00     0.322 C 
HETATM    3  O   UNL     1     -39.609 -53.355  12.991  1.00  0.00    -0.247 OA
HETATM    4  N   UNL     1     -41.375 -51.905  12.970  1.00  0.00    -0.337 N 
HETATM    5  H   UNL     1     -41.190 -55.101  13.158  1.00  0.00     0.172 HD
HETATM    6  H   UNL     1     -42.389 -51.917  12.893  1.00  0.00     0.164 HD
ENDROOT
BRANCH   4   7
HETATM    7  C   UNL     1     -40.677 -50.810  12.338  1.00  0.00     0.096 C 
HETATM    8  C   UNL     1     -39.739 -49.958  13.238  1.00  0.00     0.036 C 
HETATM    9  C   UNL     1     -40.105 -48.501  12.803  1.00  0.00    -0.006 C 
HETATM   10  C   UNL     1     -41.396 -48.091  13.522  1.00  0.00     0.005 C 
HETATM   11  C   UNL     1     -40.630 -48.668  11.374  1.00  0.00     0.012 C 
HETATM   12  C   UNL     1     -42.430 -49.040  12.904  1.00  0.00     0.007 C 
HETATM   13  C   UNL     1     -41.642 -49.740  11.773  1.00  0.00     0.009 C 
BRANCH   8  14
HETATM   14  C   UNL     1     -38.260 -50.275  13.015  1.00  0.00     0.171 C 
BRANCH  14  15
HETATM   15  O   UNL     1     -38.094 -51.130  11.885  1.00  0.00    -0.400 OA
HETATM   16  H   UNL     1     -38.952 -51.204  11.438  1.00  0.00     0.209 HD
ENDBRANCH  14  15
ENDBRANCH   8  14
ENDBRANCH   4   7
BRANCH   1  17
HETATM   17  C   UNL     1     -43.037 -54.209  13.266  1.00  0.00     0.132 A 
HETATM   18  C   UNL     1     -43.791 -54.504  14.427  1.00  0.00     0.084 A 
HETATM   19  C   UNL     1     -45.098 -54.425  14.017  1.00  0.00     0.076 A 
HETATM   20  C   UNL     1     -46.405 -54.644  14.661  1.00  0.00     0.079 C 
HETATM   21  O   UNL     1     -45.132 -54.073  12.706  1.00  0.00    -0.241 OA
HETATM   22  N   UNL     1     -43.844 -53.966  12.228  1.00  0.00    -0.245 N 
ATOM     23  HN  UNL     1     -43.562 -53.745  11.273  1.00  0.00     0.196 HD
ENDBRANCH   1  17
TORSDOF 4
ENDMDL
MODEL 9
REMARK VINA RESULT:      -5.7      3.285      6.539
REMARK  4 active torsions:
REMARK  status: ('A' for Active; 'I' for Inactive)
REMARK    1  A    between atoms: C_4  and  N_5 
REMARK       I    between atoms: N_5  and  C_6 
REMARK       I    between atoms: C_6  and  N_8 
REMARK    2  A    between atoms: N_8  and  C_9 
REMARK    3  A    between atoms: C_10  and  C_11 
REMARK    4  A    between atoms: C_11  and  O_12 
ROOT
HETATM    1  N   UNL     1     -41.074 -49.959  11.008  1.00  0.00    -0.293 N 
HETATM    2  C   UNL     1     -41.177 -48.610  10.874  1.00  0.00     0.322 C 
HETATM    3  O   UNL     1     -42.002 -48.151  10.086  1.00  0.00    -0.247 OA
HETATM    4  N   UNL     1     -40.415 -47.833  11.699  1.00  0.00    -0.337 N 
HETATM    5  H   UNL     1     -41.755 -50.470  10.462  1.00  0.00     0.172 HD
HETATM    6  H   UNL     1     -39.913 -48.359  12.409  1.00  0.00     0.164 HD
ENDROOT
BRANCH   4   7
HETATM    7  C   UNL     1     -40.782 -46.473  12.020  1.00  0.00     0.096 C 
HETATM    8  C   UNL     1     -39.726 -45.370  11.731  1.00  0.00     0.036 C 
HETATM    9  C   UNL     1     -39.792 -44.507  13.034  1.00  0.00    -0.006 C 
HETATM   10  C   UNL     1     -38.967 -45.207  14.121  1.00  0.00     0.005 C 
HETATM   11  C   UNL     1     -41.208 -44.755  13.565  1.00  0.00     0.012 C 
HETATM   12  C   UNL     1     -39.771 -46.491  14.366  1.00  0.00     0.007 C 
HETATM   13  C   UNL     1     -41.054 -46.274  13.530  1.00  0.00     0.009 C 
BRANCH   8  14
HETATM   14  C   UNL     1     -40.052 -44.555  10.480  1.00  0.00     0.171 C 
BRANCH  14  15
HETATM   15  O   UNL     1     -40.933 -45.280   9.623  1.00  0.00    -0.400 OA
HETATM   16  H   UNL     1     -41.219 -46.077  10.094  1.00  0.00     0.209 HD
ENDBRANCH  14  15
ENDBRANCH   8  14
ENDBRANCH   4   7
BRANCH   1  17
HETATM   17  C   UNL     1     -40.270 -50.680  11.865  1.00  0.00     0.132 A 
HETATM   18  C   UNL     1     -40.727 -51.329  13.037  1.00  0.00     0.084 A 
HETATM   19  C   UNL     1     -39.597 -51.880  13.588  1.00  0.00     0.076 A 
HETATM   20  C   UNL     1     -39.305 -52.649  14.810  1.00  0.00     0.079 C 
HETATM   21  O   UNL     1     -38.535 -51.609  12.787  1.00  0.00    -0.241 OA
HETATM   22  N   UNL     1     -38.949 -50.835  11.724  1.00  0.00    -0.245 N 
ATOM     23  HN  UNL     1     -38.365 -50.456  10.979  1.00  0.00     0.196 HD
ENDBRANCH   1  17
TORSDOF 4
ENDMDL
