MODEL 1
REMARK VINA RESULT:      -5.6      0.000      0.000
REMARK  7 active torsions:
REMARK  status: ('A' for Active; 'I' for Inactive)
REMARK    1  A    between atoms: C_2  and  C_3 
REMARK    2  A    between atoms: C_3  and  C_4 
REMARK    3  A    between atoms: C_4  and  N_6 
REMARK    4  A    between atoms: C_4  and  C_16 
REMARK       I    between atoms: N_6  and  C_7 
REMARK    5  A    between atoms: C_7  and  C_9 
REMARK    6  A    between atoms: C_9  and  N_10 
REMARK    7  A    between atoms: C_16  and  O_18 
ROOT
HETATM    1  N   UNL     1     -42.054 -48.118   9.949  1.00  0.00    -0.341 N 
HETATM    2  C   UNL     1     -42.818 -47.019   9.564  1.00  0.00     0.238 C 
HETATM    3  O   UNL     1     -43.035 -46.065  10.304  1.00  0.00    -0.272 OA
HETATM    4  H   UNL     1     -41.595 -48.601   9.184  1.00  0.00     0.163 HD
ENDROOT
BRANCH   1   5
HETATM    5  C   UNL     1     -41.322 -48.117  11.257  1.00  0.00     0.114 C 
HETATM    6  C   UNL     1     -42.284 -48.099  12.455  1.00  0.00     0.050 C 
BRANCH   5   7
HETATM    7  C   UNL     1     -40.416 -46.846  11.283  1.00  0.00     0.041 C 
BRANCH   7   8
HETATM    8  C   UNL     1     -40.456 -46.040  12.588  1.00  0.00    -0.002 C 
HETATM    9  C   UNL     1     -39.231 -46.299  13.454  1.00  0.00     0.005 C 
ENDBRANCH   7   8
ENDBRANCH   5   7
BRANCH   5  10
HETATM   10  C   UNL     1     -40.377 -49.353  11.303  1.00  0.00     0.169 C 
HETATM   11  O   UNL     1     -39.546 -49.580  12.169  1.00  0.00    -0.648 OA
BRANCH  10  12
HETATM   12  O   UNL     1     -40.436 -50.092  10.158  1.00  0.00    -0.775 OA
HETATM   13  H   UNL     1     -40.675 -51.018  10.363  1.00  0.00     0.167 HD
ENDBRANCH  10  12
ENDBRANCH   5  10
ENDBRANCH   1   5
BRANCH   2  14
HETATM   14  C   UNL     1     -43.477 -47.137   8.205  1.00  0.00     0.250 C 
BRANCH  14  15
HETATM   15  N   UNL     1     -44.823 -47.679   8.285  1.00  0.00    -0.295 N 
HETATM   16  C   UNL     1     -45.686 -47.586   9.340  1.00  0.00     0.112 A 
HETATM   17  C   UNL     1     -46.752 -48.401   9.034  1.00  0.00     0.037 A 
HETATM   18  C   UNL     1     -46.435 -48.942   7.776  1.00  0.00     0.108 A 
HETATM   19  N   UNL     1     -45.259 -48.506   7.310  1.00  0.00    -0.310 N 
ATOM     20  HN  UNL     1     -44.801 -48.742   6.430  1.00  0.00     0.186 HD
ENDBRANCH  14  15
ENDBRANCH   2  14
TORSDOF 7
ENDMDL
MODEL 2
REMARK VINA RESULT:      -5.6      2.498      5.504
REMARK  7 active torsions:
REMARK  status: ('A' for Active; 'I' for Inactive)
REMARK    1  A    between atoms: C_2  and  C_3 
REMARK    2  A    between atoms: C_3  and  C_4 
REMARK    3  A    between atoms: C_4  and  N_6 
REMARK    4  A    between atoms: C_4  and  C_16 
REMARK       I    between atoms: N_6  and  C_7 
REMARK    5  A    between atoms: C_7  and  C_9 
REMARK    6  A    between atoms: C_9  and  N_10 
REMARK    7  A    between atoms: C_16  and  O_18 
ROOT
HETATM    1  N   UNL     1     -42.011 -48.444   9.701  1.00  0.00    -0.341 N 
HETATM    2  C   UNL     1     -41.507 -48.530  10.996  1.00  0.00     0.238 C 
HETATM    3  O   UNL     1     -41.734 -47.686  11.858  1.00  0.00    -0.272 OA
HETATM    4  H   UNL     1     -42.132 -49.338   9.235  1.00  0.00     0.163 HD
ENDROOT
BRANCH   1   5
HETATM    5  C   UNL     1     -42.995 -47.375   9.334  1.00  0.00     0.114 C 
HETATM    6  C   UNL     1     -42.534 -45.985   9.797  1.00  0.00     0.050 C 
BRANCH   5   7
HETATM    7  C   UNL     1     -44.352 -47.740  10.014  1.00  0.00     0.041 C 
BRANCH   7   8
HETATM    8  C   UNL     1     -45.597 -47.122   9.363  1.00  0.00    -0.002 C 
HETATM    9  C   UNL     1     -46.619 -48.179   8.974  1.00  0.00     0.005 C 
ENDBRANCH   7   8
ENDBRANCH   5   7
BRANCH   5  10
HETATM   10  C   UNL     1     -43.228 -47.416   7.796  1.00  0.00     0.169 C 
HETATM   11  O   UNL     1     -43.603 -48.390   7.160  1.00  0.00    -0.648 OA
BRANCH  10  12
HETATM   12  O   UNL     1     -42.790 -46.283   7.175  1.00  0.00    -0.775 OA
HETATM   13  H   UNL     1     -42.217 -46.510   6.418  1.00  0.00     0.167 HD
ENDBRANCH  10  12
ENDBRANCH   5  10
ENDBRANCH   1   5
BRANCH   2  14
HETATM   14  C   UNL     1     -40.546 -49.676  11.239  1.00  0.00     0.250 C 
BRANCH  14  15
HETATM   15  N   UNL     1     -41.214 -50.864  11.743  1.00  0.00    -0.295 N 
HETATM   16  C   UNL     1     -42.271 -50.909  12.607  1.00  0.00     0.112 A 
HETATM   17  C   UNL     1     -42.436 -52.234  12.940  1.00  0.00     0.037 A 
HETATM   18  C   UNL     1     -41.427 -52.907  12.228  1.00  0.00     0.108 A 
HETATM   19  N   UNL     1     -40.676 -52.078  11.494  1.00  0.00    -0.310 N 
ATOM     20  HN  UNL     1     -39.887 -52.307  10.890  1.00  0.00     0.186 HD
ENDBRANCH  14  15
ENDBRANCH   2  14
TORSDOF 7
ENDMDL
MODEL 3
REMARK VINA RESULT:      -5.4      1.405      2.119
REMARK  7 active torsions:
REMARK  status: ('A' for Active; 'I' for Inactive)
REMARK    1  A    between atoms: C_2  and  C_3 
REMARK    2  A    between atoms: C_3  and  C_4 
REMARK    3  A    between atoms: C_4  and  N_6 
REMARK    4  A    between atoms: C_4  and  C_16 
REMARK       I    between atoms: N_6  and  C_7 
REMARK    5  A    between atoms: C_7  and  C_9 
REMARK    6  A    between atoms: C_9  and  N_10 
REMARK    7  A    between atoms: C_16  and  O_18 
ROOT
HETATM    1  N   UNL     1     -42.102 -48.349   9.844  1.00  0.00    -0.341 N 
HETATM    2  C   UNL     1     -42.813 -47.201   9.503  1.00  0.00     0.238 C 
HETATM    3  O   UNL     1     -42.951 -46.251  10.265  1.00  0.00    -0.272 OA
HETATM    4  H   UNL     1     -41.696 -48.844   9.055  1.00  0.00     0.163 HD
ENDROOT
BRANCH   1   5
HETATM    5  C   UNL     1     -41.332 -48.416  11.128  1.00  0.00     0.114 C 
HETATM    6  C   UNL     1     -40.453 -47.174  11.338  1.00  0.00     0.050 C 
BRANCH   5   7
HETATM    7  C   UNL     1     -40.440 -49.696  11.068  1.00  0.00     0.041 C 
BRANCH   7   8
HETATM    8  C   UNL     1     -39.325 -49.766  12.121  1.00  0.00    -0.002 C 
HETATM    9  C   UNL     1     -37.950 -49.911  11.485  1.00  0.00     0.005 C 
ENDBRANCH   7   8
ENDBRANCH   5   7
BRANCH   5  10
HETATM   10  C   UNL     1     -42.334 -48.612  12.302  1.00  0.00     0.169 C 
HETATM   11  O   UNL     1     -42.365 -47.947  13.327  1.00  0.00    -0.648 OA
BRANCH  10  12
HETATM   12  O   UNL     1     -43.083 -49.743  12.162  1.00  0.00    -0.775 OA
HETATM   13  H   UNL     1     -43.802 -49.759  12.823  1.00  0.00     0.167 HD
ENDBRANCH  10  12
ENDBRANCH   5  10
ENDBRANCH   1   5
BRANCH   2  14
HETATM   14  C   UNL     1     -43.519 -47.255   8.163  1.00  0.00     0.250 C 
BRANCH  14  15
HETATM   15  N   UNL     1     -44.872 -47.775   8.269  1.00  0.00    -0.295 N 
HETATM   16  C   UNL     1     -45.700 -47.699   9.352  1.00  0.00     0.112 A 
HETATM   17  C   UNL     1     -46.791 -48.485   9.054  1.00  0.00     0.037 A 
HETATM   18  C   UNL     1     -46.523 -48.992   7.771  1.00  0.00     0.108 A 
HETATM   19  N   UNL     1     -45.353 -48.563   7.283  1.00  0.00    -0.310 N 
ATOM     20  HN  UNL     1     -44.927 -48.779   6.382  1.00  0.00     0.186 HD
ENDBRANCH  14  15
ENDBRANCH   2  14
TORSDOF 7
ENDMDL
MODEL 4
REMARK VINA RESULT:      -5.4      2.355      6.009
REMARK  7 active torsions:
REMARK  status: ('A' for Active; 'I' for Inactive)
REMARK    1  A    between atoms: C_2  and  C_3 
REMARK    2  A    between atoms: C_3  and  C_4 
REMARK    3  A    between atoms: C_4  and  N_6 
REMARK    4  A    between atoms: C_4  and  C_16 
REMARK       I    between atoms: N_6  and  C_7 
REMARK    5  A    between atoms: C_7  and  C_9 
REMARK    6  A    between atoms: C_9  and  N_10 
REMARK    7  A    between atoms: C_16  and  O_18 
ROOT
HETATM    1  N   UNL     1     -41.928 -48.876  10.603  1.00  0.00    -0.341 N 
HETATM    2  C   UNL     1     -41.483 -49.298  11.854  1.00  0.00     0.238 C 
HETATM    3  O   UNL     1     -41.470 -48.567  12.839  1.00  0.00    -0.272 OA
HETATM    4  H   UNL     1     -42.293 -49.617  10.013  1.00  0.00     0.163 HD
ENDROOT
BRANCH   1   5
HETATM    5  C   UNL     1     -42.564 -47.529  10.435  1.00  0.00     0.114 C 
HETATM    6  C   UNL     1     -43.535 -47.204  11.580  1.00  0.00     0.050 C 
BRANCH   5   7
HETATM    7  C   UNL     1     -43.331 -47.544   9.075  1.00  0.00     0.041 C 
BRANCH   7   8
HETATM    8  C   UNL     1     -44.728 -46.909   9.104  1.00  0.00    -0.002 C 
HETATM    9  C   UNL     1     -45.816 -47.911   8.747  1.00  0.00     0.005 C 
ENDBRANCH   7   8
ENDBRANCH   5   7
BRANCH   5  10
HETATM   10  C   UNL     1     -41.443 -46.457  10.315  1.00  0.00     0.169 C 
HETATM   11  O   UNL     1     -41.600 -45.303   9.945  1.00  0.00    -0.648 OA
BRANCH  10  12
HETATM   12  O   UNL     1     -40.199 -46.987  10.495  1.00  0.00    -0.775 OA
HETATM   13  H   UNL     1     -40.255 -47.956  10.604  1.00  0.00     0.167 HD
ENDBRANCH  10  12
ENDBRANCH   5  10
ENDBRANCH   1   5
BRANCH   2  14
HETATM   14  C   UNL     1     -40.890 -50.692  11.889  1.00  0.00     0.250 C 
BRANCH  14  15
HETATM   15  N   UNL     1     -39.437 -50.677  11.938  1.00  0.00    -0.295 N 
HETATM   16  C   UNL     1     -38.643 -51.155  12.941  1.00  0.00     0.112 A 
HETATM   17  C   UNL     1     -37.362 -50.756  12.636  1.00  0.00     0.037 A 
HETATM   18  C   UNL     1     -37.489 -50.040  11.432  1.00  0.00     0.108 A 
HETATM   19  N   UNL     1     -38.754 -49.988  10.998  1.00  0.00    -0.310 N 
ATOM     20  HN  UNL     1     -39.115 -49.536  10.159  1.00  0.00     0.186 HD
ENDBRANCH  14  15
ENDBRANCH   2  14
TORSDOF 7
ENDMDL
MODEL 5
REMARK VINA RESULT:      -5.3      5.486      7.536
REMARK  7 active torsions:
REMARK  status: ('A' for Active; 'I' for Inactive)
REMARK    1  A    between atoms: C_2  and  C_3 
REMARK    2  A    between atoms: C_3  and  C_4 
REMARK    3  A    between atoms: C_4  and  N_6 
REMARK    4  A    between atoms: C_4  and  C_16 
REMARK       I    between atoms: N_6  and  C_7 
REMARK    5  A    between atoms: C_7  and  C_9 
REMARK    6  A    between atoms: C_9  and  N_10 
REMARK    7  A    between atoms: C_16  and  O_18 
ROOT
HETATM    1  N   UNL     1     -43.759 -53.482  13.087  1.00  0.00    -0.341 N 
HETATM    2  C   UNL     1     -42.910 -52.418  12.792  1.00  0.00     0.238 C 
HETATM    3  O   UNL     1     -43.275 -51.248  12.814  1.00  0.00    -0.272 OA
HETATM    4  H   UNL     1     -43.292 -54.307  13.451  1.00  0.00     0.163 HD
ENDROOT
BRANCH   1   5
HETATM    5  C   UNL     1     -45.145 -53.233  13.601  1.00  0.00     0.114 C 
HETATM    6  C   UNL     1     -46.032 -52.544  12.553  1.00  0.00     0.050 C 
BRANCH   5   7
HETATM    7  C   UNL     1     -45.015 -52.328  14.866  1.00  0.00     0.041 C 
BRANCH   7   8
HETATM    8  C   UNL     1     -46.033 -51.183  14.959  1.00  0.00    -0.002 C 
HETATM    9  C   UNL     1     -47.087 -51.444  16.025  1.00  0.00     0.005 C 
ENDBRANCH   7   8
ENDBRANCH   5   7
BRANCH   5  10
HETATM   10  C   UNL     1     -45.757 -54.586  14.067  1.00  0.00     0.169 C 
HETATM   11  O   UNL     1     -45.190 -55.668  14.041  1.00  0.00    -0.648 OA
BRANCH  10  12
HETATM   12  O   UNL     1     -47.088 -54.483  14.347  1.00  0.00    -0.775 OA
HETATM   13  H   UNL     1     -47.300 -53.583  14.664  1.00  0.00     0.167 HD
ENDBRANCH  10  12
ENDBRANCH   5  10
ENDBRANCH   1   5
BRANCH   2  14
HETATM   14  C   UNL     1     -41.528 -52.811  12.312  1.00  0.00     0.250 C 
BRANCH  14  15
HETATM   15  N   UNL     1     -40.639 -51.669  12.180  1.00  0.00    -0.295 N 
HETATM   16  C   UNL     1     -39.736 -51.218  13.100  1.00  0.00     0.112 A 
HETATM   17  C   UNL     1     -39.269 -50.016  12.618  1.00  0.00     0.037 A 
HETATM   18  C   UNL     1     -39.953 -49.830  11.404  1.00  0.00     0.108 A 
HETATM   19  N   UNL     1     -40.792 -50.835  11.128  1.00  0.00    -0.310 N 
ATOM     20  HN  UNL     1     -41.401 -50.945  10.318  1.00  0.00     0.186 HD
ENDBRANCH  14  15
ENDBRANCH   2  14
TORSDOF 7
ENDMDL
MODEL 6
REMARK VINA RESULT:      -5.2      4.832      5.840
REMARK  7 active torsions:
REMARK  status: ('A' for Active; 'I' for Inactive)
REMARK    1  A    between atoms: C_2  and  C_3 
REMARK    2  A    between atoms: C_3  and  C_4 
REMARK    3  A    between atoms: C_4  and  N_6 
REMARK    4  A    between atoms: C_4  and  C_16 
REMARK       I    between atoms: N_6  and  C_7 
REMARK    5  A    between atoms: C_7  and  C_9 
REMARK    6  A    between atoms: C_9  and  N_10 
REMARK    7  A    between atoms: C_16  and  O_18 
ROOT
HETATM    1  N   UNL     1     -42.674 -51.739  12.325  1.00  0.00    -0.341 N 
HETATM    2  C   UNL     1     -43.348 -52.763  12.986  1.00  0.00     0.238 C 
HETATM    3  O   UNL     1     -42.796 -53.525  13.773  1.00  0.00    -0.272 OA
HETATM    4  H   UNL     1     -43.257 -50.949  12.066  1.00  0.00     0.163 HD
ENDROOT
BRANCH   1   5
HETATM    5  C   UNL     1     -41.249 -51.420  12.664  1.00  0.00     0.114 C 
HETATM    6  C   UNL     1     -41.115 -50.804  14.065  1.00  0.00     0.050 C 
BRANCH   5   7
HETATM    7  C   UNL     1     -40.729 -50.415  11.589  1.00  0.00     0.041 C 
BRANCH   7   8
HETATM    8  C   UNL     1     -39.643 -49.444  12.072  1.00  0.00    -0.002 C 
HETATM    9  C   UNL     1     -38.262 -49.841  11.571  1.00  0.00     0.005 C 
ENDBRANCH   7   8
ENDBRANCH   5   7
BRANCH   5  10
HETATM   10  C   UNL     1     -40.400 -52.717  12.527  1.00  0.00     0.169 C 
HETATM   11  O   UNL     1     -39.505 -53.062  13.284  1.00  0.00    -0.648 OA
BRANCH  10  12
HETATM   12  O   UNL     1     -40.629 -53.364  11.348  1.00  0.00    -0.775 OA
HETATM   13  H   UNL     1     -41.360 -54.005  11.449  1.00  0.00     0.167 HD
ENDBRANCH  10  12
ENDBRANCH   5  10
ENDBRANCH   1   5
BRANCH   2  14
HETATM   14  C   UNL     1     -44.792 -52.958  12.570  1.00  0.00     0.250 C 
BRANCH  14  15
HETATM   15  N   UNL     1     -45.727 -52.617  13.629  1.00  0.00    -0.295 N 
HETATM   16  C   UNL     1     -46.401 -51.439  13.782  1.00  0.00     0.112 A 
HETATM   17  C   UNL     1     -47.013 -51.508  15.013  1.00  0.00     0.037 A 
HETATM   18  C   UNL     1     -46.643 -52.765  15.524  1.00  0.00     0.108 A 
HETATM   19  N   UNL     1     -45.858 -53.449  14.684  1.00  0.00    -0.310 N 
ATOM     20  HN  UNL     1     -45.455 -54.377  14.811  1.00  0.00     0.186 HD
ENDBRANCH  14  15
ENDBRANCH   2  14
TORSDOF 7
ENDMDL
MODEL 7
REMARK VINA RESULT:      -5.2      5.359      7.858
REMARK  7 active torsions:
REMARK  status: ('A' for Active; 'I' for Inactive)
REMARK    1  A    between atoms: C_2  and  C_3 
REMARK    2  A    between atoms: C_3  and  C_4 
REMARK    3  A    between atoms: C_4  and  N_6 
REMARK    4  A    between atoms: C_4  and  C_16 
REMARK       I    between atoms: N_6  and  C_7 
REMARK    5  A    between atoms: C_7  and  C_9 
REMARK    6  A    between atoms: C_9  and  N_10 
REMARK    7  A    between atoms: C_16  and  O_18 
ROOT
HETATM    1  N   UNL     1     -43.408 -52.780  14.146  1.00  0.00    -0.341 N 
HETATM    2  C   UNL     1     -42.429 -52.836  13.157  1.00  0.00     0.238 C 
HETATM    3  O   UNL     1     -42.663 -52.616  11.973  1.00  0.00    -0.272 OA
HETATM    4  H   UNL     1     -43.059 -52.552  15.072  1.00  0.00     0.163 HD
ENDROOT
BRANCH   1   5
HETATM    5  C   UNL     1     -44.789 -52.294  13.826  1.00  0.00     0.114 C 
HETATM    6  C   UNL     1     -44.774 -50.897  13.189  1.00  0.00     0.050 C 
BRANCH   5   7
HETATM    7  C   UNL     1     -45.591 -52.261  15.165  1.00  0.00     0.041 C 
BRANCH   7   8
HETATM    8  C   UNL     1     -46.909 -51.475  15.119  1.00  0.00    -0.002 C 
HETATM    9  C   UNL     1     -47.558 -51.372  16.491  1.00  0.00     0.005 C 
ENDBRANCH   7   8
ENDBRANCH   5   7
BRANCH   5  10
HETATM   10  C   UNL     1     -45.484 -53.336  12.902  1.00  0.00     0.169 C 
HETATM   11  O   UNL     1     -45.363 -54.549  12.983  1.00  0.00    -0.648 OA
BRANCH  10  12
HETATM   12  O   UNL     1     -46.119 -52.749  11.846  1.00  0.00    -0.775 OA
HETATM   13  H   UNL     1     -45.569 -52.813  11.041  1.00  0.00     0.167 HD
ENDBRANCH  10  12
ENDBRANCH   5  10
ENDBRANCH   1   5
BRANCH   2  14
HETATM   14  C   UNL     1     -41.069 -53.314  13.622  1.00  0.00     0.250 C 
BRANCH  14  15
HETATM   15  N   UNL     1     -40.017 -52.348  13.354  1.00  0.00    -0.295 N 
HETATM   16  C   UNL     1     -39.069 -51.900  14.228  1.00  0.00     0.112 A 
HETATM   17  C   UNL     1     -38.419 -50.867  13.592  1.00  0.00     0.037 A 
HETATM   18  C   UNL     1     -39.052 -50.768  12.340  1.00  0.00     0.108 A 
HETATM   19  N   UNL     1     -40.029 -51.669  12.186  1.00  0.00    -0.310 N 
ATOM     20  HN  UNL     1     -40.637 -51.810  11.380  1.00  0.00     0.186 HD
ENDBRANCH  14  15
ENDBRANCH   2  14
TORSDOF 7
ENDMDL
MODEL 8
REMARK VINA RESULT:      -5.1      2.192      3.085
REMARK  7 active torsions:
REMARK  status: ('A' for Active; 'I' for Inactive)
REMARK    1  A    between atoms: C_2  and  C_3 
REMARK    2  A    between atoms: C_3  and  C_4 
REMARK    3  A    between atoms: C_4  and  N_6 
REMARK    4  A    between atoms: C_4  and  C_16 
REMARK       I    between atoms: N_6  and  C_7 
REMARK    5  A    between atoms: C_7  and  C_9 
REMARK    6  A    between atoms: C_9  and  N_10 
REMARK    7  A    between atoms: C_16  and  O_18 
ROOT
HETATM    1  N   UNL     1     -39.690 -48.630  11.382  1.00  0.00    -0.341 N 
HETATM    2  C   UNL     1     -40.969 -48.079  11.407  1.00  0.00     0.238 C 
HETATM    3  O   UNL     1     -41.929 -48.643  11.921  1.00  0.00    -0.272 OA
HETATM    4  H   UNL     1     -38.938 -47.949  11.341  1.00  0.00     0.163 HD
ENDROOT
BRANCH   1   5
HETATM    5  C   UNL     1     -39.390 -49.895  12.128  1.00  0.00     0.114 C 
HETATM    6  C   UNL     1     -40.508 -50.937  11.968  1.00  0.00     0.050 C 
BRANCH   5   7
HETATM    7  C   UNL     1     -39.225 -49.518  13.634  1.00  0.00     0.041 C 
BRANCH   7   8
HETATM    8  C   UNL     1     -38.577 -48.153  13.900  1.00  0.00    -0.002 C 
HETATM    9  C   UNL     1     -37.259 -48.285  14.648  1.00  0.00     0.005 C 
ENDBRANCH   7   8
ENDBRANCH   5   7
BRANCH   5  10
HETATM   10  C   UNL     1     -38.019 -50.449  11.642  1.00  0.00     0.169 C 
HETATM   11  O   UNL     1     -37.289 -51.193  12.280  1.00  0.00    -0.648 OA
BRANCH  10  12
HETATM   12  O   UNL     1     -37.609 -49.869  10.478  1.00  0.00    -0.775 OA
HETATM   13  H   UNL     1     -37.792 -50.459   9.722  1.00  0.00     0.167 HD
ENDBRANCH  10  12
ENDBRANCH   5  10
ENDBRANCH   1   5
BRANCH   2  14
HETATM   14  C   UNL     1     -41.127 -46.783  10.638  1.00  0.00     0.250 C 
BRANCH  14  15
HETATM   15  N   UNL     1     -42.289 -46.791   9.766  1.00  0.00    -0.295 N 
HETATM   16  C   UNL     1     -43.262 -45.837   9.681  1.00  0.00     0.112 A 
HETATM   17  C   UNL     1     -44.241 -46.360   8.869  1.00  0.00     0.037 A 
HETATM   18  C   UNL     1     -43.767 -47.636   8.518  1.00  0.00     0.108 A 
HETATM   19  N   UNL     1     -42.574 -47.908   9.060  1.00  0.00    -0.310 N 
ATOM     20  HN  UNL     1     -42.015 -48.754   8.964  1.00  0.00     0.186 HD
ENDBRANCH  14  15
ENDBRANCH   2  14
TORSDOF 7
ENDMDL
MODEL 9
REMARK VINA RESULT:      -5.1      3.535      5.667
REMARK  7 active torsions:
REMARK  status: ('A' for Active; 'I' for Inactive)
REMARK    1  A    between atoms: C_2  and  C_3 
REMARK    2  A    between atoms: C_3  and  C_4 
REMARK    3  A    between atoms: C_4  and  N_6 
REMARK    4  A    between atoms: C_4  and  C_16 
REMARK       I    between atoms: N_6  and  C_7 
REMARK    5  A    between atoms: C_7  and  C_9 
REMARK    6  A    between atoms: C_9  and  N_10 
REMARK    7  A    between atoms: C_16  and  O_18 
ROOT
HETATM    1  N   UNL     1     -40.266 -47.102  10.723  1.00  0.00    -0.341 N 
HETATM    2  C   UNL     1     -41.087 -48.028  11.363  1.00  0.00     0.238 C 
HETATM    3  O   UNL     1     -41.950 -47.707  12.172  1.00  0.00    -0.272 OA
HETATM    4  H   UNL     1     -39.922 -47.399   9.815  1.00  0.00     0.163 HD
ENDROOT
BRANCH   1   5
HETATM    5  C   UNL     1     -40.504 -45.632  10.886  1.00  0.00     0.114 C 
HETATM    6  C   UNL     1     -39.572 -44.795   9.996  1.00  0.00     0.050 C 
BRANCH   5   7
HETATM    7  C   UNL     1     -40.260 -45.284  12.388  1.00  0.00     0.041 C 
BRANCH   7   8
HETATM    8  C   UNL     1     -39.245 -44.162  12.643  1.00  0.00    -0.002 C 
HETATM    9  C   UNL     1     -39.913 -42.900  13.169  1.00  0.00     0.005 C 
ENDBRANCH   7   8
ENDBRANCH   5   7
BRANCH   5  10
HETATM   10  C   UNL     1     -42.002 -45.331  10.585  1.00  0.00     0.169 C 
HETATM   11  O   UNL     1     -42.522 -45.355   9.479  1.00  0.00    -0.648 OA
BRANCH  10  12
HETATM   12  O   UNL     1     -42.662 -44.847  11.676  1.00  0.00    -0.775 OA
HETATM   13  H   UNL     1     -42.317 -43.966  11.918  1.00  0.00     0.167 HD
ENDBRANCH  10  12
ENDBRANCH   5  10
ENDBRANCH   1   5
BRANCH   2  14
HETATM   14  C   UNL     1     -40.756 -49.481  11.087  1.00  0.00     0.250 C 
BRANCH  14  15
HETATM   15  N   UNL     1     -39.457 -49.865  11.614  1.00  0.00    -0.295 N 
HETATM   16  C   UNL     1     -39.076 -49.888  12.925  1.00  0.00     0.112 A 
HETATM   17  C   UNL     1     -37.721 -50.130  12.924  1.00  0.00     0.037 A 
HETATM   18  C   UNL     1     -37.380 -50.235  11.564  1.00  0.00     0.108 A 
HETATM   19  N   UNL     1     -38.434 -50.075  10.757  1.00  0.00    -0.310 N 
ATOM     20  HN  UNL     1     -38.460 -50.104   9.738  1.00  0.00     0.186 HD
ENDBRANCH  14  15
ENDBRANCH   2  14
TORSDOF 7
ENDMDL
