MODEL 1
REMARK VINA RESULT:      -5.3      0.000      0.000
REMARK  3 active torsions:
REMARK  status: ('A' for Active; 'I' for Inactive)
REMARK    1  A    between atoms: N_7  and  C_8 
REMARK    2  A    between atoms: C_8  and  C_9 
REMARK       I    between atoms: C_9  and  N_11 
REMARK    3  A    between atoms: N_11  and  C_12 
ROOT
HETATM    1  C   UNL     1     -38.328 -49.680  11.569  1.00  0.00     0.164 C 
HETATM    2  N   UNL     1     -39.740 -49.714  11.895  1.00  0.00    -0.271 N 
HETATM    3  C   UNL     1     -40.298 -50.918  12.285  1.00  0.00     0.252 A 
HETATM    4  O   UNL     1     -39.688 -51.976  12.406  1.00  0.00    -0.268 OA
HETATM    5  C   UNL     1     -41.743 -50.901  12.562  1.00  0.00     0.092 A 
HETATM    6  C   UNL     1     -42.437 -49.784  12.356  1.00  0.00     0.102 A 
HETATM    7  N   UNL     1     -41.831 -48.620  11.938  1.00  0.00    -0.301 N 
HETATM    8  C   UNL     1     -40.457 -48.528  11.741  1.00  0.00     0.331 A 
HETATM    9  O   UNL     1     -39.913 -47.462  11.450  1.00  0.00    -0.246 OA
ENDROOT
BRANCH   7  10
HETATM   10  C   UNL     1     -42.674 -47.455  11.637  1.00  0.00     0.235 C 
BRANCH  10  11
HETATM   11  C   UNL     1     -43.331 -47.540  10.264  1.00  0.00     0.236 C 
HETATM   12  O   UNL     1     -42.702 -47.904   9.272  1.00  0.00    -0.272 OA
HETATM   13  N   UNL     1     -44.657 -47.158  10.230  1.00  0.00    -0.355 N 
HETATM   14  H   UNL     1     -45.113 -46.891  11.096  1.00  0.00     0.162 HD
BRANCH  13  15
HETATM   15  C   UNL     1     -45.432 -47.253   9.034  1.00  0.00     0.084 A 
HETATM   16  C   UNL     1     -46.918 -47.021   9.054  1.00  0.00     0.027 A 
HETATM   17  C   UNL     1     -46.376 -48.400   8.808  1.00  0.00     0.027 A 
ENDBRANCH  13  15
ENDBRANCH  10  11
ENDBRANCH   7  10
TORSDOF 3
ENDMDL
MODEL 2
REMARK VINA RESULT:      -5.3      1.378      2.160
REMARK  3 active torsions:
REMARK  status: ('A' for Active; 'I' for Inactive)
REMARK    1  A    between atoms: N_7  and  C_8 
REMARK    2  A    between atoms: C_8  and  C_9 
REMARK       I    between atoms: C_9  and  N_11 
REMARK    3  A    between atoms: N_11  and  C_12 
ROOT
HETATM    1  C   UNL     1     -42.466 -52.084  13.294  1.00  0.00     0.164 C 
HETATM    2  N   UNL     1     -41.864 -50.984  12.565  1.00  0.00    -0.271 N 
HETATM    3  C   UNL     1     -40.563 -51.124  12.116  1.00  0.00     0.252 A 
HETATM    4  O   UNL     1     -39.867 -52.125  12.262  1.00  0.00    -0.268 OA
HETATM    5  C   UNL     1     -39.991 -49.961  11.420  1.00  0.00     0.092 A 
HETATM    6  C   UNL     1     -40.702 -48.839  11.326  1.00  0.00     0.102 A 
HETATM    7  N   UNL     1     -41.985 -48.749  11.819  1.00  0.00    -0.301 N 
HETATM    8  C   UNL     1     -42.631 -49.830  12.409  1.00  0.00     0.331 A 
HETATM    9  O   UNL     1     -43.807 -49.766  12.770  1.00  0.00    -0.246 OA
ENDROOT
BRANCH   7  10
HETATM   10  C   UNL     1     -42.670 -47.450  11.767  1.00  0.00     0.235 C 
BRANCH  10  11
HETATM   11  C   UNL     1     -43.353 -47.195  10.430  1.00  0.00     0.236 C 
HETATM   12  O   UNL     1     -42.797 -46.562   9.534  1.00  0.00    -0.272 OA
HETATM   13  N   UNL     1     -44.633 -47.704  10.325  1.00  0.00    -0.355 N 
HETATM   14  H   UNL     1     -45.014 -48.235  11.101  1.00  0.00     0.162 HD
BRANCH  13  15
HETATM   15  C   UNL     1     -45.376 -47.613   9.108  1.00  0.00     0.084 A 
HETATM   16  C   UNL     1     -46.715 -46.931   9.069  1.00  0.00     0.027 A 
HETATM   17  C   UNL     1     -46.626 -48.421   8.899  1.00  0.00     0.027 A 
ENDBRANCH  13  15
ENDBRANCH  10  11
ENDBRANCH   7  10
TORSDOF 3
ENDMDL
MODEL 3
REMARK VINA RESULT:      -5.2      3.347      4.094
REMARK  3 active torsions:
REMARK  status: ('A' for Active; 'I' for Inactive)
REMARK    1  A    between atoms: N_7  and  C_8 
REMARK    2  A    between atoms: C_8  and  C_9 
REMARK       I    between atoms: C_9  and  N_11 
REMARK    3  A    between atoms: N_11  and  C_12 
ROOT
HETATM    1  C   UNL     1     -40.356 -43.295  12.632  1.00  0.00     0.164 C 
HETATM    2  N   UNL     1     -41.284 -44.408  12.586  1.00  0.00    -0.271 N 
HETATM    3  C   UNL     1     -42.003 -44.715  13.727  1.00  0.00     0.252 A 
HETATM    4  O   UNL     1     -41.943 -44.102  14.788  1.00  0.00    -0.268 OA
HETATM    5  C   UNL     1     -42.898 -45.879  13.634  1.00  0.00     0.092 A 
HETATM    6  C   UNL     1     -42.914 -46.605  12.518  1.00  0.00     0.102 A 
HETATM    7  N   UNL     1     -42.152 -46.268  11.421  1.00  0.00    -0.301 N 
HETATM    8  C   UNL     1     -41.350 -45.132  11.396  1.00  0.00     0.331 A 
HETATM    9  O   UNL     1     -40.739 -44.792  10.382  1.00  0.00    -0.246 OA
ENDROOT
BRANCH   7  10
HETATM   10  C   UNL     1     -42.147 -47.171  10.262  1.00  0.00     0.235 C 
BRANCH  10  11
HETATM   11  C   UNL     1     -43.297 -46.904   9.299  1.00  0.00     0.236 C 
HETATM   12  O   UNL     1     -43.228 -46.025   8.442  1.00  0.00    -0.272 OA
HETATM   13  N   UNL     1     -44.409 -47.703   9.486  1.00  0.00    -0.355 N 
HETATM   14  H   UNL     1     -44.380 -48.422  10.201  1.00  0.00     0.162 HD
BRANCH  13  15
HETATM   15  C   UNL     1     -45.539 -47.626   8.617  1.00  0.00     0.084 A 
HETATM   16  C   UNL     1     -46.905 -47.296   9.152  1.00  0.00     0.027 A 
HETATM   17  C   UNL     1     -46.612 -48.678   8.642  1.00  0.00     0.027 A 
ENDBRANCH  13  15
ENDBRANCH  10  11
ENDBRANCH   7  10
TORSDOF 3
ENDMDL
MODEL 4
REMARK VINA RESULT:      -5.1      4.416      6.826
REMARK  3 active torsions:
REMARK  status: ('A' for Active; 'I' for Inactive)
REMARK    1  A    between atoms: N_7  and  C_8 
REMARK    2  A    between atoms: C_8  and  C_9 
REMARK       I    between atoms: C_9  and  N_11 
REMARK    3  A    between atoms: N_11  and  C_12 
ROOT
HETATM    1  C   UNL     1     -45.537 -54.660  14.358  1.00  0.00     0.164 C 
HETATM    2  N   UNL     1     -44.120 -54.426  14.163  1.00  0.00    -0.271 N 
HETATM    3  C   UNL     1     -43.238 -54.884  15.125  1.00  0.00     0.252 A 
HETATM    4  O   UNL     1     -43.551 -55.504  16.137  1.00  0.00    -0.268 OA
HETATM    5  C   UNL     1     -41.816 -54.582  14.895  1.00  0.00     0.092 A 
HETATM    6  C   UNL     1     -41.466 -53.840  13.847  1.00  0.00     0.102 A 
HETATM    7  N   UNL     1     -42.394 -53.386  12.936  1.00  0.00    -0.301 N 
HETATM    8  C   UNL     1     -43.745 -53.704  13.031  1.00  0.00     0.331 A 
HETATM    9  O   UNL     1     -44.554 -53.365  12.167  1.00  0.00    -0.246 OA
ENDROOT
BRANCH   7  10
HETATM   10  C   UNL     1     -41.946 -52.490  11.860  1.00  0.00     0.235 C 
BRANCH  10  11
HETATM   11  C   UNL     1     -41.078 -51.345  12.369  1.00  0.00     0.236 C 
HETATM   12  O   UNL     1     -41.532 -50.474  13.108  1.00  0.00    -0.272 OA
HETATM   13  N   UNL     1     -39.774 -51.359  11.914  1.00  0.00    -0.355 N 
HETATM   14  H   UNL     1     -39.469 -52.126  11.323  1.00  0.00     0.162 HD
BRANCH  13  15
HETATM   15  C   UNL     1     -38.817 -50.397  12.360  1.00  0.00     0.084 A 
HETATM   16  C   UNL     1     -37.705 -49.937  11.458  1.00  0.00     0.027 A 
HETATM   17  C   UNL     1     -37.397 -50.792  12.654  1.00  0.00     0.027 A 
ENDBRANCH  13  15
ENDBRANCH  10  11
ENDBRANCH   7  10
TORSDOF 3
ENDMDL
MODEL 5
REMARK VINA RESULT:      -5.1      2.978      4.426
REMARK  3 active torsions:
REMARK  status: ('A' for Active; 'I' for Inactive)
REMARK    1  A    between atoms: N_7  and  C_8 
REMARK    2  A    between atoms: C_8  and  C_9 
REMARK       I    between atoms: C_9  and  N_11 
REMARK    3  A    between atoms: N_11  and  C_12 
ROOT
HETATM    1  C   UNL     1     -43.407 -45.915  14.554  1.00  0.00     0.164 C 
HETATM    2  N   UNL     1     -42.854 -45.670  13.236  1.00  0.00    -0.271 N 
HETATM    3  C   UNL     1     -42.573 -44.366  12.871  1.00  0.00     0.252 A 
HETATM    4  O   UNL     1     -42.730 -43.381  13.585  1.00  0.00    -0.268 OA
HETATM    5  C   UNL     1     -42.052 -44.175  11.508  1.00  0.00     0.092 A 
HETATM    6  C   UNL     1     -41.954 -45.222  10.691  1.00  0.00     0.102 A 
HETATM    7  N   UNL     1     -42.277 -46.496  11.103  1.00  0.00    -0.301 N 
HETATM    8  C   UNL     1     -42.689 -46.775  12.402  1.00  0.00     0.331 A 
HETATM    9  O   UNL     1     -42.894 -47.927  12.784  1.00  0.00    -0.246 OA
ENDROOT
BRANCH   7  10
HETATM   10  C   UNL     1     -42.238 -47.586  10.117  1.00  0.00     0.235 C 
BRANCH  10  11
HETATM   11  C   UNL     1     -43.358 -47.493   9.089  1.00  0.00     0.236 C 
HETATM   12  O   UNL     1     -43.150 -47.095   7.944  1.00  0.00    -0.272 OA
HETATM   13  N   UNL     1     -44.605 -47.861   9.554  1.00  0.00    -0.355 N 
HETATM   14  H   UNL     1     -44.692 -48.200  10.507  1.00  0.00     0.162 HD
BRANCH  13  15
HETATM   15  C   UNL     1     -45.744 -47.901   8.692  1.00  0.00     0.084 A 
HETATM   16  C   UNL     1     -47.051 -47.287   9.109  1.00  0.00     0.027 A 
HETATM   17  C   UNL     1     -46.923 -48.780   9.000  1.00  0.00     0.027 A 
ENDBRANCH  13  15
ENDBRANCH  10  11
ENDBRANCH   7  10
TORSDOF 3
ENDMDL
MODEL 6
REMARK VINA RESULT:      -4.9      4.936      6.177
REMARK  3 active torsions:
REMARK  status: ('A' for Active; 'I' for Inactive)
REMARK    1  A    between atoms: N_7  and  C_8 
REMARK    2  A    between atoms: C_8  and  C_9 
REMARK       I    between atoms: C_9  and  N_11 
REMARK    3  A    between atoms: N_11  and  C_12 
ROOT
HETATM    1  C   UNL     1     -40.520 -50.949  15.215  1.00  0.00     0.164 C 
HETATM    2  N   UNL     1     -40.873 -52.163  14.504  1.00  0.00    -0.271 N 
HETATM    3  C   UNL     1     -40.264 -52.416  13.289  1.00  0.00     0.252 A 
HETATM    4  O   UNL     1     -39.416 -51.704  12.759  1.00  0.00    -0.268 OA
HETATM    5  C   UNL     1     -40.692 -53.641  12.594  1.00  0.00     0.092 A 
HETATM    6  C   UNL     1     -41.669 -54.381  13.113  1.00  0.00     0.102 A 
HETATM    7  N   UNL     1     -42.260 -54.063  14.316  1.00  0.00    -0.301 N 
HETATM    8  C   UNL     1     -41.851 -52.974  15.079  1.00  0.00     0.331 A 
HETATM    9  O   UNL     1     -42.327 -52.746  16.191  1.00  0.00    -0.246 OA
ENDROOT
BRANCH   7  10
HETATM   10  C   UNL     1     -43.399 -54.870  14.777  1.00  0.00     0.235 C 
BRANCH  10  11
HETATM   11  C   UNL     1     -44.734 -54.367  14.242  1.00  0.00     0.236 C 
HETATM   12  O   UNL     1     -45.278 -54.893  13.273  1.00  0.00    -0.272 OA
HETATM   13  N   UNL     1     -45.254 -53.277  14.912  1.00  0.00    -0.355 N 
HETATM   14  H   UNL     1     -44.756 -52.913  15.718  1.00  0.00     0.162 HD
BRANCH  13  15
HETATM   15  C   UNL     1     -46.534 -52.735  14.580  1.00  0.00     0.084 A 
HETATM   16  C   UNL     1     -46.654 -51.428  13.848  1.00  0.00     0.027 A 
HETATM   17  C   UNL     1     -47.073 -51.524  15.287  1.00  0.00     0.027 A 
ENDBRANCH  13  15
ENDBRANCH  10  11
ENDBRANCH   7  10
TORSDOF 3
ENDMDL
MODEL 7
REMARK VINA RESULT:      -4.8      5.343      8.050
REMARK  3 active torsions:
REMARK  status: ('A' for Active; 'I' for Inactive)
REMARK    1  A    between atoms: N_7  and  C_8 
REMARK    2  A    between atoms: C_8  and  C_9 
REMARK       I    between atoms: C_9  and  N_11 
REMARK    3  A    between atoms: N_11  and  C_12 
ROOT
HETATM    1  C   UNL     1     -46.071 -53.812  17.344  1.00  0.00     0.164 C 
HETATM    2  N   UNL     1     -45.971 -53.187  16.040  1.00  0.00    -0.271 N 
HETATM    3  C   UNL     1     -46.798 -52.114  15.757  1.00  0.00     0.252 A 
HETATM    4  O   UNL     1     -47.607 -51.619  16.536  1.00  0.00    -0.268 OA
HETATM    5  C   UNL     1     -46.682 -51.547  14.405  1.00  0.00     0.092 A 
HETATM    6  C   UNL     1     -45.870 -52.123  13.520  1.00  0.00     0.102 A 
HETATM    7  N   UNL     1     -45.090 -53.209  13.851  1.00  0.00    -0.301 N 
HETATM    8  C   UNL     1     -45.073 -53.749  15.133  1.00  0.00     0.331 A 
HETATM    9  O   UNL     1     -44.311 -54.666  15.441  1.00  0.00    -0.246 OA
ENDROOT
BRANCH   7  10
HETATM   10  C   UNL     1     -44.294 -53.852  12.796  1.00  0.00     0.235 C 
BRANCH  10  11
HETATM   11  C   UNL     1     -42.875 -53.304  12.710  1.00  0.00     0.236 C 
HETATM   12  O   UNL     1     -42.637 -52.211  12.198  1.00  0.00    -0.272 OA
HETATM   13  N   UNL     1     -41.899 -54.136  13.223  1.00  0.00    -0.355 N 
HETATM   14  H   UNL     1     -42.178 -55.013  13.649  1.00  0.00     0.162 HD
BRANCH  13  15
HETATM   15  C   UNL     1     -40.530 -53.734  13.285  1.00  0.00     0.084 A 
HETATM   16  C   UNL     1     -39.532 -54.510  14.098  1.00  0.00     0.027 A 
HETATM   17  C   UNL     1     -39.950 -53.136  14.536  1.00  0.00     0.027 A 
ENDBRANCH  13  15
ENDBRANCH  10  11
ENDBRANCH   7  10
TORSDOF 3
ENDMDL
MODEL 8
REMARK VINA RESULT:      -4.6      5.856      6.693
REMARK  3 active torsions:
REMARK  status: ('A' for Active; 'I' for Inactive)
REMARK    1  A    between atoms: N_7  and  C_8 
REMARK    2  A    between atoms: C_8  and  C_9 
REMARK       I    between atoms: C_9  and  N_11 
REMARK    3  A    between atoms: N_11  and  C_12 
ROOT
HETATM    1  C   UNL     1     -38.965 -53.896  16.093  1.00  0.00     0.164 C 
HETATM    2  N   UNL     1     -39.963 -54.001  15.047  1.00  0.00    -0.271 N 
HETATM    3  C   UNL     1     -39.705 -53.401  13.827  1.00  0.00     0.252 A 
HETATM    4  O   UNL     1     -38.676 -52.797  13.538  1.00  0.00    -0.268 OA
HETATM    5  C   UNL     1     -40.771 -53.504  12.818  1.00  0.00     0.092 A 
HETATM    6  C   UNL     1     -41.926 -54.082  13.141  1.00  0.00     0.102 A 
HETATM    7  N   UNL     1     -42.136 -54.638  14.384  1.00  0.00    -0.301 N 
HETATM    8  C   UNL     1     -41.148 -54.663  15.363  1.00  0.00     0.331 A 
HETATM    9  O   UNL     1     -41.316 -55.237  16.440  1.00  0.00    -0.246 OA
ENDROOT
BRANCH   7  10
HETATM   10  C   UNL     1     -43.469 -55.171  14.701  1.00  0.00     0.235 C 
BRANCH  10  11
HETATM   11  C   UNL     1     -44.596 -54.281  14.192  1.00  0.00     0.236 C 
HETATM   12  O   UNL     1     -45.266 -54.590  13.209  1.00  0.00    -0.272 OA
HETATM   13  N   UNL     1     -44.778 -53.111  14.903  1.00  0.00    -0.355 N 
HETATM   14  H   UNL     1     -44.199 -52.938  15.718  1.00  0.00     0.162 HD
BRANCH  13  15
HETATM   15  C   UNL     1     -45.842 -52.208  14.598  1.00  0.00     0.084 A 
HETATM   16  C   UNL     1     -46.269 -51.155  15.582  1.00  0.00     0.027 A 
HETATM   17  C   UNL     1     -47.175 -52.315  15.284  1.00  0.00     0.027 A 
ENDBRANCH  13  15
ENDBRANCH  10  11
ENDBRANCH   7  10
TORSDOF 3
ENDMDL
MODEL 9
REMARK VINA RESULT:      -4.6      2.126      2.588
REMARK  3 active torsions:
REMARK  status: ('A' for Active; 'I' for Inactive)
REMARK    1  A    between atoms: N_7  and  C_8 
REMARK    2  A    between atoms: C_8  and  C_9 
REMARK       I    between atoms: C_9  and  N_11 
REMARK    3  A    between atoms: N_11  and  C_12 
ROOT
HETATM    1  C   UNL     1     -37.484 -50.384  14.760  1.00  0.00     0.164 C 
HETATM    2  N   UNL     1     -38.521 -50.335  13.747  1.00  0.00    -0.271 N 
HETATM    3  C   UNL     1     -39.076 -51.525  13.314  1.00  0.00     0.252 A 
HETATM    4  O   UNL     1     -38.782 -52.640  13.736  1.00  0.00    -0.268 OA
HETATM    5  C   UNL     1     -40.093 -51.417  12.255  1.00  0.00     0.092 A 
HETATM    6  C   UNL     1     -40.364 -50.225  11.728  1.00  0.00     0.102 A 
HETATM    7  N   UNL     1     -39.757 -49.075  12.181  1.00  0.00    -0.301 N 
HETATM    8  C   UNL     1     -38.853 -49.080  13.238  1.00  0.00     0.331 A 
HETATM    9  O   UNL     1     -38.379 -48.038  13.692  1.00  0.00    -0.246 OA
ENDROOT
BRANCH   7  10
HETATM   10  C   UNL     1     -40.032 -47.811  11.484  1.00  0.00     0.235 C 
BRANCH  10  11
HETATM   11  C   UNL     1     -41.509 -47.628  11.154  1.00  0.00     0.236 C 
HETATM   12  O   UNL     1     -42.333 -47.353  12.024  1.00  0.00    -0.272 OA
HETATM   13  N   UNL     1     -41.835 -47.819   9.826  1.00  0.00    -0.355 N 
HETATM   14  H   UNL     1     -41.094 -48.023   9.164  1.00  0.00     0.162 HD
BRANCH  13  15
HETATM   15  C   UNL     1     -43.164 -47.611   9.344  1.00  0.00     0.084 A 
HETATM   16  C   UNL     1     -43.481 -47.717   7.879  1.00  0.00     0.027 A 
HETATM   17  C   UNL     1     -43.523 -46.380   8.561  1.00  0.00     0.027 A 
ENDBRANCH  13  15
ENDBRANCH  10  11
ENDBRANCH   7  10
TORSDOF 3
ENDMDL
