MODEL 1
REMARK VINA RESULT:      -6.7      0.000      0.000
REMARK  4 active torsions:
REMARK  status: ('A' for Active; 'I' for Inactive)
REMARK    1  A    between atoms: C_2  and  N_3 
REMARK    2  A    between atoms: C_2  and  C_22 
REMARK       I    between atoms: N_3  and  C_4 
REMARK       I    between atoms: C_4  and  N_6 
REMARK    3  A    between atoms: N_6  and  C_7 
REMARK    4  A    between atoms: C_10  and  N_14 
ROOT
HETATM    1  C   UNL     1     -41.850 -47.885  11.111  1.00  0.00     0.051 A 
HETATM    2  C   UNL     1     -40.636 -47.218  11.092  1.00  0.00     0.035 A 
HETATM    3  C   UNL     1     -40.598 -45.822  11.077  1.00  0.00     0.051 A 
HETATM    4  C   UNL     1     -41.771 -45.070  11.105  1.00  0.00     0.103 A 
HETATM    5  N   UNL     1     -42.964 -45.707  11.124  1.00  0.00    -0.350 N 
ATOM      6  HN  UNL     1     -43.836 -45.178  11.133  1.00  0.00     0.166 HD
HETATM    7  C   UNL     1     -42.979 -47.074  11.132  1.00  0.00     0.119 A 
ENDROOT
BRANCH   1   8
HETATM    8  N   UNL     1     -41.957 -49.298  11.114  1.00  0.00    -0.308 N 
HETATM    9  C   UNL     1     -41.863 -50.097  12.238  1.00  0.00     0.321 C 
HETATM   10  N   UNL     1     -42.042 -51.432  11.947  1.00  0.00    -0.336 N 
HETATM   11  O   UNL     1     -41.598 -49.719  13.373  1.00  0.00    -0.247 OA
HETATM   12  H   UNL     1     -42.777 -51.637  11.282  1.00  0.00     0.164 HD
HETATM   13  H   UNL     1     -41.872 -49.780  10.229  1.00  0.00     0.170 HD
BRANCH  10  14
HETATM   14  C   UNL     1     -41.879 -52.425  13.023  1.00  0.00     0.111 C 
HETATM   15  C   UNL     1     -40.972 -53.547  12.524  1.00  0.00     0.035 C 
BRANCH  14  16
HETATM   16  C   UNL     1     -43.246 -52.917  13.555  1.00  0.00     0.143 C 
HETATM   17  C   UNL     1     -43.172 -53.970  14.661  1.00  0.00     0.036 C 
HETATM   18  C   UNL     1     -44.289 -54.946  14.346  1.00  0.00     0.029 C 
HETATM   19  C   UNL     1     -45.010 -54.328  13.169  1.00  0.00     0.168 C 
HETATM   20  O   UNL     1     -44.033 -53.517  12.506  1.00  0.00    -0.384 OA
ENDBRANCH  14  16
ENDBRANCH  10  14
ENDBRANCH   1   8
BRANCH   4  21
HETATM   21  N   UNL     1     -41.725 -43.693  11.076  1.00  0.00    -0.362 N 
HETATM   22  C   UNL     1     -40.542 -42.926  11.491  1.00  0.00     0.156 C 
HETATM   23  C   UNL     1     -40.866 -42.059  12.728  1.00  0.00     0.136 C 
HETATM   24  C   UNL     1     -39.698 -41.140  13.066  1.00  0.00     0.041 C 
HETATM   25  O   UNL     1     -42.017 -41.229  12.495  1.00  0.00    -0.378 OA
HETATM   26  C   UNL     1     -43.177 -42.040  12.212  1.00  0.00     0.136 C 
HETATM   27  C   UNL     1     -44.348 -41.087  12.019  1.00  0.00     0.041 C 
HETATM   28  C   UNL     1     -42.956 -42.904  10.953  1.00  0.00     0.156 C 
ENDBRANCH   4  21
TORSDOF 4
ENDMDL
MODEL 2
REMARK VINA RESULT:      -6.3      1.954      9.916
REMARK  4 active torsions:
REMARK  status: ('A' for Active; 'I' for Inactive)
REMARK    1  A    between atoms: C_2  and  N_3 
REMARK    2  A    between atoms: C_2  and  C_22 
REMARK       I    between atoms: N_3  and  C_4 
REMARK       I    between atoms: C_4  and  N_6 
REMARK    3  A    between atoms: N_6  and  C_7 
REMARK    4  A    between atoms: C_10  and  N_14 
ROOT
HETATM    1  C   UNL     1     -40.777 -49.698  12.779  1.00  0.00     0.051 A 
HETATM    2  C   UNL     1     -41.871 -49.923  13.598  1.00  0.00     0.035 A 
HETATM    3  C   UNL     1     -42.333 -51.222  13.815  1.00  0.00     0.051 A 
HETATM    4  C   UNL     1     -41.696 -52.318  13.237  1.00  0.00     0.103 A 
HETATM    5  N   UNL     1     -40.626 -52.115  12.435  1.00  0.00    -0.350 N 
ATOM      6  HN  UNL     1     -40.152 -52.901  11.992  1.00  0.00     0.166 HD
HETATM    7  C   UNL     1     -40.193 -50.835  12.230  1.00  0.00     0.119 A 
ENDROOT
BRANCH   1   8
HETATM    8  N   UNL     1     -40.265 -48.403  12.509  1.00  0.00    -0.308 N 
HETATM    9  C   UNL     1     -40.805 -47.511  11.602  1.00  0.00     0.321 C 
HETATM   10  N   UNL     1     -40.121 -46.315  11.575  1.00  0.00    -0.336 N 
HETATM   11  O   UNL     1     -41.745 -47.728  10.847  1.00  0.00    -0.247 OA
HETATM   12  H   UNL     1     -39.836 -45.957  12.477  1.00  0.00     0.164 HD
HETATM   13  H   UNL     1     -39.326 -48.192  12.822  1.00  0.00     0.170 HD
BRANCH  10  14
HETATM   14  C   UNL     1     -40.513 -45.290  10.592  1.00  0.00     0.111 C 
HETATM   15  C   UNL     1     -39.283 -44.886   9.784  1.00  0.00     0.035 C 
BRANCH  14  16
HETATM   16  C   UNL     1     -41.236 -44.101  11.268  1.00  0.00     0.143 C 
HETATM   17  C   UNL     1     -42.762 -44.140  11.195  1.00  0.00     0.036 C 
HETATM   18  C   UNL     1     -43.178 -42.704  10.944  1.00  0.00     0.029 C 
HETATM   19  C   UNL     1     -41.888 -41.918  11.019  1.00  0.00     0.168 C 
HETATM   20  O   UNL     1     -40.855 -42.846  10.668  1.00  0.00    -0.384 OA
ENDBRANCH  14  16
ENDBRANCH  10  14
ENDBRANCH   1   8
BRANCH   4  21
HETATM   21  N   UNL     1     -42.169 -53.597  13.445  1.00  0.00    -0.362 N 
HETATM   22  C   UNL     1     -43.515 -54.025  13.040  1.00  0.00     0.156 C 
HETATM   23  C   UNL     1     -44.357 -54.406  14.277  1.00  0.00     0.136 C 
HETATM   24  C   UNL     1     -45.695 -55.004  13.858  1.00  0.00     0.041 C 
HETATM   25  O   UNL     1     -43.680 -55.384  15.086  1.00  0.00    -0.378 OA
HETATM   26  C   UNL     1     -42.419 -54.864  15.558  1.00  0.00     0.136 C 
HETATM   27  C   UNL     1     -41.793 -55.942  16.432  1.00  0.00     0.041 C 
HETATM   28  C   UNL     1     -41.492 -54.504  14.378  1.00  0.00     0.156 C 
ENDBRANCH   4  21
TORSDOF 4
ENDMDL
MODEL 3
REMARK VINA RESULT:      -6.3      3.347     10.119
REMARK  4 active torsions:
REMARK  status: ('A' for Active; 'I' for Inactive)
REMARK    1  A    between atoms: C_2  and  N_3 
REMARK    2  A    between atoms: C_2  and  C_22 
REMARK       I    between atoms: N_3  and  C_4 
REMARK       I    between atoms: C_4  and  N_6 
REMARK    3  A    between atoms: N_6  and  C_7 
REMARK    4  A    between atoms: C_10  and  N_14 
ROOT
HETATM    1  C   UNL     1     -40.356 -51.707  12.318  1.00  0.00     0.051 A 
HETATM    2  C   UNL     1     -39.603 -51.509  13.464  1.00  0.00     0.035 A 
HETATM    3  C   UNL     1     -39.468 -52.534  14.403  1.00  0.00     0.051 A 
HETATM    4  C   UNL     1     -40.061 -53.778  14.202  1.00  0.00     0.103 A 
HETATM    5  N   UNL     1     -40.799 -53.986  13.087  1.00  0.00    -0.350 N 
ATOM      6  HN  UNL     1     -41.253 -54.884  12.924  1.00  0.00     0.166 HD
HETATM    7  C   UNL     1     -40.924 -52.968  12.184  1.00  0.00     0.119 A 
ENDROOT
BRANCH   1   8
HETATM    8  N   UNL     1     -40.542 -50.705  11.332  1.00  0.00    -0.308 N 
HETATM    9  C   UNL     1     -41.286 -49.553  11.503  1.00  0.00     0.321 C 
HETATM   10  N   UNL     1     -41.261 -48.744  10.388  1.00  0.00    -0.336 N 
HETATM   11  O   UNL     1     -41.953 -49.264  12.490  1.00  0.00    -0.247 OA
HETATM   12  H   UNL     1     -40.362 -48.662   9.930  1.00  0.00     0.164 HD
HETATM   13  H   UNL     1     -40.312 -50.937  10.374  1.00  0.00     0.170 HD
BRANCH  10  14
HETATM   14  C   UNL     1     -42.082 -47.521  10.375  1.00  0.00     0.111 C 
HETATM   15  C   UNL     1     -43.102 -47.625   9.244  1.00  0.00     0.035 C 
BRANCH  14  16
HETATM   16  C   UNL     1     -41.205 -46.248  10.311  1.00  0.00     0.143 C 
HETATM   17  C   UNL     1     -39.956 -46.274  11.192  1.00  0.00     0.036 C 
HETATM   18  C   UNL     1     -39.851 -44.874  11.763  1.00  0.00     0.029 C 
HETATM   19  C   UNL     1     -40.958 -44.103  11.079  1.00  0.00     0.168 C 
HETATM   20  O   UNL     1     -41.943 -45.081  10.728  1.00  0.00    -0.384 OA
ENDBRANCH  14  16
ENDBRANCH  10  14
ENDBRANCH   1   8
BRANCH   4  21
HETATM   21  N   UNL     1     -39.934 -54.778  15.142  1.00  0.00    -0.362 N 
HETATM   22  C   UNL     1     -40.990 -55.099  16.112  1.00  0.00     0.156 C 
HETATM   23  C   UNL     1     -40.502 -54.826  17.552  1.00  0.00     0.136 C 
HETATM   24  C   UNL     1     -41.528 -55.307  18.572  1.00  0.00     0.041 C 
HETATM   25  O   UNL     1     -39.268 -55.513  17.822  1.00  0.00    -0.378 OA
HETATM   26  C   UNL     1     -38.234 -55.070  16.918  1.00  0.00     0.136 C 
HETATM   27  C   UNL     1     -36.962 -55.815  17.300  1.00  0.00     0.041 C 
HETATM   28  C   UNL     1     -38.621 -55.354  15.452  1.00  0.00     0.156 C 
ENDBRANCH   4  21
TORSDOF 4
ENDMDL
MODEL 4
REMARK VINA RESULT:      -6.0      2.194      3.204
REMARK  4 active torsions:
REMARK  status: ('A' for Active; 'I' for Inactive)
REMARK    1  A    between atoms: C_2  and  N_3 
REMARK    2  A    between atoms: C_2  and  C_22 
REMARK       I    between atoms: N_3  and  C_4 
REMARK       I    between atoms: C_4  and  N_6 
REMARK    3  A    between atoms: N_6  and  C_7 
REMARK    4  A    between atoms: C_10  and  N_14 
ROOT
HETATM    1  C   UNL     1     -40.894 -45.400  10.720  1.00  0.00     0.051 A 
HETATM    2  C   UNL     1     -42.249 -45.129  10.820  1.00  0.00     0.035 A 
HETATM    3  C   UNL     1     -42.692 -43.820  11.021  1.00  0.00     0.051 A 
HETATM    4  C   UNL     1     -41.793 -42.760  11.101  1.00  0.00     0.103 A 
HETATM    5  N   UNL     1     -40.466 -43.009  11.005  1.00  0.00    -0.350 N 
ATOM      6  HN  UNL     1     -39.789 -42.250  11.073  1.00  0.00     0.166 HD
HETATM    7  C   UNL     1     -40.053 -44.297  10.815  1.00  0.00     0.119 A 
ENDROOT
BRANCH   1   8
HETATM    8  N   UNL     1     -40.378 -46.707  10.528  1.00  0.00    -0.308 N 
HETATM    9  C   UNL     1     -40.176 -47.635  11.532  1.00  0.00     0.321 C 
HETATM   10  N   UNL     1     -39.700 -48.833  11.047  1.00  0.00    -0.336 N 
HETATM   11  O   UNL     1     -40.334 -47.446  12.732  1.00  0.00    -0.247 OA
HETATM   12  H   UNL     1     -40.123 -49.154  10.186  1.00  0.00     0.164 HD
HETATM   13  H   UNL     1     -39.918 -46.908   9.650  1.00  0.00     0.170 HD
BRANCH  10  14
HETATM   14  C   UNL     1     -39.343 -49.898  12.001  1.00  0.00     0.111 C 
HETATM   15  C   UNL     1     -37.864 -50.236  11.832  1.00  0.00     0.035 C 
BRANCH  14  16
HETATM   16  C   UNL     1     -40.283 -51.119  11.868  1.00  0.00     0.143 C 
HETATM   17  C   UNL     1     -41.671 -50.941  12.482  1.00  0.00     0.036 C 
HETATM   18  C   UNL     1     -41.986 -52.275  13.130  1.00  0.00     0.029 C 
HETATM   19  C   UNL     1     -40.829 -53.167  12.740  1.00  0.00     0.168 C 
HETATM   20  O   UNL     1     -39.725 -52.283  12.513  1.00  0.00    -0.384 OA
ENDBRANCH  14  16
ENDBRANCH  10  14
ENDBRANCH   1   8
BRANCH   4  21
HETATM   21  N   UNL     1     -42.239 -41.473  11.315  1.00  0.00    -0.362 N 
HETATM   22  C   UNL     1     -41.354 -40.386  11.756  1.00  0.00     0.156 C 
HETATM   23  C   UNL     1     -41.777 -39.876  13.151  1.00  0.00     0.136 C 
HETATM   24  C   UNL     1     -40.970 -38.644  13.545  1.00  0.00     0.041 C 
HETATM   25  O   UNL     1     -43.167 -39.508  13.172  1.00  0.00    -0.378 OA
HETATM   26  C   UNL     1     -43.995 -40.645  12.851  1.00  0.00     0.136 C 
HETATM   27  C   UNL     1     -45.442 -40.177  12.935  1.00  0.00     0.041 C 
HETATM   28  C   UNL     1     -43.672 -41.187  11.443  1.00  0.00     0.156 C 
ENDBRANCH   4  21
TORSDOF 4
ENDMDL
MODEL 5
REMARK VINA RESULT:      -5.8      1.765      9.831
REMARK  4 active torsions:
REMARK  status: ('A' for Active; 'I' for Inactive)
REMARK    1  A    between atoms: C_2  and  N_3 
REMARK    2  A    between atoms: C_2  and  C_22 
REMARK       I    between atoms: N_3  and  C_4 
REMARK       I    between atoms: C_4  and  N_6 
REMARK    3  A    between atoms: N_6  and  C_7 
REMARK    4  A    between atoms: C_10  and  N_14 
ROOT
HETATM    1  C   UNL     1     -40.707 -47.305  11.210  1.00  0.00     0.051 A 
HETATM    2  C   UNL     1     -39.713 -47.799  12.038  1.00  0.00     0.035 A 
HETATM    3  C   UNL     1     -39.680 -49.156  12.368  1.00  0.00     0.051 A 
HETATM    4  C   UNL     1     -40.624 -50.044  11.857  1.00  0.00     0.103 A 
HETATM    5  N   UNL     1     -41.601 -49.576  11.047  1.00  0.00    -0.350 N 
ATOM      6  HN  UNL     1     -42.310 -50.205  10.671  1.00  0.00     0.166 HD
HETATM    7  C   UNL     1     -41.620 -48.244  10.741  1.00  0.00     0.119 A 
ENDROOT
BRANCH   1   8
HETATM    8  N   UNL     1     -40.804 -45.938  10.847  1.00  0.00    -0.308 N 
HETATM    9  C   UNL     1     -41.255 -44.928  11.675  1.00  0.00     0.321 C 
HETATM   10  N   UNL     1     -41.205 -43.693  11.067  1.00  0.00    -0.336 N 
HETATM   11  O   UNL     1     -41.708 -45.068  12.805  1.00  0.00    -0.247 OA
HETATM   12  H   UNL     1     -40.379 -43.514  10.511  1.00  0.00     0.164 HD
HETATM   13  H   UNL     1     -40.758 -45.707   9.863  1.00  0.00     0.170 HD
BRANCH  10  14
HETATM   14  C   UNL     1     -41.740 -42.522  11.784  1.00  0.00     0.111 C 
HETATM   15  C   UNL     1     -43.063 -42.112  11.141  1.00  0.00     0.035 C 
BRANCH  14  16
HETATM   16  C   UNL     1     -40.701 -41.378  11.860  1.00  0.00     0.143 C 
HETATM   17  C   UNL     1     -39.682 -41.500  12.993  1.00  0.00     0.036 C 
HETATM   18  C   UNL     1     -39.506 -40.087  13.513  1.00  0.00     0.029 C 
HETATM   19  C   UNL     1     -40.325 -39.232  12.572  1.00  0.00     0.168 C 
HETATM   20  O   UNL     1     -41.341 -40.100  12.056  1.00  0.00    -0.384 OA
ENDBRANCH  14  16
ENDBRANCH  10  14
ENDBRANCH   1   8
BRANCH   4  21
HETATM   21  N   UNL     1     -40.592 -51.379  12.200  1.00  0.00    -0.362 N 
HETATM   22  C   UNL     1     -41.724 -52.288  11.969  1.00  0.00     0.156 C 
HETATM   23  C   UNL     1     -42.279 -52.812  13.311  1.00  0.00     0.136 C 
HETATM   24  C   UNL     1     -43.344 -53.878  13.077  1.00  0.00     0.041 C 
HETATM   25  O   UNL     1     -41.240 -53.405  14.109  1.00  0.00    -0.378 OA
HETATM   26  C   UNL     1     -40.217 -52.433  14.409  1.00  0.00     0.136 C 
HETATM   27  C   UNL     1     -39.185 -53.132  15.284  1.00  0.00     0.041 C 
HETATM   28  C   UNL     1     -39.569 -51.894  13.116  1.00  0.00     0.156 C 
ENDBRANCH   4  21
TORSDOF 4
ENDMDL
MODEL 6
REMARK VINA RESULT:      -5.7      3.062      4.565
REMARK  4 active torsions:
REMARK  status: ('A' for Active; 'I' for Inactive)
REMARK    1  A    between atoms: C_2  and  N_3 
REMARK    2  A    between atoms: C_2  and  C_22 
REMARK       I    between atoms: N_3  and  C_4 
REMARK       I    between atoms: C_4  and  N_6 
REMARK    3  A    between atoms: N_6  and  C_7 
REMARK    4  A    between atoms: C_10  and  N_14 
ROOT
HETATM    1  C   UNL     1     -41.484 -51.309  12.903  1.00  0.00     0.051 A 
HETATM    2  C   UNL     1     -42.312 -50.241  13.209  1.00  0.00     0.035 A 
HETATM    3  C   UNL     1     -42.323 -49.103  12.400  1.00  0.00     0.051 A 
HETATM    4  C   UNL     1     -41.525 -49.022  11.261  1.00  0.00     0.103 A 
HETATM    5  N   UNL     1     -40.711 -50.057  10.949  1.00  0.00    -0.350 N 
ATOM      6  HN  UNL     1     -40.110 -50.015  10.127  1.00  0.00     0.166 HD
HETATM    7  C   UNL     1     -40.711 -51.159  11.757  1.00  0.00     0.119 A 
ENDROOT
BRANCH   1   8
HETATM    8  N   UNL     1     -41.417 -52.487  13.689  1.00  0.00    -0.308 N 
HETATM    9  C   UNL     1     -40.468 -52.739  14.661  1.00  0.00     0.321 C 
HETATM   10  N   UNL     1     -40.671 -53.948  15.289  1.00  0.00    -0.336 N 
HETATM   11  O   UNL     1     -39.507 -52.029  14.933  1.00  0.00    -0.247 OA
HETATM   12  H   UNL     1     -41.634 -54.172  15.501  1.00  0.00     0.164 HD
HETATM   13  H   UNL     1     -41.948 -53.291  13.380  1.00  0.00     0.170 HD
BRANCH  10  14
HETATM   14  C   UNL     1     -39.689 -54.408  16.286  1.00  0.00     0.111 C 
HETATM   15  C   UNL     1     -38.677 -55.320  15.598  1.00  0.00     0.035 C 
BRANCH  14  16
HETATM   16  C   UNL     1     -40.382 -55.054  17.510  1.00  0.00     0.143 C 
HETATM   17  C   UNL     1     -41.274 -56.254  17.194  1.00  0.00     0.036 C 
HETATM   18  C   UNL     1     -42.480 -56.094  18.099  1.00  0.00     0.029 C 
HETATM   19  C   UNL     1     -42.148 -54.897  18.963  1.00  0.00     0.168 C 
HETATM   20  O   UNL     1     -41.236 -54.110  18.189  1.00  0.00    -0.384 OA
ENDBRANCH  14  16
ENDBRANCH  10  14
ENDBRANCH   1   8
BRANCH   4  21
HETATM   21  N   UNL     1     -41.531 -47.889  10.477  1.00  0.00    -0.362 N 
HETATM   22  C   UNL     1     -40.670 -46.729  10.746  1.00  0.00     0.156 C 
HETATM   23  C   UNL     1     -41.525 -45.489  11.088  1.00  0.00     0.136 C 
HETATM   24  C   UNL     1     -40.651 -44.245  11.209  1.00  0.00     0.041 C 
HETATM   25  O   UNL     1     -42.504 -45.233  10.066  1.00  0.00    -0.378 OA
HETATM   26  C   UNL     1     -43.398 -46.357   9.930  1.00  0.00     0.136 C 
HETATM   27  C   UNL     1     -44.418 -45.985   8.862  1.00  0.00     0.041 C 
HETATM   28  C   UNL     1     -42.627 -47.634   9.535  1.00  0.00     0.156 C 
ENDBRANCH   4  21
TORSDOF 4
ENDMDL
MODEL 7
REMARK VINA RESULT:      -5.6      1.422      2.117
REMARK  4 active torsions:
REMARK  status: ('A' for Active; 'I' for Inactive)
REMARK    1  A    between atoms: C_2  and  N_3 
REMARK    2  A    between atoms: C_2  and  C_22 
REMARK       I    between atoms: N_3  and  C_4 
REMARK       I    between atoms: C_4  and  N_6 
REMARK    3  A    between atoms: N_6  and  C_7 
REMARK    4  A    between atoms: C_10  and  N_14 
ROOT
HETATM    1  C   UNL     1     -41.931 -47.838  11.140  1.00  0.00     0.051 A 
HETATM    2  C   UNL     1     -40.711 -47.191  11.032  1.00  0.00     0.035 A 
HETATM    3  C   UNL     1     -40.651 -45.796  11.023  1.00  0.00     0.051 A 
HETATM    4  C   UNL     1     -41.804 -45.025  11.145  1.00  0.00     0.103 A 
HETATM    5  N   UNL     1     -43.004 -45.642  11.252  1.00  0.00    -0.350 N 
ATOM      6  HN  UNL     1     -43.863 -45.098  11.330  1.00  0.00     0.166 HD
HETATM    7  C   UNL     1     -43.042 -47.008  11.252  1.00  0.00     0.119 A 
ENDROOT
BRANCH   1   8
HETATM    8  N   UNL     1     -42.062 -49.249  11.144  1.00  0.00    -0.308 N 
HETATM    9  C   UNL     1     -42.033 -50.045  12.274  1.00  0.00     0.321 C 
HETATM   10  N   UNL     1     -42.222 -51.377  11.979  1.00  0.00    -0.336 N 
HETATM   11  O   UNL     1     -41.814 -49.666  13.418  1.00  0.00    -0.247 OA
HETATM   12  H   UNL     1     -42.928 -51.573  11.282  1.00  0.00     0.164 HD
HETATM   13  H   UNL     1     -41.945 -49.736  10.265  1.00  0.00     0.170 HD
BRANCH  10  14
HETATM   14  C   UNL     1     -42.125 -52.369  13.064  1.00  0.00     0.111 C 
HETATM   15  C   UNL     1     -42.972 -51.895  14.243  1.00  0.00     0.035 C 
BRANCH  14  16
HETATM   16  C   UNL     1     -40.652 -52.666  13.433  1.00  0.00     0.143 C 
HETATM   17  C   UNL     1     -40.244 -54.137  13.346  1.00  0.00     0.036 C 
HETATM   18  C   UNL     1     -39.340 -54.362  14.543  1.00  0.00     0.029 C 
HETATM   19  C   UNL     1     -39.181 -52.991  15.160  1.00  0.00     0.168 C 
HETATM   20  O   UNL     1     -40.358 -52.266  14.787  1.00  0.00    -0.384 OA
ENDBRANCH  14  16
ENDBRANCH  10  14
ENDBRANCH   1   8
BRANCH   4  21
HETATM   21  N   UNL     1     -41.737 -43.648  11.120  1.00  0.00    -0.362 N 
HETATM   22  C   UNL     1     -40.537 -42.902  11.525  1.00  0.00     0.156 C 
HETATM   23  C   UNL     1     -40.834 -42.035  12.769  1.00  0.00     0.136 C 
HETATM   24  C   UNL     1     -39.647 -41.136  13.097  1.00  0.00     0.041 C 
HETATM   25  O   UNL     1     -41.974 -41.186  12.552  1.00  0.00    -0.378 OA
HETATM   26  C   UNL     1     -43.149 -41.978  12.280  1.00  0.00     0.136 C 
HETATM   27  C   UNL     1     -44.308 -41.005  12.103  1.00  0.00     0.041 C 
HETATM   28  C   UNL     1     -42.956 -42.840  11.015  1.00  0.00     0.156 C 
ENDBRANCH   4  21
TORSDOF 4
ENDMDL
MODEL 8
REMARK VINA RESULT:      -5.4      6.614     10.515
REMARK  4 active torsions:
REMARK  status: ('A' for Active; 'I' for Inactive)
REMARK    1  A    between atoms: C_2  and  N_3 
REMARK    2  A    between atoms: C_2  and  C_22 
REMARK       I    between atoms: N_3  and  C_4 
REMARK       I    between atoms: C_4  and  N_6 
REMARK    3  A    between atoms: N_6  and  C_7 
REMARK    4  A    between atoms: C_10  and  N_14 
ROOT
HETATM    1  C   UNL     1     -40.684 -55.956  16.980  1.00  0.00     0.051 A 
HETATM    2  C   UNL     1     -42.053 -56.052  16.795  1.00  0.00     0.035 A 
HETATM    3  C   UNL     1     -42.677 -55.339  15.769  1.00  0.00     0.051 A 
HETATM    4  C   UNL     1     -41.942 -54.538  14.898  1.00  0.00     0.103 A 
HETATM    5  N   UNL     1     -40.604 -54.434  15.066  1.00  0.00    -0.350 N 
ATOM      6  HN  UNL     1     -40.046 -53.845  14.449  1.00  0.00     0.166 HD
HETATM    7  C   UNL     1     -40.013 -55.135  16.080  1.00  0.00     0.119 A 
ENDROOT
BRANCH   1   8
HETATM    8  N   UNL     1     -39.992 -56.643  18.008  1.00  0.00    -0.308 N 
HETATM    9  C   UNL     1     -39.543 -57.948  17.926  1.00  0.00     0.321 C 
HETATM   10  N   UNL     1     -38.871 -58.342  19.062  1.00  0.00    -0.336 N 
HETATM   11  O   UNL     1     -39.740 -58.723  16.998  1.00  0.00    -0.247 OA
HETATM   12  H   UNL     1     -38.246 -57.652  19.460  1.00  0.00     0.164 HD
HETATM   13  H   UNL     1     -40.018 -56.250  18.940  1.00  0.00     0.170 HD
BRANCH  10  14
HETATM   14  C   UNL     1     -38.410 -59.737  19.172  1.00  0.00     0.111 C 
HETATM   15  C   UNL     1     -39.263 -60.458  20.212  1.00  0.00     0.035 C 
BRANCH  14  16
HETATM   16  C   UNL     1     -36.889 -59.813  19.448  1.00  0.00     0.143 C 
HETATM   17  C   UNL     1     -36.181 -58.464  19.565  1.00  0.00     0.036 C 
HETATM   18  C   UNL     1     -34.853 -58.657  18.859  1.00  0.00     0.029 C 
HETATM   19  C   UNL     1     -34.825 -60.126  18.501  1.00  0.00     0.168 C 
HETATM   20  O   UNL     1     -36.199 -60.519  18.396  1.00  0.00    -0.384 OA
ENDBRANCH  14  16
ENDBRANCH  10  14
ENDBRANCH   1   8
BRANCH   4  21
HETATM   21  N   UNL     1     -42.568 -53.826  13.897  1.00  0.00    -0.362 N 
HETATM   22  C   UNL     1     -41.840 -52.959  12.961  1.00  0.00     0.156 C 
HETATM   23  C   UNL     1     -42.273 -51.487  13.138  1.00  0.00     0.136 C 
HETATM   24  C   UNL     1     -41.646 -50.605  12.064  1.00  0.00     0.041 C 
HETATM   25  O   UNL     1     -43.701 -51.348  13.033  1.00  0.00    -0.378 OA
HETATM   26  C   UNL     1     -44.360 -52.125  14.055  1.00  0.00     0.136 C 
HETATM   27  C   UNL     1     -45.856 -51.888  13.895  1.00  0.00     0.041 C 
HETATM   28  C   UNL     1     -44.021 -53.624  13.918  1.00  0.00     0.156 C 
ENDBRANCH   4  21
TORSDOF 4
ENDMDL
MODEL 9
REMARK VINA RESULT:      -5.4     13.895     14.908
REMARK  4 active torsions:
REMARK  status: ('A' for Active; 'I' for Inactive)
REMARK    1  A    between atoms: C_2  and  N_3 
REMARK    2  A    between atoms: C_2  and  C_22 
REMARK       I    between atoms: N_3  and  C_4 
REMARK       I    between atoms: C_4  and  N_6 
REMARK    3  A    between atoms: N_6  and  C_7 
REMARK    4  A    between atoms: C_10  and  N_14 
ROOT
HETATM    1  C   UNL     1     -50.256 -49.172   0.810  1.00  0.00     0.051 A 
HETATM    2  C   UNL     1     -51.189 -48.455   1.540  1.00  0.00     0.035 A 
HETATM    3  C   UNL     1     -51.012 -47.086   1.757  1.00  0.00     0.051 A 
HETATM    4  C   UNL     1     -49.915 -46.410   1.230  1.00  0.00     0.103 A 
HETATM    5  N   UNL     1     -48.995 -47.097   0.515  1.00  0.00    -0.350 N 
ATOM      6  HN  UNL     1     -48.177 -46.626   0.130  1.00  0.00     0.166 HD
HETATM    7  C   UNL     1     -49.183 -48.437   0.319  1.00  0.00     0.119 A 
ENDROOT
BRANCH   1   8
HETATM    8  N   UNL     1     -50.370 -50.564   0.564  1.00  0.00    -0.308 N 
HETATM    9  C   UNL     1     -51.096 -51.129  -0.468  1.00  0.00     0.321 C 
HETATM   10  N   UNL     1     -50.997 -52.503  -0.485  1.00  0.00    -0.336 N 
HETATM   11  O   UNL     1     -51.804 -50.528  -1.267  1.00  0.00    -0.247 OA
HETATM   12  H   UNL     1     -50.075 -52.875  -0.297  1.00  0.00     0.164 HD
HETATM   13  H   UNL     1     -50.098 -51.198   1.303  1.00  0.00     0.170 HD
BRANCH  10  14
HETATM   14  C   UNL     1     -51.788 -53.264  -1.467  1.00  0.00     0.111 C 
HETATM   15  C   UNL     1     -52.771 -54.161  -0.719  1.00  0.00     0.035 C 
BRANCH  14  16
HETATM   16  C   UNL     1     -50.881 -54.024  -2.463  1.00  0.00     0.143 C 
HETATM   17  C   UNL     1     -51.486 -55.299  -3.050  1.00  0.00     0.036 C 
HETATM   18  C   UNL     1     -50.340 -56.291  -3.095  1.00  0.00     0.029 C 
HETATM   19  C   UNL     1     -49.132 -55.493  -2.659  1.00  0.00     0.168 C 
HETATM   20  O   UNL     1     -49.648 -54.438  -1.839  1.00  0.00    -0.384 OA
ENDBRANCH  14  16
ENDBRANCH  10  14
ENDBRANCH   1   8
BRANCH   4  21
HETATM   21  N   UNL     1     -49.740 -45.062   1.462  1.00  0.00    -0.362 N 
HETATM   22  C   UNL     1     -49.018 -44.541   2.631  1.00  0.00     0.156 C 
HETATM   23  C   UNL     1     -49.968 -43.727   3.536  1.00  0.00     0.136 C 
HETATM   24  C   UNL     1     -49.195 -43.049   4.662  1.00  0.00     0.041 C 
HETATM   25  O   UNL     1     -50.641 -42.697   2.791  1.00  0.00    -0.378 OA
HETATM   26  C   UNL     1     -51.433 -43.275   1.732  1.00  0.00     0.136 C 
HETATM   27  C   UNL     1     -52.137 -42.124   1.026  1.00  0.00     0.041 C 
HETATM   28  C   UNL     1     -50.548 -44.067   0.748  1.00  0.00     0.156 C 
ENDBRANCH   4  21
TORSDOF 4
ENDMDL
