MODEL 1
REMARK VINA RESULT:      -6.3      0.000      0.000
REMARK  3 active torsions:
REMARK  status: ('A' for Active; 'I' for Inactive)
REMARK    1  A    between atoms: C_5  and  N_8 
REMARK    2  A    between atoms: C_11  and  N_14 
REMARK       I    between atoms: N_14  and  C_15 
REMARK       I    between atoms: C_15  and  N_17 
REMARK    3  A    between atoms: N_17  and  C_18 
ROOT
HETATM    1  N   UNL     1     -43.091 -49.179  12.060  1.00  0.00    -0.338 N 
HETATM    2  C   UNL     1     -43.571 -50.067  12.997  1.00  0.00     0.321 C 
HETATM    3  O   UNL     1     -42.985 -50.321  14.041  1.00  0.00    -0.247 OA
HETATM    4  N   UNL     1     -44.734 -50.661  12.562  1.00  0.00    -0.308 N 
HETATM    5  H   UNL     1     -43.812 -48.648  11.590  1.00  0.00     0.164 HD
HETATM    6  H   UNL     1     -44.786 -50.768  11.559  1.00  0.00     0.170 HD
ENDROOT
BRANCH   1   7
HETATM    7  C   UNL     1     -41.803 -48.521  12.274  1.00  0.00     0.089 C 
HETATM    8  C   UNL     1     -41.835 -47.586  13.488  1.00  0.00     0.055 C 
HETATM    9  C   UNL     1     -42.561 -46.277  13.168  1.00  0.00     0.275 C 
HETATM   10  N   UNL     1     -42.009 -45.572  11.995  1.00  0.00     0.093 N 
HETATM   11  C   UNL     1     -42.110 -46.465  10.827  1.00  0.00     0.275 C 
HETATM   12  C   UNL     1     -41.362 -47.786  11.006  1.00  0.00     0.055 C 
BRANCH  10  13
HETATM   13  C   UNL     1     -40.652 -44.997  12.216  1.00  0.00     0.226 C 
HETATM   14  C   UNL     1     -40.494 -44.329  13.602  1.00  0.00     0.066 C 
HETATM   15  C   UNL     1     -41.315 -43.040  13.714  1.00  0.00     0.274 C 
HETATM   16  N   UNL     1     -41.004 -42.048  12.675  1.00  0.00     0.084 N 
HETATM   17  C   UNL     1     -39.714 -41.397  12.898  1.00  0.00     0.309 C 
HETATM   18  C   UNL     1     -41.102 -42.648  11.337  1.00  0.00     0.274 C 
HETATM   19  C   UNL     1     -40.262 -43.921  11.176  1.00  0.00     0.066 C 
ENDBRANCH  10  13
ENDBRANCH   1   7
BRANCH   4  20
HETATM   20  C   UNL     1     -45.415 -51.612  13.345  1.00  0.00     0.052 A 
HETATM   21  C   UNL     1     -45.500 -52.962  13.002  1.00  0.00     0.117 A 
HETATM   22  N   UNL     1     -46.164 -53.887  13.731  1.00  0.00    -0.373 N 
HETATM   23  C   UNL     1     -46.807 -53.441  14.833  1.00  0.00     0.094 A 
ATOM     24  HN  UNL     1     -46.178 -54.871  13.463  1.00  0.00     0.164 HD
HETATM   25  C   UNL     1     -46.793 -52.118  15.261  1.00  0.00    -0.044 A 
HETATM   26  C   UNL     1     -47.601 -51.670  16.439  1.00  0.00     0.049 C 
HETATM   27  C   UNL     1     -46.055 -51.196  14.512  1.00  0.00     0.039 A 
ENDBRANCH   4  20
TORSDOF 3
ENDMDL
MODEL 2
REMARK VINA RESULT:      -6.3      4.326      8.443
REMARK  3 active torsions:
REMARK  status: ('A' for Active; 'I' for Inactive)
REMARK    1  A    between atoms: C_5  and  N_8 
REMARK    2  A    between atoms: C_11  and  N_14 
REMARK       I    between atoms: N_14  and  C_15 
REMARK       I    between atoms: C_15  and  N_17 
REMARK    3  A    between atoms: N_17  and  C_18 
ROOT
HETATM    1  N   UNL     1     -41.371 -49.454  12.216  1.00  0.00    -0.338 N 
HETATM    2  C   UNL     1     -42.266 -48.456  11.901  1.00  0.00     0.321 C 
HETATM    3  O   UNL     1     -42.786 -47.733  12.740  1.00  0.00    -0.247 OA
HETATM    4  N   UNL     1     -42.535 -48.446  10.551  1.00  0.00    -0.308 N 
HETATM    5  H   UNL     1     -40.639 -49.582  11.531  1.00  0.00     0.164 HD
HETATM    6  H   UNL     1     -42.482 -49.356  10.118  1.00  0.00     0.170 HD
ENDROOT
BRANCH   1   7
HETATM    7  C   UNL     1     -41.034 -49.714  13.615  1.00  0.00     0.089 C 
HETATM    8  C   UNL     1     -39.647 -50.348  13.760  1.00  0.00     0.055 C 
HETATM    9  C   UNL     1     -39.666 -51.831  13.388  1.00  0.00     0.275 C 
HETATM   10  N   UNL     1     -40.666 -52.612  14.143  1.00  0.00     0.093 N 
HETATM   11  C   UNL     1     -41.998 -52.041  13.878  1.00  0.00     0.275 C 
HETATM   12  C   UNL     1     -42.118 -50.570  14.275  1.00  0.00     0.055 C 
BRANCH  10  13
HETATM   13  C   UNL     1     -40.341 -52.776  15.589  1.00  0.00     0.226 C 
HETATM   14  C   UNL     1     -38.970 -53.448  15.831  1.00  0.00     0.066 C 
HETATM   15  C   UNL     1     -38.976 -54.925  15.425  1.00  0.00     0.274 C 
HETATM   16  N   UNL     1     -40.015 -55.719  16.097  1.00  0.00     0.084 N 
HETATM   17  C   UNL     1     -39.698 -55.974  17.501  1.00  0.00     0.309 C 
HETATM   18  C   UNL     1     -41.335 -55.096  15.928  1.00  0.00     0.274 C 
HETATM   19  C   UNL     1     -41.376 -53.626  16.360  1.00  0.00     0.066 C 
ENDBRANCH  10  13
ENDBRANCH   1   7
BRANCH   4  20
HETATM   20  C   UNL     1     -43.428 -47.516   9.984  1.00  0.00     0.052 A 
HETATM   21  C   UNL     1     -43.077 -46.196   9.703  1.00  0.00     0.117 A 
HETATM   22  N   UNL     1     -43.924 -45.284   9.174  1.00  0.00    -0.373 N 
HETATM   23  C   UNL     1     -45.193 -45.694   8.954  1.00  0.00     0.094 A 
ATOM     24  HN  UNL     1     -43.621 -44.335   8.954  1.00  0.00     0.164 HD
HETATM   25  C   UNL     1     -45.649 -46.983   9.205  1.00  0.00    -0.044 A 
HETATM   26  C   UNL     1     -47.090 -47.350   9.026  1.00  0.00     0.049 C 
HETATM   27  C   UNL     1     -44.735 -47.916   9.704  1.00  0.00     0.039 A 
ENDBRANCH   4  20
TORSDOF 3
ENDMDL
MODEL 3
REMARK VINA RESULT:      -6.1      3.485      9.283
REMARK  3 active torsions:
REMARK  status: ('A' for Active; 'I' for Inactive)
REMARK    1  A    between atoms: C_5  and  N_8 
REMARK    2  A    between atoms: C_11  and  N_14 
REMARK       I    between atoms: N_14  and  C_15 
REMARK       I    between atoms: C_15  and  N_17 
REMARK    3  A    between atoms: N_17  and  C_18 
ROOT
HETATM    1  N   UNL     1     -41.452 -46.020  11.571  1.00  0.00    -0.338 N 
HETATM    2  C   UNL     1     -40.963 -44.757  11.322  1.00  0.00     0.321 C 
HETATM    3  O   UNL     1     -39.947 -44.548  10.673  1.00  0.00    -0.247 OA
HETATM    4  N   UNL     1     -41.725 -43.801  11.955  1.00  0.00    -0.308 N 
HETATM    5  H   UNL     1     -42.462 -46.075  11.587  1.00  0.00     0.164 HD
HETATM    6  H   UNL     1     -42.142 -44.118  12.818  1.00  0.00     0.170 HD
ENDROOT
BRANCH   1   7
HETATM    7  C   UNL     1     -40.723 -47.190  11.084  1.00  0.00     0.089 C 
HETATM    8  C   UNL     1     -41.671 -48.321  10.671  1.00  0.00     0.055 C 
HETATM    9  C   UNL     1     -42.233 -49.056  11.889  1.00  0.00     0.275 C 
HETATM   10  N   UNL     1     -41.189 -49.571  12.797  1.00  0.00     0.093 N 
HETATM   11  C   UNL     1     -40.377 -48.434  13.264  1.00  0.00     0.275 C 
HETATM   12  C   UNL     1     -39.707 -47.659  12.129  1.00  0.00     0.055 C 
BRANCH  10  13
HETATM   13  C   UNL     1     -40.399 -50.702  12.231  1.00  0.00     0.226 C 
HETATM   14  C   UNL     1     -41.266 -51.935  11.885  1.00  0.00     0.066 C 
HETATM   15  C   UNL     1     -41.802 -52.630  13.140  1.00  0.00     0.274 C 
HETATM   16  N   UNL     1     -40.751 -53.042  14.083  1.00  0.00     0.084 N 
HETATM   17  C   UNL     1     -40.001 -54.202  13.605  1.00  0.00     0.309 C 
HETATM   18  C   UNL     1     -39.875 -51.910  14.412  1.00  0.00     0.274 C 
HETATM   19  C   UNL     1     -39.289 -51.212  13.179  1.00  0.00     0.066 C 
ENDBRANCH  10  13
ENDBRANCH   1   7
BRANCH   4  20
HETATM   20  C   UNL     1     -41.421 -42.430  11.855  1.00  0.00     0.052 A 
HETATM   21  C   UNL     1     -41.985 -41.593  10.892  1.00  0.00     0.117 A 
HETATM   22  N   UNL     1     -41.693 -40.278  10.768  1.00  0.00    -0.373 N 
HETATM   23  C   UNL     1     -40.766 -39.782  11.617  1.00  0.00     0.094 A 
ATOM     24  HN  UNL     1     -42.149 -39.691  10.070  1.00  0.00     0.164 HD
HETATM   25  C   UNL     1     -40.138 -40.529  12.608  1.00  0.00    -0.044 A 
HETATM   26  C   UNL     1     -39.053 -39.944  13.457  1.00  0.00     0.049 C 
HETATM   27  C   UNL     1     -40.500 -41.873  12.742  1.00  0.00     0.039 A 
ENDBRANCH   4  20
TORSDOF 3
ENDMDL
MODEL 4
REMARK VINA RESULT:      -6.1      2.462      3.010
REMARK  3 active torsions:
REMARK  status: ('A' for Active; 'I' for Inactive)
REMARK    1  A    between atoms: C_5  and  N_8 
REMARK    2  A    between atoms: C_11  and  N_14 
REMARK       I    between atoms: N_14  and  C_15 
REMARK       I    between atoms: C_15  and  N_17 
REMARK    3  A    between atoms: N_17  and  C_18 
ROOT
HETATM    1  N   UNL     1     -41.293 -48.316  11.697  1.00  0.00    -0.338 N 
HETATM    2  C   UNL     1     -41.172 -49.512  12.371  1.00  0.00     0.321 C 
HETATM    3  O   UNL     1     -40.482 -49.649  13.372  1.00  0.00    -0.247 OA
HETATM    4  N   UNL     1     -41.863 -50.512  11.726  1.00  0.00    -0.308 N 
HETATM    5  H   UNL     1     -42.211 -48.156  11.305  1.00  0.00     0.164 HD
HETATM    6  H   UNL     1     -41.908 -50.396  10.724  1.00  0.00     0.170 HD
ENDROOT
BRANCH   1   7
HETATM    7  C   UNL     1     -40.543 -47.147  12.151  1.00  0.00     0.089 C 
HETATM    8  C   UNL     1     -41.219 -46.463  13.344  1.00  0.00     0.055 C 
HETATM    9  C   UNL     1     -42.429 -45.638  12.906  1.00  0.00     0.275 C 
HETATM   10  N   UNL     1     -42.115 -44.645  11.860  1.00  0.00     0.093 N 
HETATM   11  C   UNL     1     -41.581 -45.359  10.687  1.00  0.00     0.275 C 
HETATM   12  C   UNL     1     -40.322 -46.171  10.992  1.00  0.00     0.055 C 
BRANCH  10  13
HETATM   13  C   UNL     1     -41.266 -43.514  12.333  1.00  0.00     0.226 C 
HETATM   14  C   UNL     1     -41.868 -42.770  13.548  1.00  0.00     0.066 C 
HETATM   15  C   UNL     1     -43.123 -41.977  13.170  1.00  0.00     0.274 C 
HETATM   16  N   UNL     1     -42.907 -41.009  12.084  1.00  0.00     0.084 N 
HETATM   17  C   UNL     1     -42.146 -39.842  12.525  1.00  0.00     0.309 C 
HETATM   18  C   UNL     1     -42.298 -41.664  10.918  1.00  0.00     0.274 C 
HETATM   19  C   UNL     1     -41.017 -42.437  11.253  1.00  0.00     0.066 C 
ENDBRANCH  10  13
ENDBRANCH   1   7
BRANCH   4  20
HETATM   20  C   UNL     1     -41.887 -51.830  12.221  1.00  0.00     0.052 A 
HETATM   21  C   UNL     1     -40.852 -52.742  12.012  1.00  0.00     0.117 A 
HETATM   22  N   UNL     1     -40.864 -54.016  12.464  1.00  0.00    -0.373 N 
HETATM   23  C   UNL     1     -41.977 -54.415  13.119  1.00  0.00     0.094 A 
ATOM     24  HN  UNL     1     -40.074 -54.644  12.317  1.00  0.00     0.164 HD
HETATM   25  C   UNL     1     -43.068 -53.591  13.375  1.00  0.00    -0.044 A 
HETATM   26  C   UNL     1     -44.308 -54.118  14.025  1.00  0.00     0.049 C 
HETATM   27  C   UNL     1     -43.002 -52.264  12.939  1.00  0.00     0.039 A 
ENDBRANCH   4  20
TORSDOF 3
ENDMDL
MODEL 5
REMARK VINA RESULT:      -6.0      5.766      9.796
REMARK  3 active torsions:
REMARK  status: ('A' for Active; 'I' for Inactive)
REMARK    1  A    between atoms: C_5  and  N_8 
REMARK    2  A    between atoms: C_11  and  N_14 
REMARK       I    between atoms: N_14  and  C_15 
REMARK       I    between atoms: C_15  and  N_17 
REMARK    3  A    between atoms: N_17  and  C_18 
ROOT
HETATM    1  N   UNL     1     -41.201 -51.900  13.832  1.00  0.00    -0.338 N 
HETATM    2  C   UNL     1     -41.284 -51.137  12.688  1.00  0.00     0.321 C 
HETATM    3  O   UNL     1     -41.020 -51.570  11.574  1.00  0.00    -0.247 OA
HETATM    4  N   UNL     1     -41.626 -49.838  12.986  1.00  0.00    -0.308 N 
HETATM    5  H   UNL     1     -41.908 -51.684  14.522  1.00  0.00     0.164 HD
HETATM    6  H   UNL     1     -41.292 -49.525  13.886  1.00  0.00     0.170 HD
ENDROOT
BRANCH   1   7
HETATM    7  C   UNL     1     -40.740 -53.284  13.751  1.00  0.00     0.089 C 
HETATM    8  C   UNL     1     -41.622 -54.228  14.576  1.00  0.00     0.055 C 
HETATM    9  C   UNL     1     -41.321 -54.113  16.071  1.00  0.00     0.275 C 
HETATM   10  N   UNL     1     -39.898 -54.324  16.401  1.00  0.00     0.093 N 
HETATM   11  C   UNL     1     -39.099 -53.319  15.680  1.00  0.00     0.275 C 
HETATM   12  C   UNL     1     -39.269 -53.382  14.162  1.00  0.00     0.055 C 
BRANCH  10  13
HETATM   13  C   UNL     1     -39.435 -55.729  16.215  1.00  0.00     0.226 C 
HETATM   14  C   UNL     1     -40.257 -56.753  17.032  1.00  0.00     0.066 C 
HETATM   15  C   UNL     1     -40.003 -56.622  18.537  1.00  0.00     0.274 C 
HETATM   16  N   UNL     1     -38.587 -56.749  18.911  1.00  0.00     0.084 N 
HETATM   17  C   UNL     1     -38.110 -58.128  18.821  1.00  0.00     0.309 C 
HETATM   18  C   UNL     1     -37.758 -55.821  18.130  1.00  0.00     0.274 C 
HETATM   19  C   UNL     1     -37.958 -55.950  16.616  1.00  0.00     0.066 C 
ENDBRANCH  10  13
ENDBRANCH   1   7
BRANCH   4  20
HETATM   20  C   UNL     1     -41.768 -48.863  11.980  1.00  0.00     0.052 A 
HETATM   21  C   UNL     1     -40.706 -48.089  11.512  1.00  0.00     0.117 A 
HETATM   22  N   UNL     1     -40.826 -47.136  10.561  1.00  0.00    -0.373 N 
HETATM   23  C   UNL     1     -42.070 -46.914  10.081  1.00  0.00     0.094 A 
ATOM     24  HN  UNL     1     -40.019 -46.612  10.222  1.00  0.00     0.164 HD
HETATM   25  C   UNL     1     -43.198 -47.622  10.483  1.00  0.00    -0.044 A 
HETATM   26  C   UNL     1     -44.562 -47.266   9.980  1.00  0.00     0.049 C 
HETATM   27  C   UNL     1     -43.031 -48.636  11.431  1.00  0.00     0.039 A 
ENDBRANCH   4  20
TORSDOF 3
ENDMDL
MODEL 6
REMARK VINA RESULT:      -6.0      1.713      2.186
REMARK  3 active torsions:
REMARK  status: ('A' for Active; 'I' for Inactive)
REMARK    1  A    between atoms: C_5  and  N_8 
REMARK    2  A    between atoms: C_11  and  N_14 
REMARK       I    between atoms: N_14  and  C_15 
REMARK       I    between atoms: C_15  and  N_17 
REMARK    3  A    between atoms: N_17  and  C_18 
ROOT
HETATM    1  N   UNL     1     -42.035 -49.540  12.836  1.00  0.00    -0.338 N 
HETATM    2  C   UNL     1     -42.719 -50.534  13.501  1.00  0.00     0.321 C 
HETATM    3  O   UNL     1     -42.956 -50.497  14.701  1.00  0.00    -0.247 OA
HETATM    4  N   UNL     1     -43.022 -51.575  12.652  1.00  0.00    -0.308 N 
HETATM    5  H   UNL     1     -42.361 -49.376  11.893  1.00  0.00     0.164 HD
HETATM    6  H   UNL     1     -42.345 -51.709  11.915  1.00  0.00     0.170 HD
ENDROOT
BRANCH   1   7
HETATM    7  C   UNL     1     -41.518 -48.392  13.579  1.00  0.00     0.089 C 
HETATM    8  C   UNL     1     -42.616 -47.367  13.880  1.00  0.00     0.055 C 
HETATM    9  C   UNL     1     -42.962 -46.535  12.644  1.00  0.00     0.275 C 
HETATM   10  N   UNL     1     -41.793 -45.868  12.040  1.00  0.00     0.093 N 
HETATM   11  C   UNL     1     -40.815 -46.901  11.656  1.00  0.00     0.275 C 
HETATM   12  C   UNL     1     -40.343 -47.757  12.831  1.00  0.00     0.055 C 
BRANCH  10  13
HETATM   13  C   UNL     1     -41.230 -44.764  12.869  1.00  0.00     0.226 C 
HETATM   14  C   UNL     1     -42.262 -43.657  13.188  1.00  0.00     0.066 C 
HETATM   15  C   UNL     1     -42.636 -42.846  11.943  1.00  0.00     0.274 C 
HETATM   16  N   UNL     1     -41.483 -42.234  11.267  1.00  0.00     0.084 N 
HETATM   17  C   UNL     1     -40.947 -41.093  12.006  1.00  0.00     0.309 C 
HETATM   18  C   UNL     1     -40.454 -43.243  10.978  1.00  0.00     0.274 C 
HETATM   19  C   UNL     1     -40.027 -44.050  12.210  1.00  0.00     0.066 C 
ENDBRANCH  10  13
ENDBRANCH   1   7
BRANCH   4  20
HETATM   20  C   UNL     1     -43.717 -52.714  13.100  1.00  0.00     0.052 A 
HETATM   21  C   UNL     1     -45.065 -52.942  12.822  1.00  0.00     0.117 A 
HETATM   22  N   UNL     1     -45.755 -54.021  13.258  1.00  0.00    -0.373 N 
HETATM   23  C   UNL     1     -45.083 -54.892  14.041  1.00  0.00     0.094 A 
ATOM     24  HN  UNL     1     -46.733 -54.168  13.008  1.00  0.00     0.164 HD
HETATM   25  C   UNL     1     -43.742 -54.757  14.385  1.00  0.00    -0.044 A 
HETATM   26  C   UNL     1     -43.079 -55.708  15.332  1.00  0.00     0.049 C 
HETATM   27  C   UNL     1     -43.044 -53.657  13.876  1.00  0.00     0.039 A 
ENDBRANCH   4  20
TORSDOF 3
ENDMDL
MODEL 7
REMARK VINA RESULT:      -5.9      5.072      9.028
REMARK  3 active torsions:
REMARK  status: ('A' for Active; 'I' for Inactive)
REMARK    1  A    between atoms: C_5  and  N_8 
REMARK    2  A    between atoms: C_11  and  N_14 
REMARK       I    between atoms: N_14  and  C_15 
REMARK       I    between atoms: C_15  and  N_17 
REMARK    3  A    between atoms: N_17  and  C_18 
ROOT
HETATM    1  N   UNL     1     -41.376 -51.286  12.304  1.00  0.00    -0.338 N 
HETATM    2  C   UNL     1     -41.762 -49.970  12.179  1.00  0.00     0.321 C 
HETATM    3  O   UNL     1     -42.425 -49.384  13.024  1.00  0.00    -0.247 OA
HETATM    4  N   UNL     1     -41.366 -49.454  10.966  1.00  0.00    -0.308 N 
HETATM    5  H   UNL     1     -40.462 -51.485  11.917  1.00  0.00     0.164 HD
HETATM    6  H   UNL     1     -41.334 -50.137  10.223  1.00  0.00     0.170 HD
ENDROOT
BRANCH   1   7
HETATM    7  C   UNL     1     -41.795 -52.059  13.471  1.00  0.00     0.089 C 
HETATM    8  C   UNL     1     -41.217 -51.488  14.771  1.00  0.00     0.055 C 
HETATM    9  C   UNL     1     -39.741 -51.854  14.936  1.00  0.00     0.275 C 
HETATM   10  N   UNL     1     -39.483 -53.305  14.858  1.00  0.00     0.093 N 
HETATM   11  C   UNL     1     -39.945 -53.788  13.544  1.00  0.00     0.275 C 
HETATM   12  C   UNL     1     -41.431 -53.535  13.293  1.00  0.00     0.055 C 
BRANCH  10  13
HETATM   13  C   UNL     1     -40.010 -54.078  16.019  1.00  0.00     0.226 C 
HETATM   14  C   UNL     1     -39.542 -53.517  17.383  1.00  0.00     0.066 C 
HETATM   15  C   UNL     1     -38.044 -53.743  17.612  1.00  0.00     0.274 C 
HETATM   16  N   UNL     1     -37.637 -55.153  17.517  1.00  0.00     0.084 N 
HETATM   17  C   UNL     1     -38.063 -55.933  18.677  1.00  0.00     0.309 C 
HETATM   18  C   UNL     1     -38.095 -55.742  16.251  1.00  0.00     0.274 C 
HETATM   19  C   UNL     1     -39.598 -55.568  16.005  1.00  0.00     0.066 C 
ENDBRANCH  10  13
ENDBRANCH   1   7
BRANCH   4  20
HETATM   20  C   UNL     1     -41.650 -48.124  10.602  1.00  0.00     0.052 A 
HETATM   21  C   UNL     1     -40.834 -47.047  10.949  1.00  0.00     0.117 A 
HETATM   22  N   UNL     1     -41.098 -45.762  10.624  1.00  0.00    -0.373 N 
HETATM   23  C   UNL     1     -42.250 -45.531   9.957  1.00  0.00     0.094 A 
ATOM     24  HN  UNL     1     -40.460 -45.004  10.871  1.00  0.00     0.164 HD
HETATM   25  C   UNL     1     -43.138 -46.529   9.568  1.00  0.00    -0.044 A 
HETATM   26  C   UNL     1     -44.443 -46.200   8.912  1.00  0.00     0.049 C 
HETATM   27  C   UNL     1     -42.810 -47.853   9.875  1.00  0.00     0.039 A 
ENDBRANCH   4  20
TORSDOF 3
ENDMDL
MODEL 8
REMARK VINA RESULT:      -5.9      3.827      9.346
REMARK  3 active torsions:
REMARK  status: ('A' for Active; 'I' for Inactive)
REMARK    1  A    between atoms: C_5  and  N_8 
REMARK    2  A    between atoms: C_11  and  N_14 
REMARK       I    between atoms: N_14  and  C_15 
REMARK       I    between atoms: C_15  and  N_17 
REMARK    3  A    between atoms: N_17  and  C_18 
ROOT
HETATM    1  N   UNL     1     -42.381 -50.451  12.338  1.00  0.00    -0.338 N 
HETATM    2  C   UNL     1     -41.553 -49.482  11.816  1.00  0.00     0.321 C 
HETATM    3  O   UNL     1     -40.487 -49.734  11.271  1.00  0.00    -0.247 OA
HETATM    4  N   UNL     1     -42.054 -48.223  12.060  1.00  0.00    -0.308 N 
HETATM    5  H   UNL     1     -43.366 -50.247  12.239  1.00  0.00     0.164 HD
HETATM    6  H   UNL     1     -42.585 -48.155  12.916  1.00  0.00     0.170 HD
ENDROOT
BRANCH   1   7
HETATM    7  C   UNL     1     -41.977 -51.855  12.288  1.00  0.00     0.089 C 
HETATM    8  C   UNL     1     -43.117 -52.791  12.706  1.00  0.00     0.055 C 
HETATM    9  C   UNL     1     -43.309 -52.798  14.224  1.00  0.00     0.275 C 
HETATM   10  N   UNL     1     -42.078 -53.127  14.970  1.00  0.00     0.093 N 
HETATM   11  C   UNL     1     -41.048 -52.131  14.628  1.00  0.00     0.275 C 
HETATM   12  C   UNL     1     -40.723 -52.080  13.136  1.00  0.00     0.055 C 
BRANCH  10  13
HETATM   13  C   UNL     1     -41.639 -54.544  14.820  1.00  0.00     0.226 C 
HETATM   14  C   UNL     1     -42.567 -55.547  15.544  1.00  0.00     0.066 C 
HETATM   15  C   UNL     1     -42.459 -55.430  17.068  1.00  0.00     0.274 C 
HETATM   16  N   UNL     1     -41.091 -55.599  17.580  1.00  0.00     0.084 N 
HETATM   17  C   UNL     1     -40.647 -56.991  17.527  1.00  0.00     0.309 C 
HETATM   18  C   UNL     1     -40.163 -54.692  16.890  1.00  0.00     0.274 C 
HETATM   19  C   UNL     1     -40.216 -54.809  15.363  1.00  0.00     0.066 C 
ENDBRANCH  10  13
ENDBRANCH   1   7
BRANCH   4  20
HETATM   20  C   UNL     1     -41.382 -47.064  11.628  1.00  0.00     0.052 A 
HETATM   21  C   UNL     1     -41.425 -46.604  10.312  1.00  0.00     0.117 A 
HETATM   22  N   UNL     1     -40.772 -45.504   9.873  1.00  0.00    -0.373 N 
HETATM   23  C   UNL     1     -40.008 -44.854  10.778  1.00  0.00     0.094 A 
ATOM     24  HN  UNL     1     -40.853 -45.182   8.909  1.00  0.00     0.164 HD
HETATM   25  C   UNL     1     -39.888 -45.231  12.111  1.00  0.00    -0.044 A 
HETATM   26  C   UNL     1     -38.953 -44.523  13.042  1.00  0.00     0.049 C 
HETATM   27  C   UNL     1     -40.616 -46.343  12.545  1.00  0.00     0.039 A 
ENDBRANCH   4  20
TORSDOF 3
ENDMDL
MODEL 9
REMARK VINA RESULT:      -5.8      4.279      9.409
REMARK  3 active torsions:
REMARK  status: ('A' for Active; 'I' for Inactive)
REMARK    1  A    between atoms: C_5  and  N_8 
REMARK    2  A    between atoms: C_11  and  N_14 
REMARK       I    between atoms: N_14  and  C_15 
REMARK       I    between atoms: C_15  and  N_17 
REMARK    3  A    between atoms: N_17  and  C_18 
ROOT
HETATM    1  N   UNL     1     -42.332 -51.459  12.755  1.00  0.00    -0.338 N 
HETATM    2  C   UNL     1     -42.576 -50.122  12.526  1.00  0.00     0.321 C 
HETATM    3  O   UNL     1     -43.356 -49.459  13.197  1.00  0.00    -0.247 OA
HETATM    4  N   UNL     1     -41.889 -49.680  11.419  1.00  0.00    -0.308 N 
HETATM    5  H   UNL     1     -41.377 -51.738  12.579  1.00  0.00     0.164 HD
HETATM    6  H   UNL     1     -41.752 -50.389  10.713  1.00  0.00     0.170 HD
ENDROOT
BRANCH   1   7
HETATM    7  C   UNL     1     -43.053 -52.157  13.817  1.00  0.00     0.089 C 
HETATM    8  C   UNL     1     -42.532 -51.774  15.207  1.00  0.00     0.055 C 
HETATM    9  C   UNL     1     -41.205 -52.466  15.519  1.00  0.00     0.275 C 
HETATM   10  N   UNL     1     -41.262 -53.935  15.382  1.00  0.00     0.093 N 
HETATM   11  C   UNL     1     -41.649 -54.258  13.998  1.00  0.00     0.275 C 
HETATM   12  C   UNL     1     -43.001 -53.670  13.592  1.00  0.00     0.055 C 
BRANCH  10  13
HETATM   13  C   UNL     1     -42.086 -54.609  16.426  1.00  0.00     0.226 C 
HETATM   14  C   UNL     1     -41.735 -54.155  17.863  1.00  0.00     0.066 C 
HETATM   15  C   UNL     1     -40.353 -54.652  18.299  1.00  0.00     0.274 C 
HETATM   16  N   UNL     1     -40.195 -56.111  18.214  1.00  0.00     0.084 N 
HETATM   17  C   UNL     1     -40.922 -56.811  19.271  1.00  0.00     0.309 C 
HETATM   18  C   UNL     1     -40.556 -56.596  16.875  1.00  0.00     0.274 C 
HETATM   19  C   UNL     1     -41.950 -56.148  16.419  1.00  0.00     0.066 C 
ENDBRANCH  10  13
ENDBRANCH   1   7
BRANCH   4  20
HETATM   20  C   UNL     1     -41.980 -48.346  10.978  1.00  0.00     0.052 A 
HETATM   21  C   UNL     1     -43.110 -47.826  10.346  1.00  0.00     0.117 A 
HETATM   22  N   UNL     1     -43.210 -46.554   9.900  1.00  0.00    -0.373 N 
HETATM   23  C   UNL     1     -42.118 -45.772  10.054  1.00  0.00     0.094 A 
ATOM     24  HN  UNL     1     -44.065 -46.202   9.470  1.00  0.00     0.164 HD
HETATM   25  C   UNL     1     -40.939 -46.191  10.662  1.00  0.00    -0.044 A 
HETATM   26  C   UNL     1     -39.734 -45.305  10.720  1.00  0.00     0.049 C 
HETATM   27  C   UNL     1     -40.887 -47.497  11.158  1.00  0.00     0.039 A 
ENDBRANCH   4  20
TORSDOF 3
ENDMDL
