MODEL 1
REMARK VINA RESULT:      -5.7      0.000      0.000
REMARK  3 active torsions:
REMARK  status: ('A' for Active; 'I' for Inactive)
REMARK    1  A    between atoms: C_2  and  N_3 
REMARK    2  A    between atoms: C_2  and  C_14 
REMARK       I    between atoms: N_3  and  C_4 
REMARK       I    between atoms: C_4  and  N_6 
REMARK    3  A    between atoms: N_6  and  C_7 
ROOT
HETATM    1  N   UNL     1     -43.020 -49.044  12.122  1.00  0.00    -0.336 N 
HETATM    2  C   UNL     1     -42.319 -50.202  12.190  1.00  0.00     0.322 C 
HETATM    3  O   UNL     1     -41.166 -50.320  11.781  1.00  0.00    -0.247 OA
HETATM    4  N   UNL     1     -42.972 -51.276  12.728  1.00  0.00    -0.295 N 
HETATM    5  H   UNL     1     -44.007 -49.130  12.351  1.00  0.00     0.164 HD
HETATM    6  H   UNL     1     -42.435 -52.129  12.693  1.00  0.00     0.172 HD
ENDROOT
BRANCH   1   7
HETATM    7  C   UNL     1     -42.569 -47.801  11.513  1.00  0.00     0.111 C 
HETATM    8  C   UNL     1     -42.905 -46.664  12.480  1.00  0.00     0.035 C 
BRANCH   7   9
HETATM    9  C   UNL     1     -43.192 -47.593  10.112  1.00  0.00     0.143 C 
HETATM   10  C   UNL     1     -42.891 -46.224   9.506  1.00  0.00     0.036 C 
HETATM   11  C   UNL     1     -44.205 -45.753   8.918  1.00  0.00     0.029 C 
HETATM   12  C   UNL     1     -45.138 -46.933   9.061  1.00  0.00     0.168 C 
HETATM   13  O   UNL     1     -44.630 -47.699  10.155  1.00  0.00    -0.384 OA
ENDBRANCH   7   9
ENDBRANCH   1   7
BRANCH   4  14
HETATM   14  C   UNL     1     -44.256 -51.316  13.288  1.00  0.00     0.108 A 
HETATM   15  C   UNL     1     -44.392 -51.076  14.650  1.00  0.00     0.049 A 
HETATM   16  C   UNL     1     -45.663 -51.150  15.221  1.00  0.00     0.005 A 
HETATM   17  C   UNL     1     -46.762 -51.425  14.414  1.00  0.00     0.017 A 
HETATM   18  C   UNL     1     -46.543 -51.627  13.068  1.00  0.00     0.089 A 
HETATM   19  N   UNL     1     -45.319 -51.596  12.502  1.00  0.00    -0.352 N 
ATOM     20  HN  UNL     1     -45.199 -51.780  11.505  1.00  0.00     0.166 HD
ENDBRANCH   4  14
TORSDOF 3
ENDMDL
MODEL 2
REMARK VINA RESULT:      -5.7      1.611      2.261
REMARK  3 active torsions:
REMARK  status: ('A' for Active; 'I' for Inactive)
REMARK    1  A    between atoms: C_2  and  N_3 
REMARK    2  A    between atoms: C_2  and  C_14 
REMARK       I    between atoms: N_3  and  C_4 
REMARK       I    between atoms: C_4  and  N_6 
REMARK    3  A    between atoms: N_6  and  C_7 
ROOT
HETATM    1  N   UNL     1     -41.982 -50.893  12.019  1.00  0.00    -0.336 N 
HETATM    2  C   UNL     1     -41.846 -52.241  12.055  1.00  0.00     0.322 C 
HETATM    3  O   UNL     1     -40.811 -52.826  11.740  1.00  0.00    -0.247 OA
HETATM    4  N   UNL     1     -42.947 -52.952  12.445  1.00  0.00    -0.295 N 
HETATM    5  H   UNL     1     -42.933 -50.558  12.154  1.00  0.00     0.164 HD
HETATM    6  H   UNL     1     -42.819 -53.951  12.389  1.00  0.00     0.172 HD
ENDROOT
BRANCH   1   7
HETATM    7  C   UNL     1     -40.984 -49.941  11.554  1.00  0.00     0.111 C 
HETATM    8  C   UNL     1     -39.874 -49.886  12.605  1.00  0.00     0.035 C 
BRANCH   7   9
HETATM    9  C   UNL     1     -41.605 -48.553  11.271  1.00  0.00     0.143 C 
HETATM   10  C   UNL     1     -42.976 -48.354  11.913  1.00  0.00     0.036 C 
HETATM   11  C   UNL     1     -43.824 -47.697  10.843  1.00  0.00     0.029 C 
HETATM   12  C   UNL     1     -42.862 -47.399   9.717  1.00  0.00     0.168 C 
HETATM   13  O   UNL     1     -41.796 -48.340   9.857  1.00  0.00    -0.384 OA
ENDBRANCH   7   9
ENDBRANCH   1   7
BRANCH   4  14
HETATM   14  C   UNL     1     -44.183 -52.460  12.886  1.00  0.00     0.108 A 
HETATM   15  C   UNL     1     -44.272 -51.953  14.176  1.00  0.00     0.049 A 
HETATM   16  C   UNL     1     -45.508 -51.495  14.634  1.00  0.00     0.005 A 
HETATM   17  C   UNL     1     -46.607 -51.523  13.782  1.00  0.00     0.017 A 
HETATM   18  C   UNL     1     -46.428 -52.019  12.510  1.00  0.00     0.089 A 
HETATM   19  N   UNL     1     -45.251 -52.501  12.058  1.00  0.00    -0.352 N 
ATOM     20  HN  UNL     1     -45.170 -52.887  11.117  1.00  0.00     0.166 HD
ENDBRANCH   4  14
TORSDOF 3
ENDMDL
MODEL 3
REMARK VINA RESULT:      -5.7      2.053      5.432
REMARK  3 active torsions:
REMARK  status: ('A' for Active; 'I' for Inactive)
REMARK    1  A    between atoms: C_2  and  N_3 
REMARK    2  A    between atoms: C_2  and  C_14 
REMARK       I    between atoms: N_3  and  C_4 
REMARK       I    between atoms: C_4  and  N_6 
REMARK    3  A    between atoms: N_6  and  C_7 
ROOT
HETATM    1  N   UNL     1     -41.851 -50.055  11.630  1.00  0.00    -0.336 N 
HETATM    2  C   UNL     1     -40.911 -49.113  11.371  1.00  0.00     0.322 C 
HETATM    3  O   UNL     1     -39.774 -49.146  11.838  1.00  0.00    -0.247 OA
HETATM    4  N   UNL     1     -41.293 -48.080  10.562  1.00  0.00    -0.295 N 
HETATM    5  H   UNL     1     -42.787 -49.820  11.307  1.00  0.00     0.164 HD
HETATM    6  H   UNL     1     -40.584 -47.371  10.456  1.00  0.00     0.172 HD
ENDROOT
BRANCH   1   7
HETATM    7  C   UNL     1     -41.705 -51.190  12.528  1.00  0.00     0.111 C 
HETATM    8  C   UNL     1     -41.205 -52.374  11.697  1.00  0.00     0.035 C 
BRANCH   7   9
HETATM    9  C   UNL     1     -43.023 -51.503  13.274  1.00  0.00     0.143 C 
HETATM   10  C   UNL     1     -43.644 -52.843  12.886  1.00  0.00     0.036 C 
HETATM   11  C   UNL     1     -45.123 -52.563  12.722  1.00  0.00     0.029 C 
HETATM   12  C   UNL     1     -45.300 -51.135  13.186  1.00  0.00     0.168 C 
HETATM   13  O   UNL     1     -44.031 -50.507  13.001  1.00  0.00    -0.384 OA
ENDBRANCH   7   9
ENDBRANCH   1   7
BRANCH   4  14
HETATM   14  C   UNL     1     -42.518 -47.904   9.903  1.00  0.00     0.108 A 
HETATM   15  C   UNL     1     -43.634 -47.571  10.660  1.00  0.00     0.049 A 
HETATM   16  C   UNL     1     -44.864 -47.431  10.016  1.00  0.00     0.005 A 
HETATM   17  C   UNL     1     -44.937 -47.591   8.636  1.00  0.00     0.017 A 
HETATM   18  C   UNL     1     -43.777 -47.898   7.957  1.00  0.00     0.089 A 
HETATM   19  N   UNL     1     -42.586 -48.074   8.564  1.00  0.00    -0.352 N 
ATOM     20  HN  UNL     1     -41.757 -48.329   8.026  1.00  0.00     0.166 HD
ENDBRANCH   4  14
TORSDOF 3
ENDMDL
MODEL 4
REMARK VINA RESULT:      -5.6      4.158      6.077
REMARK  3 active torsions:
REMARK  status: ('A' for Active; 'I' for Inactive)
REMARK    1  A    between atoms: C_2  and  N_3 
REMARK    2  A    between atoms: C_2  and  C_14 
REMARK       I    between atoms: N_3  and  C_4 
REMARK       I    between atoms: C_4  and  N_6 
REMARK    3  A    between atoms: N_6  and  C_7 
ROOT
HETATM    1  N   UNL     1     -45.007 -52.640  13.056  1.00  0.00    -0.336 N 
HETATM    2  C   UNL     1     -44.499 -53.887  12.894  1.00  0.00     0.322 C 
HETATM    3  O   UNL     1     -45.194 -54.898  12.835  1.00  0.00    -0.247 OA
HETATM    4  N   UNL     1     -43.137 -53.981  12.818  1.00  0.00    -0.295 N 
HETATM    5  H   UNL     1     -44.315 -51.920  13.245  1.00  0.00     0.164 HD
HETATM    6  H   UNL     1     -42.805 -54.932  12.768  1.00  0.00     0.172 HD
ENDROOT
BRANCH   1   7
HETATM    7  C   UNL     1     -46.410 -52.304  13.251  1.00  0.00     0.111 C 
HETATM    8  C   UNL     1     -46.923 -51.693  11.945  1.00  0.00     0.035 C 
BRANCH   7   9
HETATM    9  C   UNL     1     -46.610 -51.365  14.464  1.00  0.00     0.143 C 
HETATM   10  C   UNL     1     -45.309 -50.989  15.168  1.00  0.00     0.036 C 
HETATM   11  C   UNL     1     -45.609 -51.111  16.648  1.00  0.00     0.029 C 
HETATM   12  C   UNL     1     -47.094 -51.380  16.721  1.00  0.00     0.168 C 
HETATM   13  O   UNL     1     -47.442 -51.978  15.471  1.00  0.00    -0.384 OA
ENDBRANCH   7   9
ENDBRANCH   1   7
BRANCH   4  14
HETATM   14  C   UNL     1     -42.197 -52.942  12.814  1.00  0.00     0.108 A 
HETATM   15  C   UNL     1     -41.545 -52.635  14.002  1.00  0.00     0.049 A 
HETATM   16  C   UNL     1     -40.634 -51.578  14.015  1.00  0.00     0.005 A 
HETATM   17  C   UNL     1     -40.375 -50.883  12.838  1.00  0.00     0.017 A 
HETATM   18  C   UNL     1     -41.047 -51.267  11.698  1.00  0.00     0.089 A 
HETATM   19  N   UNL     1     -41.958 -52.261  11.671  1.00  0.00    -0.352 N 
ATOM     20  HN  UNL     1     -42.454 -52.494  10.810  1.00  0.00     0.166 HD
ENDBRANCH   4  14
TORSDOF 3
ENDMDL
MODEL 5
REMARK VINA RESULT:      -5.6      4.283      5.846
REMARK  3 active torsions:
REMARK  status: ('A' for Active; 'I' for Inactive)
REMARK    1  A    between atoms: C_2  and  N_3 
REMARK    2  A    between atoms: C_2  and  C_14 
REMARK       I    between atoms: N_3  and  C_4 
REMARK       I    between atoms: C_4  and  N_6 
REMARK    3  A    between atoms: N_6  and  C_7 
ROOT
HETATM    1  N   UNL     1     -40.446 -47.260  11.069  1.00  0.00    -0.336 N 
HETATM    2  C   UNL     1     -41.231 -48.219  10.520  1.00  0.00     0.322 C 
HETATM    3  O   UNL     1     -42.254 -47.975   9.883  1.00  0.00    -0.247 OA
HETATM    4  N   UNL     1     -40.841 -49.513  10.725  1.00  0.00    -0.295 N 
HETATM    5  H   UNL     1     -39.725 -47.608  11.696  1.00  0.00     0.164 HD
HETATM    6  H   UNL     1     -41.491 -50.190  10.359  1.00  0.00     0.172 HD
ENDROOT
BRANCH   1   7
HETATM    7  C   UNL     1     -40.708 -45.828  11.060  1.00  0.00     0.111 C 
HETATM    8  C   UNL     1     -39.654 -45.173  10.165  1.00  0.00     0.035 C 
BRANCH   7   9
HETATM    9  C   UNL     1     -40.721 -45.239  12.490  1.00  0.00     0.143 C 
HETATM   10  C   UNL     1     -39.368 -44.693  12.940  1.00  0.00     0.036 C 
HETATM   11  C   UNL     1     -39.193 -45.187  14.361  1.00  0.00     0.029 C 
HETATM   12  C   UNL     1     -40.512 -45.836  14.710  1.00  0.00     0.168 C 
HETATM   13  O   UNL     1     -41.088 -46.237  13.466  1.00  0.00    -0.384 OA
ENDBRANCH   7   9
ENDBRANCH   1   7
BRANCH   4  14
HETATM   14  C   UNL     1     -39.687 -49.976  11.374  1.00  0.00     0.108 A 
HETATM   15  C   UNL     1     -39.819 -50.531  12.641  1.00  0.00     0.049 A 
HETATM   16  C   UNL     1     -38.671 -50.960  13.308  1.00  0.00     0.005 A 
HETATM   17  C   UNL     1     -37.434 -50.857  12.680  1.00  0.00     0.017 A 
HETATM   18  C   UNL     1     -37.395 -50.317  11.413  1.00  0.00     0.089 A 
HETATM   19  N   UNL     1     -38.486 -49.862  10.764  1.00  0.00    -0.352 N 
ATOM     20  HN  UNL     1     -38.408 -49.442   9.837  1.00  0.00     0.166 HD
ENDBRANCH   4  14
TORSDOF 3
ENDMDL
MODEL 6
REMARK VINA RESULT:      -5.2      2.526      3.173
REMARK  3 active torsions:
REMARK  status: ('A' for Active; 'I' for Inactive)
REMARK    1  A    between atoms: C_2  and  N_3 
REMARK    2  A    between atoms: C_2  and  C_14 
REMARK       I    between atoms: N_3  and  C_4 
REMARK       I    between atoms: C_4  and  N_6 
REMARK    3  A    between atoms: N_6  and  C_7 
ROOT
HETATM    1  N   UNL     1     -41.066 -49.905  12.778  1.00  0.00    -0.336 N 
HETATM    2  C   UNL     1     -40.454 -50.497  11.723  1.00  0.00     0.322 C 
HETATM    3  O   UNL     1     -39.602 -49.938  11.034  1.00  0.00    -0.247 OA
HETATM    4  N   UNL     1     -40.848 -51.772  11.429  1.00  0.00    -0.295 N 
HETATM    5  H   UNL     1     -41.855 -50.423  13.156  1.00  0.00     0.164 HD
HETATM    6  H   UNL     1     -40.416 -52.143  10.597  1.00  0.00     0.172 HD
ENDROOT
BRANCH   1   7
HETATM    7  C   UNL     1     -40.877 -48.532  13.220  1.00  0.00     0.111 C 
HETATM    8  C   UNL     1     -41.096 -48.501  14.734  1.00  0.00     0.035 C 
BRANCH   7   9
HETATM    9  C   UNL     1     -41.808 -47.554  12.465  1.00  0.00     0.143 C 
HETATM   10  C   UNL     1     -43.110 -48.194  11.988  1.00  0.00     0.036 C 
HETATM   11  C   UNL     1     -43.303 -47.692  10.572  1.00  0.00     0.029 C 
HETATM   12  C   UNL     1     -42.210 -46.668  10.372  1.00  0.00     0.168 C 
HETATM   13  O   UNL     1     -41.170 -47.028  11.283  1.00  0.00    -0.384 OA
ENDBRANCH   7   9
ENDBRANCH   1   7
BRANCH   4  14
HETATM   14  C   UNL     1     -41.758 -52.579  12.128  1.00  0.00     0.108 A 
HETATM   15  C   UNL     1     -41.277 -53.385  13.152  1.00  0.00     0.049 A 
HETATM   16  C   UNL     1     -42.170 -54.218  13.826  1.00  0.00     0.005 A 
HETATM   17  C   UNL     1     -43.519 -54.195  13.485  1.00  0.00     0.017 A 
HETATM   18  C   UNL     1     -43.917 -53.348  12.473  1.00  0.00     0.089 A 
HETATM   19  N   UNL     1     -43.065 -52.563  11.783  1.00  0.00    -0.352 N 
ATOM     20  HN  UNL     1     -43.398 -51.971  11.021  1.00  0.00     0.166 HD
ENDBRANCH   4  14
TORSDOF 3
ENDMDL
MODEL 7
REMARK VINA RESULT:      -5.2      2.767      6.476
REMARK  3 active torsions:
REMARK  status: ('A' for Active; 'I' for Inactive)
REMARK    1  A    between atoms: C_2  and  N_3 
REMARK    2  A    between atoms: C_2  and  C_14 
REMARK       I    between atoms: N_3  and  C_4 
REMARK       I    between atoms: C_4  and  N_6 
REMARK    3  A    between atoms: N_6  and  C_7 
ROOT
HETATM    1  N   UNL     1     -42.578 -51.926  12.171  1.00  0.00    -0.336 N 
HETATM    2  C   UNL     1     -41.273 -51.864  11.805  1.00  0.00     0.322 C 
HETATM    3  O   UNL     1     -40.522 -52.837  11.812  1.00  0.00    -0.247 OA
HETATM    4  N   UNL     1     -40.804 -50.634  11.437  1.00  0.00    -0.295 N 
HETATM    5  H   UNL     1     -43.035 -51.023  12.267  1.00  0.00     0.164 HD
HETATM    6  H   UNL     1     -39.815 -50.625  11.242  1.00  0.00     0.172 HD
ENDROOT
BRANCH   1   7
HETATM    7  C   UNL     1     -43.271 -53.099  12.682  1.00  0.00     0.111 C 
HETATM    8  C   UNL     1     -44.761 -52.919  12.386  1.00  0.00     0.035 C 
BRANCH   7   9
HETATM    9  C   UNL     1     -42.986 -53.322  14.186  1.00  0.00     0.143 C 
HETATM   10  C   UNL     1     -42.086 -54.522  14.467  1.00  0.00     0.036 C 
HETATM   11  C   UNL     1     -42.728 -55.233  15.641  1.00  0.00     0.029 C 
HETATM   12  C   UNL     1     -43.852 -54.322  16.077  1.00  0.00     0.168 C 
HETATM   13  O   UNL     1     -44.204 -53.560  14.921  1.00  0.00    -0.384 OA
ENDBRANCH   7   9
ENDBRANCH   1   7
BRANCH   4  14
HETATM   14  C   UNL     1     -41.521 -49.434  11.320  1.00  0.00     0.108 A 
HETATM   15  C   UNL     1     -42.068 -48.876  12.468  1.00  0.00     0.049 A 
HETATM   16  C   UNL     1     -42.813 -47.702  12.354  1.00  0.00     0.005 A 
HETATM   17  C   UNL     1     -42.960 -47.102  11.107  1.00  0.00     0.017 A 
HETATM   18  C   UNL     1     -42.365 -47.709  10.022  1.00  0.00     0.089 A 
HETATM   19  N   UNL     1     -41.672 -48.863  10.104  1.00  0.00    -0.352 N 
ATOM     20  HN  UNL     1     -41.271 -49.294   9.270  1.00  0.00     0.166 HD
ENDBRANCH   4  14
TORSDOF 3
ENDMDL
MODEL 8
REMARK VINA RESULT:      -5.2      3.943      7.590
REMARK  3 active torsions:
REMARK  status: ('A' for Active; 'I' for Inactive)
REMARK    1  A    between atoms: C_2  and  N_3 
REMARK    2  A    between atoms: C_2  and  C_14 
REMARK       I    between atoms: N_3  and  C_4 
REMARK       I    between atoms: C_4  and  N_6 
REMARK    3  A    between atoms: N_6  and  C_7 
ROOT
HETATM    1  N   UNL     1     -43.578 -53.622  14.144  1.00  0.00    -0.336 N 
HETATM    2  C   UNL     1     -43.949 -53.764  12.847  1.00  0.00     0.322 C 
HETATM    3  O   UNL     1     -44.872 -54.490  12.483  1.00  0.00    -0.247 OA
HETATM    4  N   UNL     1     -43.221 -53.063  11.928  1.00  0.00    -0.295 N 
HETATM    5  H   UNL     1     -42.707 -53.117  14.283  1.00  0.00     0.164 HD
HETATM    6  H   UNL     1     -43.489 -53.254  10.974  1.00  0.00     0.172 HD
ENDROOT
BRANCH   1   7
HETATM    7  C   UNL     1     -44.143 -54.333  15.281  1.00  0.00     0.111 C 
HETATM    8  C   UNL     1     -45.216 -53.435  15.900  1.00  0.00     0.035 C 
BRANCH   7   9
HETATM    9  C   UNL     1     -43.053 -54.744  16.298  1.00  0.00     0.143 C 
HETATM   10  C   UNL     1     -41.676 -54.165  15.986  1.00  0.00     0.036 C 
HETATM   11  C   UNL     1     -40.706 -55.310  16.196  1.00  0.00     0.029 C 
HETATM   12  C   UNL     1     -41.546 -56.425  16.777  1.00  0.00     0.168 C 
HETATM   13  O   UNL     1     -42.881 -56.176  16.334  1.00  0.00    -0.384 OA
ENDBRANCH   7   9
ENDBRANCH   1   7
BRANCH   4  14
HETATM   14  C   UNL     1     -42.179 -52.154  12.160  1.00  0.00     0.108 A 
HETATM   15  C   UNL     1     -40.925 -52.655  12.486  1.00  0.00     0.049 A 
HETATM   16  C   UNL     1     -39.892 -51.757  12.755  1.00  0.00     0.005 A 
HETATM   17  C   UNL     1     -40.130 -50.389  12.656  1.00  0.00     0.017 A 
HETATM   18  C   UNL     1     -41.396 -49.977  12.303  1.00  0.00     0.089 A 
HETATM   19  N   UNL     1     -42.419 -50.826  12.075  1.00  0.00    -0.352 N 
ATOM     20  HN  UNL     1     -43.349 -50.477  11.844  1.00  0.00     0.166 HD
ENDBRANCH   4  14
TORSDOF 3
ENDMDL
MODEL 9
REMARK VINA RESULT:      -5.0      3.560      6.162
REMARK  3 active torsions:
REMARK  status: ('A' for Active; 'I' for Inactive)
REMARK    1  A    between atoms: C_2  and  N_3 
REMARK    2  A    between atoms: C_2  and  C_14 
REMARK       I    between atoms: N_3  and  C_4 
REMARK       I    between atoms: C_4  and  N_6 
REMARK    3  A    between atoms: N_6  and  C_7 
ROOT
HETATM    1  N   UNL     1     -44.149 -52.232  13.714  1.00  0.00    -0.336 N 
HETATM    2  C   UNL     1     -43.987 -53.037  12.635  1.00  0.00     0.322 C 
HETATM    3  O   UNL     1     -44.815 -53.877  12.287  1.00  0.00    -0.247 OA
HETATM    4  N   UNL     1     -42.821 -52.890  11.938  1.00  0.00    -0.295 N 
HETATM    5  H   UNL     1     -43.323 -51.699  13.974  1.00  0.00     0.164 HD
HETATM    6  H   UNL     1     -42.715 -53.556  11.189  1.00  0.00     0.172 HD
ENDROOT
BRANCH   1   7
HETATM    7  C   UNL     1     -45.260 -52.269  14.653  1.00  0.00     0.111 C 
HETATM    8  C   UNL     1     -46.395 -51.432  14.059  1.00  0.00     0.035 C 
BRANCH   7   9
HETATM    9  C   UNL     1     -44.837 -51.782  16.059  1.00  0.00     0.143 C 
HETATM   10  C   UNL     1     -45.740 -50.691  16.627  1.00  0.00     0.036 C 
HETATM   11  C   UNL     1     -44.797 -49.667  17.227  1.00  0.00     0.029 C 
HETATM   12  C   UNL     1     -43.428 -50.299  17.128  1.00  0.00     0.168 C 
HETATM   13  O   UNL     1     -43.506 -51.226  16.044  1.00  0.00    -0.384 OA
ENDBRANCH   7   9
ENDBRANCH   1   7
BRANCH   4  14
HETATM   14  C   UNL     1     -41.795 -51.959  12.154  1.00  0.00     0.108 A 
HETATM   15  C   UNL     1     -40.669 -52.366  12.858  1.00  0.00     0.049 A 
HETATM   16  C   UNL     1     -39.660 -51.435  13.109  1.00  0.00     0.005 A 
HETATM   17  C   UNL     1     -39.788 -50.138  12.621  1.00  0.00     0.017 A 
HETATM   18  C   UNL     1     -40.927 -49.823  11.912  1.00  0.00     0.089 A 
HETATM   19  N   UNL     1     -41.930 -50.696  11.689  1.00  0.00    -0.352 N 
ATOM     20  HN  UNL     1     -42.770 -50.412  11.183  1.00  0.00     0.166 HD
ENDBRANCH   4  14
TORSDOF 3
ENDMDL
