MODEL 1
REMARK VINA RESULT:      -5.9      0.000      0.000
REMARK  5 active torsions:
REMARK  status: ('A' for Active; 'I' for Inactive)
REMARK    1  A    between atoms: C_2  and  C_3 
REMARK    2  A    between atoms: C_2  and  N_14 
REMARK    3  A    between atoms: C_3  and  N_4 
REMARK       I    between atoms: N_4  and  C_5 
REMARK    4  A    between atoms: C_5  and  C_7 
REMARK    5  A    between atoms: C_7  and  N_8 
ROOT
HETATM    1  C   UNL     1     -42.983 -53.222  12.591  1.00  0.00     0.158 C 
ENDROOT
BRANCH   1   2
HETATM    2  C   UNL     1     -43.553 -53.126  14.043  1.00  0.00     0.236 C 
HETATM    3  C   UNL     1     -42.632 -53.966  14.955  1.00  0.00     0.044 C 
BRANCH   2   4
HETATM    4  N   UNL     1     -44.966 -53.606  14.142  1.00  0.00     0.099 N 
HETATM    5  C   UNL     1     -45.796 -53.271  12.953  1.00  0.00     0.304 C 
HETATM    6  C   UNL     1     -46.171 -51.774  12.836  1.00  0.00     0.146 C 
HETATM    7  C   UNL     1     -47.128 -51.550  11.669  1.00  0.00     0.041 C 
HETATM    8  O   UNL     1     -46.831 -51.309  14.028  1.00  0.00    -0.378 OA
HETATM    9  C   UNL     1     -46.026 -51.555  15.192  1.00  0.00     0.146 C 
HETATM   10  C   UNL     1     -46.793 -51.054  16.409  1.00  0.00     0.041 C 
HETATM   11  C   UNL     1     -45.708 -53.062  15.312  1.00  0.00     0.304 C 
ENDBRANCH   2   4
ENDBRANCH   1   2
BRANCH   1  12
HETATM   12  N   UNL     1     -42.533 -51.948  12.039  1.00  0.00    -0.358 N 
HETATM   13  C   UNL     1     -41.193 -51.611  12.000  1.00  0.00     0.237 C 
HETATM   14  O   UNL     1     -40.299 -52.397  12.304  1.00  0.00    -0.272 OA
HETATM   15  H   UNL     1     -43.211 -51.194  11.982  1.00  0.00     0.162 HD
BRANCH  13  16
HETATM   16  C   UNL     1     -40.902 -50.204  11.529  1.00  0.00     0.250 C 
BRANCH  16  17
HETATM   17  N   UNL     1     -39.527 -49.836  11.787  1.00  0.00    -0.295 N 
HETATM   18  C   UNL     1     -39.040 -49.182  12.883  1.00  0.00     0.112 A 
HETATM   19  C   UNL     1     -37.677 -49.129  12.722  1.00  0.00     0.037 A 
HETATM   20  C   UNL     1     -37.434 -49.786  11.503  1.00  0.00     0.108 A 
HETATM   21  N   UNL     1     -38.560 -50.221  10.925  1.00  0.00    -0.310 N 
ATOM     22  HN  UNL     1     -38.663 -50.723  10.043  1.00  0.00     0.186 HD
ENDBRANCH  16  17
ENDBRANCH  13  16
ENDBRANCH   1  12
TORSDOF 5
ENDMDL
MODEL 2
REMARK VINA RESULT:      -5.7      2.753      3.678
REMARK  5 active torsions:
REMARK  status: ('A' for Active; 'I' for Inactive)
REMARK    1  A    between atoms: C_2  and  C_3 
REMARK    2  A    between atoms: C_2  and  N_14 
REMARK    3  A    between atoms: C_3  and  N_4 
REMARK       I    between atoms: N_4  and  C_5 
REMARK    4  A    between atoms: C_5  and  C_7 
REMARK    5  A    between atoms: C_7  and  N_8 
ROOT
HETATM    1  C   UNL     1     -41.552 -51.910  11.966  1.00  0.00     0.158 C 
ENDROOT
BRANCH   1   2
HETATM    2  C   UNL     1     -41.880 -52.652  13.302  1.00  0.00     0.236 C 
HETATM    3  C   UNL     1     -40.558 -53.256  13.828  1.00  0.00     0.044 C 
BRANCH   2   4
HETATM    4  N   UNL     1     -42.911 -53.721  13.131  1.00  0.00     0.099 N 
HETATM    5  C   UNL     1     -44.140 -53.259  12.428  1.00  0.00     0.304 C 
HETATM    6  C   UNL     1     -45.047 -52.330  13.269  1.00  0.00     0.146 C 
HETATM    7  C   UNL     1     -46.339 -52.018  12.520  1.00  0.00     0.041 C 
HETATM    8  O   UNL     1     -45.413 -52.950  14.516  1.00  0.00    -0.378 OA
HETATM    9  C   UNL     1     -44.246 -53.347  15.255  1.00  0.00     0.146 C 
HETATM   10  C   UNL     1     -44.711 -54.007  16.547  1.00  0.00     0.041 C 
HETATM   11  C   UNL     1     -43.384 -54.313  14.412  1.00  0.00     0.304 C 
ENDBRANCH   2   4
ENDBRANCH   1   2
BRANCH   1  12
HETATM   12  N   UNL     1     -42.135 -50.577  11.862  1.00  0.00    -0.358 N 
HETATM   13  C   UNL     1     -41.393 -49.494  11.431  1.00  0.00     0.237 C 
HETATM   14  O   UNL     1     -40.251 -49.603  10.991  1.00  0.00    -0.272 OA
HETATM   15  H   UNL     1     -42.975 -50.388  12.402  1.00  0.00     0.162 HD
BRANCH  13  16
HETATM   16  C   UNL     1     -42.101 -48.161  11.513  1.00  0.00     0.250 C 
BRANCH  16  17
HETATM   17  N   UNL     1     -42.939 -47.937  10.354  1.00  0.00    -0.295 N 
HETATM   18  C   UNL     1     -44.212 -47.441  10.342  1.00  0.00     0.112 A 
HETATM   19  C   UNL     1     -44.566 -47.332   9.019  1.00  0.00     0.037 A 
HETATM   20  C   UNL     1     -43.438 -47.779   8.308  1.00  0.00     0.108 A 
HETATM   21  N   UNL     1     -42.440 -48.150   9.118  1.00  0.00    -0.310 N 
ATOM     22  HN  UNL     1     -41.520 -48.509   8.861  1.00  0.00     0.186 HD
ENDBRANCH  16  17
ENDBRANCH  13  16
ENDBRANCH   1  12
TORSDOF 5
ENDMDL
MODEL 3
REMARK VINA RESULT:      -5.7      1.582      2.275
REMARK  5 active torsions:
REMARK  status: ('A' for Active; 'I' for Inactive)
REMARK    1  A    between atoms: C_2  and  C_3 
REMARK    2  A    between atoms: C_2  and  N_14 
REMARK    3  A    between atoms: C_3  and  N_4 
REMARK       I    between atoms: N_4  and  C_5 
REMARK    4  A    between atoms: C_5  and  C_7 
REMARK    5  A    between atoms: C_7  and  N_8 
ROOT
HETATM    1  C   UNL     1     -42.548 -52.839  12.579  1.00  0.00     0.158 C 
ENDROOT
BRANCH   1   2
HETATM    2  C   UNL     1     -43.318 -52.542  13.906  1.00  0.00     0.236 C 
HETATM    3  C   UNL     1     -42.386 -52.932  15.075  1.00  0.00     0.044 C 
BRANCH   2   4
HETATM    4  N   UNL     1     -44.614 -53.282  14.001  1.00  0.00     0.099 N 
HETATM    5  C   UNL     1     -45.494 -53.100  12.814  1.00  0.00     0.304 C 
HETATM    6  C   UNL     1     -46.147 -51.701  12.709  1.00  0.00     0.146 C 
HETATM    7  C   UNL     1     -47.130 -51.652  11.545  1.00  0.00     0.041 C 
HETATM    8  O   UNL     1     -46.881 -51.380  13.905  1.00  0.00    -0.378 OA
HETATM    9  C   UNL     1     -46.042 -51.478  15.067  1.00  0.00     0.146 C 
HETATM   10  C   UNL     1     -46.888 -51.142  16.288  1.00  0.00     0.041 C 
HETATM   11  C   UNL     1     -45.444 -52.898  15.175  1.00  0.00     0.304 C 
ENDBRANCH   2   4
ENDBRANCH   1   2
BRANCH   1  12
HETATM   12  N   UNL     1     -42.096 -51.648  11.868  1.00  0.00    -0.358 N 
HETATM   13  C   UNL     1     -40.778 -51.235  11.913  1.00  0.00     0.237 C 
HETATM   14  O   UNL     1     -39.889 -51.902  12.438  1.00  0.00    -0.272 OA
HETATM   15  H   UNL     1     -42.798 -50.958  11.613  1.00  0.00     0.162 HD
BRANCH  13  16
HETATM   16  C   UNL     1     -40.500 -49.909  11.242  1.00  0.00     0.250 C 
BRANCH  16  17
HETATM   17  N   UNL     1     -41.583 -48.973  11.458  1.00  0.00    -0.295 N 
HETATM   18  C   UNL     1     -41.919 -48.361  12.632  1.00  0.00     0.112 A 
HETATM   19  C   UNL     1     -42.952 -47.505  12.333  1.00  0.00     0.037 A 
HETATM   20  C   UNL     1     -43.162 -47.665  10.953  1.00  0.00     0.108 A 
HETATM   21  N   UNL     1     -42.329 -48.561  10.411  1.00  0.00    -0.310 N 
ATOM     22  HN  UNL     1     -42.272 -48.861   9.437  1.00  0.00     0.186 HD
ENDBRANCH  16  17
ENDBRANCH  13  16
ENDBRANCH   1  12
TORSDOF 5
ENDMDL
MODEL 4
REMARK VINA RESULT:      -5.6      3.379      4.649
REMARK  5 active torsions:
REMARK  status: ('A' for Active; 'I' for Inactive)
REMARK    1  A    between atoms: C_2  and  C_3 
REMARK    2  A    between atoms: C_2  and  N_14 
REMARK    3  A    between atoms: C_3  and  N_4 
REMARK       I    between atoms: N_4  and  C_5 
REMARK    4  A    between atoms: C_5  and  C_7 
REMARK    5  A    between atoms: C_7  and  N_8 
ROOT
HETATM    1  C   UNL     1     -42.517 -50.356  13.339  1.00  0.00     0.158 C 
ENDROOT
BRANCH   1   2
HETATM    2  C   UNL     1     -43.008 -51.839  13.289  1.00  0.00     0.236 C 
HETATM    3  C   UNL     1     -42.024 -52.619  12.389  1.00  0.00     0.044 C 
BRANCH   2   4
HETATM    4  N   UNL     1     -44.405 -51.968  12.771  1.00  0.00     0.099 N 
HETATM    5  C   UNL     1     -45.422 -51.282  13.615  1.00  0.00     0.304 C 
HETATM    6  C   UNL     1     -45.713 -51.984  14.962  1.00  0.00     0.146 C 
HETATM    7  C   UNL     1     -46.856 -51.288  15.694  1.00  0.00     0.041 C 
HETATM    8  O   UNL     1     -46.104 -53.354  14.760  1.00  0.00    -0.378 OA
HETATM    9  C   UNL     1     -45.111 -54.067  14.006  1.00  0.00     0.146 C 
HETATM   10  C   UNL     1     -45.600 -55.498  13.818  1.00  0.00     0.041 C 
HETATM   11  C   UNL     1     -44.875 -53.374  12.645  1.00  0.00     0.304 C 
ENDBRANCH   2   4
ENDBRANCH   1   2
BRANCH   1  12
HETATM   12  N   UNL     1     -42.293 -49.754  12.029  1.00  0.00    -0.358 N 
HETATM   13  C   UNL     1     -42.610 -48.433  11.777  1.00  0.00     0.237 C 
HETATM   14  O   UNL     1     -42.974 -47.655  12.657  1.00  0.00    -0.272 OA
HETATM   15  H   UNL     1     -42.208 -50.379  11.233  1.00  0.00     0.162 HD
BRANCH  13  16
HETATM   16  C   UNL     1     -42.449 -48.001  10.337  1.00  0.00     0.250 C 
BRANCH  16  17
HETATM   17  N   UNL     1     -43.661 -47.391   9.832  1.00  0.00    -0.295 N 
HETATM   18  C   UNL     1     -43.764 -46.226   9.127  1.00  0.00     0.112 A 
HETATM   19  C   UNL     1     -45.092 -46.095   8.797  1.00  0.00     0.037 A 
HETATM   20  C   UNL     1     -45.709 -47.235   9.340  1.00  0.00     0.108 A 
HETATM   21  N   UNL     1     -44.841 -48.032   9.975  1.00  0.00    -0.310 N 
ATOM     22  HN  UNL     1     -45.027 -48.914  10.452  1.00  0.00     0.186 HD
ENDBRANCH  16  17
ENDBRANCH  13  16
ENDBRANCH   1  12
TORSDOF 5
ENDMDL
MODEL 5
REMARK VINA RESULT:      -5.4      2.108      2.609
REMARK  5 active torsions:
REMARK  status: ('A' for Active; 'I' for Inactive)
REMARK    1  A    between atoms: C_2  and  C_3 
REMARK    2  A    between atoms: C_2  and  N_14 
REMARK    3  A    between atoms: C_3  and  N_4 
REMARK       I    between atoms: N_4  and  C_5 
REMARK    4  A    between atoms: C_5  and  C_7 
REMARK    5  A    between atoms: C_7  and  N_8 
ROOT
HETATM    1  C   UNL     1     -41.515 -52.514  11.761  1.00  0.00     0.158 C 
ENDROOT
BRANCH   1   2
HETATM    2  C   UNL     1     -41.907 -53.133  13.142  1.00  0.00     0.236 C 
HETATM    3  C   UNL     1     -40.701 -53.964  13.632  1.00  0.00     0.044 C 
BRANCH   2   4
HETATM    4  N   UNL     1     -43.133 -53.984  13.066  1.00  0.00     0.099 N 
HETATM    5  C   UNL     1     -44.313 -53.283  12.488  1.00  0.00     0.304 C 
HETATM    6  C   UNL     1     -44.946 -52.221  13.418  1.00  0.00     0.146 C 
HETATM    7  C   UNL     1     -46.219 -51.655  12.799  1.00  0.00     0.041 C 
HETATM    8  O   UNL     1     -45.303 -52.792  14.690  1.00  0.00    -0.378 OA
HETATM    9  C   UNL     1     -44.168 -53.418  15.311  1.00  0.00     0.146 C 
HETATM   10  C   UNL     1     -44.625 -54.010  16.638  1.00  0.00     0.041 C 
HETATM   11  C   UNL     1     -43.587 -54.508  14.383  1.00  0.00     0.304 C 
ENDBRANCH   2   4
ENDBRANCH   1   2
BRANCH   1  12
HETATM   12  N   UNL     1     -40.430 -51.540  11.827  1.00  0.00    -0.358 N 
HETATM   13  C   UNL     1     -40.671 -50.182  11.751  1.00  0.00     0.237 C 
HETATM   14  O   UNL     1     -41.804 -49.706  11.753  1.00  0.00    -0.272 OA
HETATM   15  H   UNL     1     -39.492 -51.866  11.608  1.00  0.00     0.162 HD
BRANCH  13  16
HETATM   16  C   UNL     1     -39.433 -49.315  11.693  1.00  0.00     0.250 C 
BRANCH  16  17
HETATM   17  N   UNL     1     -39.773 -47.909  11.736  1.00  0.00    -0.295 N 
HETATM   18  C   UNL     1     -39.539 -47.036  12.761  1.00  0.00     0.112 A 
HETATM   19  C   UNL     1     -39.958 -45.805  12.317  1.00  0.00     0.037 A 
HETATM   20  C   UNL     1     -40.421 -46.035  11.010  1.00  0.00     0.108 A 
HETATM   21  N   UNL     1     -40.312 -47.318  10.648  1.00  0.00    -0.310 N 
ATOM     22  HN  UNL     1     -40.574 -47.748   9.760  1.00  0.00     0.186 HD
ENDBRANCH  16  17
ENDBRANCH  13  16
ENDBRANCH   1  12
TORSDOF 5
ENDMDL
MODEL 6
REMARK VINA RESULT:      -5.4      3.558      5.493
REMARK  5 active torsions:
REMARK  status: ('A' for Active; 'I' for Inactive)
REMARK    1  A    between atoms: C_2  and  C_3 
REMARK    2  A    between atoms: C_2  and  N_14 
REMARK    3  A    between atoms: C_3  and  N_4 
REMARK       I    between atoms: N_4  and  C_5 
REMARK    4  A    between atoms: C_5  and  C_7 
REMARK    5  A    between atoms: C_7  and  N_8 
ROOT
HETATM    1  C   UNL     1     -43.095 -49.808  12.891  1.00  0.00     0.158 C 
ENDROOT
BRANCH   1   2
HETATM    2  C   UNL     1     -41.969 -50.839  13.227  1.00  0.00     0.236 C 
HETATM    3  C   UNL     1     -40.616 -50.113  13.056  1.00  0.00     0.044 C 
BRANCH   2   4
HETATM    4  N   UNL     1     -42.023 -52.056  12.360  1.00  0.00     0.099 N 
HETATM    5  C   UNL     1     -43.195 -52.932  12.632  1.00  0.00     0.304 C 
HETATM    6  C   UNL     1     -43.112 -53.719  13.962  1.00  0.00     0.146 C 
HETATM    7  C   UNL     1     -44.285 -54.684  14.089  1.00  0.00     0.041 C 
HETATM    8  O   UNL     1     -41.904 -54.499  14.029  1.00  0.00    -0.378 OA
HETATM    9  C   UNL     1     -40.745 -53.672  13.839  1.00  0.00     0.146 C 
HETATM   10  C   UNL     1     -39.513 -54.566  13.906  1.00  0.00     0.041 C 
HETATM   11  C   UNL     1     -40.830 -52.938  12.483  1.00  0.00     0.304 C 
ENDBRANCH   2   4
ENDBRANCH   1   2
BRANCH   1  12
HETATM   12  N   UNL     1     -42.788 -48.931  11.766  1.00  0.00    -0.358 N 
HETATM   13  C   UNL     1     -42.949 -47.561  11.853  1.00  0.00     0.237 C 
HETATM   14  O   UNL     1     -43.232 -46.988  12.903  1.00  0.00    -0.272 OA
HETATM   15  H   UNL     1     -42.767 -49.346  10.839  1.00  0.00     0.162 HD
BRANCH  13  16
HETATM   16  C   UNL     1     -42.723 -46.808  10.561  1.00  0.00     0.250 C 
BRANCH  16  17
HETATM   17  N   UNL     1     -43.521 -47.358   9.486  1.00  0.00    -0.295 N 
HETATM   18  C   UNL     1     -44.885 -47.393   9.407  1.00  0.00     0.112 A 
HETATM   19  C   UNL     1     -45.182 -47.931   8.178  1.00  0.00     0.037 A 
HETATM   20  C   UNL     1     -43.933 -48.180   7.584  1.00  0.00     0.108 A 
HETATM   21  N   UNL     1     -42.912 -47.833   8.377  1.00  0.00    -0.310 N 
ATOM     22  HN  UNL     1     -41.913 -47.909   8.189  1.00  0.00     0.186 HD
ENDBRANCH  16  17
ENDBRANCH  13  16
ENDBRANCH   1  12
TORSDOF 5
ENDMDL
MODEL 7
REMARK VINA RESULT:      -5.4      3.893      7.217
REMARK  5 active torsions:
REMARK  status: ('A' for Active; 'I' for Inactive)
REMARK    1  A    between atoms: C_2  and  C_3 
REMARK    2  A    between atoms: C_2  and  N_14 
REMARK    3  A    between atoms: C_3  and  N_4 
REMARK       I    between atoms: N_4  and  C_5 
REMARK    4  A    between atoms: C_5  and  C_7 
REMARK    5  A    between atoms: C_7  and  N_8 
ROOT
HETATM    1  C   UNL     1     -42.378 -47.426  12.084  1.00  0.00     0.158 C 
ENDROOT
BRANCH   1   2
HETATM    2  C   UNL     1     -41.171 -48.335  12.484  1.00  0.00     0.236 C 
HETATM    3  C   UNL     1     -39.917 -47.436  12.540  1.00  0.00     0.044 C 
BRANCH   2   4
HETATM    4  N   UNL     1     -40.961 -49.468  11.531  1.00  0.00     0.099 N 
HETATM    5  C   UNL     1     -41.579 -50.747  11.977  1.00  0.00     0.304 C 
HETATM    6  C   UNL     1     -40.852 -51.431  13.159  1.00  0.00     0.146 C 
HETATM    7  C   UNL     1     -41.472 -52.792  13.457  1.00  0.00     0.041 C 
HETATM    8  O   UNL     1     -39.461 -51.649  12.858  1.00  0.00    -0.378 OA
HETATM    9  C   UNL     1     -38.815 -50.420  12.490  1.00  0.00     0.146 C 
HETATM   10  C   UNL     1     -37.358 -50.732  12.171  1.00  0.00     0.041 C 
HETATM   11  C   UNL     1     -39.529 -49.785  11.276  1.00  0.00     0.304 C 
ENDBRANCH   2   4
ENDBRANCH   1   2
BRANCH   1  12
HETATM   12  N   UNL     1     -42.815 -47.583  10.701  1.00  0.00    -0.358 N 
HETATM   13  C   UNL     1     -42.916 -46.501   9.847  1.00  0.00     0.237 C 
HETATM   14  O   UNL     1     -42.529 -45.375  10.150  1.00  0.00    -0.272 OA
HETATM   15  H   UNL     1     -43.341 -48.420  10.466  1.00  0.00     0.162 HD
BRANCH  13  16
HETATM   16  C   UNL     1     -43.515 -46.809   8.493  1.00  0.00     0.250 C 
BRANCH  16  17
HETATM   17  N   UNL     1     -44.844 -47.367   8.621  1.00  0.00    -0.295 N 
HETATM   18  C   UNL     1     -45.880 -46.865   9.357  1.00  0.00     0.112 A 
HETATM   19  C   UNL     1     -46.956 -47.682   9.106  1.00  0.00     0.037 A 
HETATM   20  C   UNL     1     -46.474 -48.642   8.200  1.00  0.00     0.108 A 
HETATM   21  N   UNL     1     -45.184 -48.457   7.898  1.00  0.00    -0.310 N 
ATOM     22  HN  UNL     1     -44.597 -49.008   7.272  1.00  0.00     0.186 HD
ENDBRANCH  16  17
ENDBRANCH  13  16
ENDBRANCH   1  12
TORSDOF 5
ENDMDL
MODEL 8
REMARK VINA RESULT:      -5.4      2.279      6.855
REMARK  5 active torsions:
REMARK  status: ('A' for Active; 'I' for Inactive)
REMARK    1  A    between atoms: C_2  and  C_3 
REMARK    2  A    between atoms: C_2  and  N_14 
REMARK    3  A    between atoms: C_3  and  N_4 
REMARK       I    between atoms: N_4  and  C_5 
REMARK    4  A    between atoms: C_5  and  C_7 
REMARK    5  A    between atoms: C_7  and  N_8 
ROOT
HETATM    1  C   UNL     1     -40.461 -53.765  12.876  1.00  0.00     0.158 C 
ENDROOT
BRANCH   1   2
HETATM    2  C   UNL     1     -39.850 -52.991  14.089  1.00  0.00     0.236 C 
HETATM    3  C   UNL     1     -40.498 -53.560  15.370  1.00  0.00     0.044 C 
BRANCH   2   4
HETATM    4  N   UNL     1     -40.069 -51.515  14.002  1.00  0.00     0.099 N 
HETATM    5  C   UNL     1     -39.514 -50.899  12.766  1.00  0.00     0.304 C 
HETATM    6  C   UNL     1     -37.969 -50.806  12.736  1.00  0.00     0.146 C 
HETATM    7  C   UNL     1     -37.501 -50.045  11.500  1.00  0.00     0.041 C 
HETATM    8  O   UNL     1     -37.469 -50.104  13.888  1.00  0.00    -0.378 OA
HETATM    9  C   UNL     1     -37.930 -50.714  15.104  1.00  0.00     0.146 C 
HETATM   10  C   UNL     1     -37.376 -49.911  16.274  1.00  0.00     0.041 C 
HETATM   11  C   UNL     1     -39.474 -50.749  15.131  1.00  0.00     0.304 C 
ENDBRANCH   2   4
ENDBRANCH   1   2
BRANCH   1  12
HETATM   12  N   UNL     1     -41.819 -54.249  13.097  1.00  0.00    -0.358 N 
HETATM   13  C   UNL     1     -42.922 -53.487  12.761  1.00  0.00     0.237 C 
HETATM   14  O   UNL     1     -42.836 -52.425  12.148  1.00  0.00    -0.272 OA
HETATM   15  H   UNL     1     -41.949 -54.992  13.778  1.00  0.00     0.162 HD
BRANCH  13  16
HETATM   16  C   UNL     1     -44.253 -54.069  13.181  1.00  0.00     0.250 C 
BRANCH  16  17
HETATM   17  N   UNL     1     -45.273 -53.046  13.262  1.00  0.00    -0.295 N 
HETATM   18  C   UNL     1     -45.809 -52.507  14.397  1.00  0.00     0.112 A 
HETATM   19  C   UNL     1     -46.674 -51.523  13.980  1.00  0.00     0.037 A 
HETATM   20  C   UNL     1     -46.583 -51.538  12.578  1.00  0.00     0.108 A 
HETATM   21  N   UNL     1     -45.729 -52.466  12.131  1.00  0.00    -0.310 N 
ATOM     22  HN  UNL     1     -45.482 -52.684  11.166  1.00  0.00     0.186 HD
ENDBRANCH  16  17
ENDBRANCH  13  16
ENDBRANCH   1  12
TORSDOF 5
ENDMDL
MODEL 9
REMARK VINA RESULT:      -5.3      3.338      5.883
REMARK  5 active torsions:
REMARK  status: ('A' for Active; 'I' for Inactive)
REMARK    1  A    between atoms: C_2  and  C_3 
REMARK    2  A    between atoms: C_2  and  N_14 
REMARK    3  A    between atoms: C_3  and  N_4 
REMARK       I    between atoms: N_4  and  C_5 
REMARK    4  A    between atoms: C_5  and  C_7 
REMARK    5  A    between atoms: C_7  and  N_8 
ROOT
HETATM    1  C   UNL     1     -42.905 -50.424  12.950  1.00  0.00     0.158 C 
ENDROOT
BRANCH   1   2
HETATM    2  C   UNL     1     -42.169 -51.771  13.245  1.00  0.00     0.236 C 
HETATM    3  C   UNL     1     -43.254 -52.842  13.494  1.00  0.00     0.044 C 
BRANCH   2   4
HETATM    4  N   UNL     1     -41.245 -51.680  14.417  1.00  0.00     0.099 N 
HETATM    5  C   UNL     1     -40.071 -50.794  14.186  1.00  0.00     0.304 C 
HETATM    6  C   UNL     1     -39.009 -51.379  13.223  1.00  0.00     0.146 C 
HETATM    7  C   UNL     1     -37.789 -50.467  13.153  1.00  0.00     0.041 C 
HETATM    8  O   UNL     1     -38.556 -52.669  13.672  1.00  0.00    -0.378 OA
HETATM    9  C   UNL     1     -39.659 -53.573  13.840  1.00  0.00     0.146 C 
HETATM   10  C   UNL     1     -39.106 -54.905  14.329  1.00  0.00     0.041 C 
HETATM   11  C   UNL     1     -40.679 -52.989  14.843  1.00  0.00     0.304 C 
ENDBRANCH   2   4
ENDBRANCH   1   2
BRANCH   1  12
HETATM   12  N   UNL     1     -42.425 -49.727  11.760  1.00  0.00    -0.358 N 
HETATM   13  C   UNL     1     -41.873 -48.463  11.836  1.00  0.00     0.237 C 
HETATM   14  O   UNL     1     -41.634 -47.904  12.904  1.00  0.00    -0.272 OA
HETATM   15  H   UNL     1     -42.786 -50.032  10.860  1.00  0.00     0.162 HD
BRANCH  13  16
HETATM   16  C   UNL     1     -41.555 -47.824  10.503  1.00  0.00     0.250 C 
BRANCH  16  17
HETATM   17  N   UNL     1     -42.741 -47.700   9.684  1.00  0.00    -0.295 N 
HETATM   18  C   UNL     1     -43.883 -47.012   9.985  1.00  0.00     0.112 A 
HETATM   19  C   UNL     1     -44.692 -47.111   8.879  1.00  0.00     0.037 A 
HETATM   20  C   UNL     1     -43.949 -47.871   7.959  1.00  0.00     0.108 A 
HETATM   21  N   UNL     1     -42.755 -48.234   8.443  1.00  0.00    -0.310 N 
ATOM     22  HN  UNL     1     -42.029 -48.785   7.984  1.00  0.00     0.186 HD
ENDBRANCH  16  17
ENDBRANCH  13  16
ENDBRANCH   1  12
TORSDOF 5
ENDMDL
