MODEL 1
REMARK VINA RESULT:      -5.9      0.000      0.000
REMARK  4 active torsions:
REMARK  status: ('A' for Active; 'I' for Inactive)
REMARK    1  A    between atoms: C_2  and  C_3 
REMARK       I    between atoms: N_5  and  C_9 
REMARK       I    between atoms: C_9  and  N_11 
REMARK    2  A    between atoms: N_11  and  C_12 
REMARK    3  A    between atoms: C_12  and  C_13 
REMARK    4  A    between atoms: C_13  and  C_14 
ROOT
HETATM    1  C   UNL     1     -44.046 -47.002   8.714  1.00  0.00     0.139 C 
HETATM    2  C   UNL     1     -42.757 -47.779   9.055  1.00  0.00     0.159 C 
HETATM    3  N   UNL     1     -42.172 -47.292  10.306  1.00  0.00    -0.330 N 
HETATM    4  C   UNL     1     -41.950 -45.844  10.307  1.00  0.00     0.153 C 
HETATM    5  C   UNL     1     -43.238 -45.100   9.939  1.00  0.00     0.188 C 
HETATM    6  O   UNL     1     -43.798 -45.583   8.705  1.00  0.00    -0.383 OA
HETATM    7  C   UNL     1     -42.081 -47.979  11.498  1.00  0.00     0.318 C 
HETATM    8  O   UNL     1     -41.771 -47.438  12.554  1.00  0.00    -0.247 OA
HETATM    9  N   UNL     1     -42.373 -49.319  11.431  1.00  0.00    -0.343 N 
HETATM   10  H   UNL     1     -42.053 -49.759  10.584  1.00  0.00     0.164 HD
ENDROOT
BRANCH   9  11
HETATM   11  C   UNL     1     -42.243 -50.118  12.639  1.00  0.00     0.129 C 
BRANCH  11  12
HETATM   12  C   UNL     1     -43.594 -50.472  13.260  1.00  0.00     0.061 C 
BRANCH  12  13
HETATM   13  C   UNL     1     -43.876 -51.933  13.183  1.00  0.00    -0.023 A 
HETATM   14  C   UNL     1     -43.246 -52.894  12.359  1.00  0.00     0.115 A 
HETATM   15  N   UNL     1     -43.759 -54.116  12.511  1.00  0.00    -0.310 N 
HETATM   16  N   UNL     1     -44.727 -53.943  13.426  1.00  0.00    -0.308 N 
ATOM     17  HN  UNL     1     -43.482 -54.978  12.042  1.00  0.00     0.186 HD
HETATM   18  C   UNL     1     -45.557 -55.055  13.826  1.00  0.00     0.177 C 
HETATM   19  C   UNL     1     -44.822 -52.659  13.877  1.00  0.00     0.118 A 
ENDBRANCH  12  13
ENDBRANCH  11  12
ENDBRANCH   9  11
BRANCH   1  20
HETATM   20  C   UNL     1     -45.218 -47.390   9.631  1.00  0.00     0.029 C 
HETATM   21  C   UNL     1     -46.413 -47.917   8.850  1.00  0.00     0.007 C 
ENDBRANCH   1  20
TORSDOF 4
ENDMDL
MODEL 2
REMARK VINA RESULT:      -5.7      2.899      7.336
REMARK  4 active torsions:
REMARK  status: ('A' for Active; 'I' for Inactive)
REMARK    1  A    between atoms: C_2  and  C_3 
REMARK       I    between atoms: N_5  and  C_9 
REMARK       I    between atoms: C_9  and  N_11 
REMARK    2  A    between atoms: N_11  and  C_12 
REMARK    3  A    between atoms: C_12  and  C_13 
REMARK    4  A    between atoms: C_13  and  C_14 
ROOT
HETATM    1  C   UNL     1     -46.141 -53.503  15.304  1.00  0.00     0.139 C 
HETATM    2  C   UNL     1     -44.714 -53.088  15.717  1.00  0.00     0.159 C 
HETATM    3  N   UNL     1     -43.743 -53.472  14.690  1.00  0.00    -0.330 N 
HETATM    4  C   UNL     1     -43.815 -54.892  14.337  1.00  0.00     0.153 C 
HETATM    5  C   UNL     1     -45.248 -55.281  13.958  1.00  0.00     0.188 C 
HETATM    6  O   UNL     1     -46.190 -54.906  14.977  1.00  0.00    -0.383 OA
HETATM    7  C   UNL     1     -43.015 -52.622  13.883  1.00  0.00     0.318 C 
HETATM    8  O   UNL     1     -42.381 -53.014  12.909  1.00  0.00    -0.247 OA
HETATM    9  N   UNL     1     -43.053 -51.296  14.236  1.00  0.00    -0.343 N 
HETATM   10  H   UNL     1     -43.059 -51.144  15.231  1.00  0.00     0.164 HD
ENDROOT
BRANCH   9  11
HETATM   11  C   UNL     1     -42.263 -50.350  13.463  1.00  0.00     0.129 C 
BRANCH  11  12
HETATM   12  C   UNL     1     -43.018 -49.055  13.168  1.00  0.00     0.061 C 
BRANCH  12  13
HETATM   13  C   UNL     1     -42.791 -48.585  11.772  1.00  0.00    -0.023 A 
HETATM   14  C   UNL     1     -41.651 -48.795  10.963  1.00  0.00     0.115 A 
HETATM   15  N   UNL     1     -41.755 -48.211   9.768  1.00  0.00    -0.310 N 
HETATM   16  N   UNL     1     -42.958 -47.615   9.808  1.00  0.00    -0.308 N 
ATOM     17  HN  UNL     1     -41.080 -48.215   9.003  1.00  0.00     0.186 HD
HETATM   18  C   UNL     1     -43.417 -46.826   8.690  1.00  0.00     0.177 C 
HETATM   19  C   UNL     1     -43.628 -47.828  10.978  1.00  0.00     0.118 A 
ENDBRANCH  12  13
ENDBRANCH  11  12
ENDBRANCH   9  11
BRANCH   1  20
HETATM   20  C   UNL     1     -46.701 -52.617  14.178  1.00  0.00     0.029 C 
HETATM   21  C   UNL     1     -46.762 -51.149  14.575  1.00  0.00     0.007 C 
ENDBRANCH   1  20
TORSDOF 4
ENDMDL
MODEL 3
REMARK VINA RESULT:      -5.6      4.361      6.983
REMARK  4 active torsions:
REMARK  status: ('A' for Active; 'I' for Inactive)
REMARK    1  A    between atoms: C_2  and  C_3 
REMARK       I    between atoms: N_5  and  C_9 
REMARK       I    between atoms: C_9  and  N_11 
REMARK    2  A    between atoms: N_11  and  C_12 
REMARK    3  A    between atoms: C_12  and  C_13 
REMARK    4  A    between atoms: C_13  and  C_14 
ROOT
HETATM    1  C   UNL     1     -45.551 -51.247  15.005  1.00  0.00     0.139 C 
HETATM    2  C   UNL     1     -44.711 -52.031  16.035  1.00  0.00     0.159 C 
HETATM    3  N   UNL     1     -44.754 -53.468  15.756  1.00  0.00    -0.330 N 
HETATM    4  C   UNL     1     -46.119 -53.991  15.658  1.00  0.00     0.153 C 
HETATM    5  C   UNL     1     -46.937 -53.177  14.649  1.00  0.00     0.188 C 
HETATM    6  O   UNL     1     -46.893 -51.769  14.938  1.00  0.00    -0.383 OA
HETATM    7  C   UNL     1     -43.708 -54.258  15.329  1.00  0.00     0.318 C 
HETATM    8  O   UNL     1     -43.865 -55.402  14.916  1.00  0.00    -0.247 OA
HETATM    9  N   UNL     1     -42.466 -53.673  15.384  1.00  0.00    -0.343 N 
HETATM   10  H   UNL     1     -42.338 -53.077  16.185  1.00  0.00     0.164 HD
ENDROOT
BRANCH   9  11
HETATM   11  C   UNL     1     -41.309 -54.468  15.002  1.00  0.00     0.129 C 
BRANCH  11  12
HETATM   12  C   UNL     1     -40.116 -53.608  14.585  1.00  0.00     0.061 C 
BRANCH  12  13
HETATM   13  C   UNL     1     -40.419 -52.784  13.382  1.00  0.00    -0.023 A 
HETATM   14  C   UNL     1     -41.047 -53.198  12.184  1.00  0.00     0.115 A 
HETATM   15  N   UNL     1     -41.138 -52.216  11.286  1.00  0.00    -0.310 N 
HETATM   16  N   UNL     1     -40.561 -51.170  11.899  1.00  0.00    -0.308 N 
ATOM     17  HN  UNL     1     -41.550 -52.251  10.353  1.00  0.00     0.186 HD
HETATM   18  C   UNL     1     -40.424 -49.908  11.211  1.00  0.00     0.177 C 
HETATM   19  C   UNL     1     -40.134 -51.452  13.164  1.00  0.00     0.118 A 
ENDBRANCH  12  13
ENDBRANCH  11  12
ENDBRANCH   9  11
BRANCH   1  20
HETATM   20  C   UNL     1     -44.873 -51.189  13.626  1.00  0.00     0.029 C 
HETATM   21  C   UNL     1     -43.629 -50.312  13.630  1.00  0.00     0.007 C 
ENDBRANCH   1  20
TORSDOF 4
ENDMDL
MODEL 4
REMARK VINA RESULT:      -5.4      4.276      6.072
REMARK  4 active torsions:
REMARK  status: ('A' for Active; 'I' for Inactive)
REMARK    1  A    between atoms: C_2  and  C_3 
REMARK       I    between atoms: N_5  and  C_9 
REMARK       I    between atoms: C_9  and  N_11 
REMARK    2  A    between atoms: N_11  and  C_12 
REMARK    3  A    between atoms: C_12  and  C_13 
REMARK    4  A    between atoms: C_13  and  C_14 
ROOT
HETATM    1  C   UNL     1     -40.639 -51.406  12.779  1.00  0.00     0.139 C 
HETATM    2  C   UNL     1     -41.550 -52.285  11.897  1.00  0.00     0.159 C 
HETATM    3  N   UNL     1     -42.155 -53.361  12.685  1.00  0.00    -0.330 N 
HETATM    4  C   UNL     1     -41.168 -54.161  13.413  1.00  0.00     0.153 C 
HETATM    5  C   UNL     1     -40.261 -53.260  14.259  1.00  0.00     0.188 C 
HETATM    6  O   UNL     1     -39.667 -52.213  13.472  1.00  0.00    -0.383 OA
HETATM    7  C   UNL     1     -43.490 -53.501  13.004  1.00  0.00     0.318 C 
HETATM    8  O   UNL     1     -43.892 -54.306  13.837  1.00  0.00    -0.247 OA
HETATM    9  N   UNL     1     -44.348 -52.666  12.331  1.00  0.00    -0.343 N 
HETATM   10  H   UNL     1     -44.085 -52.507  11.372  1.00  0.00     0.164 HD
ENDROOT
BRANCH   9  11
HETATM   11  C   UNL     1     -45.776 -52.798  12.575  1.00  0.00     0.129 C 
BRANCH  11  12
HETATM   12  C   UNL     1     -46.399 -51.518  13.131  1.00  0.00     0.061 C 
BRANCH  12  13
HETATM   13  C   UNL     1     -46.297 -51.450  14.616  1.00  0.00    -0.023 A 
HETATM   14  C   UNL     1     -45.203 -51.002  15.390  1.00  0.00     0.115 A 
HETATM   15  N   UNL     1     -45.425 -51.102  16.701  1.00  0.00    -0.310 N 
HETATM   16  N   UNL     1     -46.660 -51.625  16.775  1.00  0.00    -0.308 N 
ATOM     17  HN  UNL     1     -44.804 -50.843  17.467  1.00  0.00     0.186 HD
HETATM   18  C   UNL     1     -47.245 -51.931  18.059  1.00  0.00     0.177 C 
HETATM   19  C   UNL     1     -47.235 -51.831  15.555  1.00  0.00     0.118 A 
ENDBRANCH  12  13
ENDBRANCH  11  12
ENDBRANCH   9  11
BRANCH   1  20
HETATM   20  C   UNL     1     -41.445 -50.508  13.733  1.00  0.00     0.029 C 
HETATM   21  C   UNL     1     -42.501 -49.690  13.003  1.00  0.00     0.007 C 
ENDBRANCH   1  20
TORSDOF 4
ENDMDL
MODEL 5
REMARK VINA RESULT:      -5.3      3.416      7.864
REMARK  4 active torsions:
REMARK  status: ('A' for Active; 'I' for Inactive)
REMARK    1  A    between atoms: C_2  and  C_3 
REMARK       I    between atoms: N_5  and  C_9 
REMARK       I    between atoms: C_9  and  N_11 
REMARK    2  A    between atoms: N_11  and  C_12 
REMARK    3  A    between atoms: C_12  and  C_13 
REMARK    4  A    between atoms: C_13  and  C_14 
ROOT
HETATM    1  C   UNL     1     -44.583 -53.968  16.383  1.00  0.00     0.139 C 
HETATM    2  C   UNL     1     -43.624 -54.583  15.342  1.00  0.00     0.159 C 
HETATM    3  N   UNL     1     -44.184 -54.478  13.993  1.00  0.00    -0.330 N 
HETATM    4  C   UNL     1     -45.533 -55.041  13.888  1.00  0.00     0.153 C 
HETATM    5  C   UNL     1     -46.455 -54.432  14.951  1.00  0.00     0.188 C 
HETATM    6  O   UNL     1     -45.897 -54.549  16.271  1.00  0.00    -0.383 OA
HETATM    7  C   UNL     1     -43.707 -53.702  12.958  1.00  0.00     0.318 C 
HETATM    8  O   UNL     1     -44.343 -53.503  11.929  1.00  0.00    -0.247 OA
HETATM    9  N   UNL     1     -42.465 -53.150  13.159  1.00  0.00    -0.343 N 
HETATM   10  H   UNL     1     -41.831 -53.755  13.654  1.00  0.00     0.164 HD
ENDROOT
BRANCH   9  11
HETATM   11  C   UNL     1     -41.874 -52.365  12.086  1.00  0.00     0.129 C 
BRANCH  11  12
HETATM   12  C   UNL     1     -40.532 -51.748  12.478  1.00  0.00     0.061 C 
BRANCH  12  13
HETATM   13  C   UNL     1     -40.377 -50.368  11.939  1.00  0.00    -0.023 A 
HETATM   14  C   UNL     1     -39.177 -49.662  11.696  1.00  0.00     0.115 A 
HETATM   15  N   UNL     1     -39.390 -48.427  11.239  1.00  0.00    -0.310 N 
HETATM   16  N   UNL     1     -40.728 -48.330  11.196  1.00  0.00    -0.308 N 
ATOM     17  HN  UNL     1     -38.699 -47.722  10.983  1.00  0.00     0.186 HD
HETATM   18  C   UNL     1     -41.356 -47.096  10.788  1.00  0.00     0.177 C 
HETATM   19  C   UNL     1     -41.366 -49.473  11.583  1.00  0.00     0.118 A 
ENDBRANCH  12  13
ENDBRANCH  11  12
ENDBRANCH   9  11
BRANCH   1  20
HETATM   20  C   UNL     1     -44.610 -52.432  16.312  1.00  0.00     0.029 C 
HETATM   21  C   UNL     1     -43.223 -51.822  16.454  1.00  0.00     0.007 C 
ENDBRANCH   1  20
TORSDOF 4
ENDMDL
MODEL 6
REMARK VINA RESULT:      -5.3      2.864      7.049
REMARK  4 active torsions:
REMARK  status: ('A' for Active; 'I' for Inactive)
REMARK    1  A    between atoms: C_2  and  C_3 
REMARK       I    between atoms: N_5  and  C_9 
REMARK       I    between atoms: C_9  and  N_11 
REMARK    2  A    between atoms: N_11  and  C_12 
REMARK    3  A    between atoms: C_12  and  C_13 
REMARK    4  A    between atoms: C_13  and  C_14 
ROOT
HETATM    1  C   UNL     1     -44.360 -52.178  14.696  1.00  0.00     0.139 C 
HETATM    2  C   UNL     1     -42.833 -51.976  14.792  1.00  0.00     0.159 C 
HETATM    3  N   UNL     1     -42.147 -52.674  13.703  1.00  0.00    -0.330 N 
HETATM    4  C   UNL     1     -42.502 -54.092  13.619  1.00  0.00     0.153 C 
HETATM    5  C   UNL     1     -44.024 -54.264  13.552  1.00  0.00     0.188 C 
HETATM    6  O   UNL     1     -44.685 -53.581  14.630  1.00  0.00    -0.383 OA
HETATM    7  C   UNL     1     -41.464 -52.096  12.654  1.00  0.00     0.318 C 
HETATM    8  O   UNL     1     -41.095 -52.732  11.672  1.00  0.00    -0.247 OA
HETATM    9  N   UNL     1     -41.229 -50.748  12.772  1.00  0.00    -0.343 N 
HETATM   10  H   UNL     1     -41.023 -50.457  13.713  1.00  0.00     0.164 HD
ENDROOT
BRANCH   9  11
HETATM   11  C   UNL     1     -40.465 -50.084  11.728  1.00  0.00     0.129 C 
BRANCH  11  12
HETATM   12  C   UNL     1     -40.194 -48.612  12.043  1.00  0.00     0.061 C 
BRANCH  12  13
HETATM   13  C   UNL     1     -40.930 -47.703  11.121  1.00  0.00    -0.023 A 
HETATM   14  C   UNL     1     -40.580 -46.388  10.739  1.00  0.00     0.115 A 
HETATM   15  N   UNL     1     -41.476 -45.835   9.920  1.00  0.00    -0.310 N 
HETATM   16  N   UNL     1     -42.411 -46.789   9.780  1.00  0.00    -0.308 N 
ATOM     17  HN  UNL     1     -41.456 -44.906   9.499  1.00  0.00     0.186 HD
HETATM   18  C   UNL     1     -43.591 -46.541   8.987  1.00  0.00     0.177 C 
HETATM   19  C   UNL     1     -42.120 -47.935  10.461  1.00  0.00     0.118 A 
ENDBRANCH  12  13
ENDBRANCH  11  12
ENDBRANCH   9  11
BRANCH   1  20
HETATM   20  C   UNL     1     -44.981 -51.376  13.540  1.00  0.00     0.029 C 
HETATM   21  C   UNL     1     -46.500 -51.459  13.529  1.00  0.00     0.007 C 
ENDBRANCH   1  20
TORSDOF 4
ENDMDL
MODEL 7
REMARK VINA RESULT:      -5.2      3.406      6.912
REMARK  4 active torsions:
REMARK  status: ('A' for Active; 'I' for Inactive)
REMARK    1  A    between atoms: C_2  and  C_3 
REMARK       I    between atoms: N_5  and  C_9 
REMARK       I    between atoms: C_9  and  N_11 
REMARK    2  A    between atoms: N_11  and  C_12 
REMARK    3  A    between atoms: C_12  and  C_13 
REMARK    4  A    between atoms: C_13  and  C_14 
ROOT
HETATM    1  C   UNL     1     -45.570 -52.554  14.571  1.00  0.00     0.139 C 
HETATM    2  C   UNL     1     -44.263 -52.720  15.374  1.00  0.00     0.159 C 
HETATM    3  N   UNL     1     -43.386 -53.708  14.742  1.00  0.00    -0.330 N 
HETATM    4  C   UNL     1     -44.049 -54.994  14.509  1.00  0.00     0.153 C 
HETATM    5  C   UNL     1     -45.355 -54.795  13.734  1.00  0.00     0.188 C 
HETATM    6  O   UNL     1     -46.210 -53.829  14.369  1.00  0.00    -0.383 OA
HETATM    7  C   UNL     1     -42.173 -53.466  14.135  1.00  0.00     0.318 C 
HETATM    8  O   UNL     1     -41.596 -54.302  13.447  1.00  0.00    -0.247 OA
HETATM    9  N   UNL     1     -41.648 -52.214  14.341  1.00  0.00    -0.343 N 
HETATM   10  H   UNL     1     -41.816 -51.855  15.267  1.00  0.00     0.164 HD
ENDROOT
BRANCH   9  11
HETATM   11  C   UNL     1     -40.343 -51.908  13.777  1.00  0.00     0.129 C 
BRANCH  11  12
HETATM   12  C   UNL     1     -40.072 -50.405  13.701  1.00  0.00     0.061 C 
BRANCH  12  13
HETATM   13  C   UNL     1     -40.727 -49.782  12.517  1.00  0.00    -0.023 A 
HETATM   14  C   UNL     1     -40.300 -49.821  11.170  1.00  0.00     0.115 A 
HETATM   15  N   UNL     1     -41.100 -49.130  10.357  1.00  0.00    -0.310 N 
HETATM   16  N   UNL     1     -42.039 -48.635  11.179  1.00  0.00    -0.308 N 
ATOM     17  HN  UNL     1     -41.018 -49.006   9.347  1.00  0.00     0.186 HD
HETATM   18  C   UNL     1     -43.078 -47.775  10.665  1.00  0.00     0.177 C 
HETATM   19  C   UNL     1     -41.874 -49.015  12.480  1.00  0.00     0.118 A 
ENDBRANCH  12  13
ENDBRANCH  11  12
ENDBRANCH   9  11
BRANCH   1  20
HETATM   20  C   UNL     1     -45.349 -51.791  13.254  1.00  0.00     0.029 C 
HETATM   21  C   UNL     1     -46.643 -51.593  12.477  1.00  0.00     0.007 C 
ENDBRANCH   1  20
TORSDOF 4
ENDMDL
MODEL 8
REMARK VINA RESULT:      -5.1      3.006      3.821
REMARK  4 active torsions:
REMARK  status: ('A' for Active; 'I' for Inactive)
REMARK    1  A    between atoms: C_2  and  C_3 
REMARK       I    between atoms: N_5  and  C_9 
REMARK       I    between atoms: C_9  and  N_11 
REMARK    2  A    between atoms: N_11  and  C_12 
REMARK    3  A    between atoms: C_12  and  C_13 
REMARK    4  A    between atoms: C_13  and  C_14 
ROOT
HETATM    1  C   UNL     1     -41.269 -47.903  11.960  1.00  0.00     0.139 C 
HETATM    2  C   UNL     1     -40.833 -49.068  11.047  1.00  0.00     0.159 C 
HETATM    3  N   UNL     1     -39.768 -49.852  11.676  1.00  0.00    -0.330 N 
HETATM    4  C   UNL     1     -38.627 -49.034  12.094  1.00  0.00     0.153 C 
HETATM    5  C   UNL     1     -39.092 -47.870  12.977  1.00  0.00     0.188 C 
HETATM    6  O   UNL     1     -40.132 -47.105  12.345  1.00  0.00    -0.383 OA
HETATM    7  C   UNL     1     -39.857 -51.150  12.132  1.00  0.00     0.318 C 
HETATM    8  O   UNL     1     -38.994 -51.669  12.833  1.00  0.00    -0.247 OA
HETATM    9  N   UNL     1     -40.990 -51.831  11.757  1.00  0.00    -0.343 N 
HETATM   10  H   UNL     1     -41.299 -51.615  10.824  1.00  0.00     0.164 HD
ENDROOT
BRANCH   9  11
HETATM   11  C   UNL     1     -41.124 -53.224  12.155  1.00  0.00     0.129 C 
BRANCH  11  12
HETATM   12  C   UNL     1     -41.888 -53.390  13.469  1.00  0.00     0.061 C 
BRANCH  12  13
HETATM   13  C   UNL     1     -43.319 -53.002  13.332  1.00  0.00    -0.023 A 
HETATM   14  C   UNL     1     -44.171 -53.210  12.223  1.00  0.00     0.115 A 
HETATM   15  N   UNL     1     -45.393 -52.709  12.413  1.00  0.00    -0.310 N 
HETATM   16  N   UNL     1     -45.328 -52.168  13.640  1.00  0.00    -0.308 N 
ATOM     17  HN  UNL     1     -46.189 -52.731  11.775  1.00  0.00     0.186 HD
HETATM   18  C   UNL     1     -46.468 -51.474  14.191  1.00  0.00     0.177 C 
HETATM   19  C   UNL     1     -44.115 -52.336  14.242  1.00  0.00     0.118 A 
ENDBRANCH  12  13
ENDBRANCH  11  12
ENDBRANCH   9  11
BRANCH   1  20
HETATM   20  C   UNL     1     -42.084 -48.387  13.171  1.00  0.00     0.029 C 
HETATM   21  C   UNL     1     -43.290 -49.220  12.760  1.00  0.00     0.007 C 
ENDBRANCH   1  20
TORSDOF 4
ENDMDL
MODEL 9
REMARK VINA RESULT:      -5.1      3.903      6.849
REMARK  4 active torsions:
REMARK  status: ('A' for Active; 'I' for Inactive)
REMARK    1  A    between atoms: C_2  and  C_3 
REMARK       I    between atoms: N_5  and  C_9 
REMARK       I    between atoms: C_9  and  N_11 
REMARK    2  A    between atoms: N_11  and  C_12 
REMARK    3  A    between atoms: C_12  and  C_13 
REMARK    4  A    between atoms: C_13  and  C_14 
ROOT
HETATM    1  C   UNL     1     -44.603 -54.755  14.094  1.00  0.00     0.139 C 
HETATM    2  C   UNL     1     -45.030 -53.598  13.166  1.00  0.00     0.159 C 
HETATM    3  N   UNL     1     -45.295 -52.383  13.938  1.00  0.00    -0.330 N 
HETATM    4  C   UNL     1     -46.258 -52.593  15.023  1.00  0.00     0.153 C 
HETATM    5  C   UNL     1     -45.823 -53.764  15.911  1.00  0.00     0.188 C 
HETATM    6  O   UNL     1     -45.573 -54.953  15.141  1.00  0.00    -0.383 OA
HETATM    7  C   UNL     1     -44.563 -51.215  13.918  1.00  0.00     0.318 C 
HETATM    8  O   UNL     1     -44.719 -50.319  14.741  1.00  0.00    -0.247 OA
HETATM    9  N   UNL     1     -43.630 -51.121  12.914  1.00  0.00    -0.343 N 
HETATM   10  H   UNL     1     -43.932 -51.527  12.045  1.00  0.00     0.164 HD
ENDROOT
BRANCH   9  11
HETATM   11  C   UNL     1     -42.860 -49.892  12.798  1.00  0.00     0.129 C 
BRANCH  11  12
HETATM   12  C   UNL     1     -41.451 -50.129  12.254  1.00  0.00     0.061 C 
BRANCH  12  13
HETATM   13  C   UNL     1     -41.000 -51.532  12.474  1.00  0.00    -0.023 A 
HETATM   14  C   UNL     1     -41.298 -52.671  11.691  1.00  0.00     0.115 A 
HETATM   15  N   UNL     1     -40.761 -53.788  12.184  1.00  0.00    -0.310 N 
HETATM   16  N   UNL     1     -40.123 -53.373  13.291  1.00  0.00    -0.308 N 
ATOM     17  HN  UNL     1     -40.820 -54.735  11.809  1.00  0.00     0.186 HD
HETATM   18  C   UNL     1     -39.445 -54.324  14.140  1.00  0.00     0.177 C 
HETATM   19  C   UNL     1     -40.217 -52.027  13.497  1.00  0.00     0.118 A 
ENDBRANCH  12  13
ENDBRANCH  11  12
ENDBRANCH   9  11
BRANCH   1  20
HETATM   20  C   UNL     1     -43.178 -54.566  14.640  1.00  0.00     0.029 C 
HETATM   21  C   UNL     1     -42.755 -55.705  15.557  1.00  0.00     0.007 C 
ENDBRANCH   1  20
TORSDOF 4
ENDMDL
