MODEL 1
REMARK VINA RESULT:      -6.6      0.000      0.000
REMARK  5 active torsions:
REMARK  status: ('A' for Active; 'I' for Inactive)
REMARK    1  A    between atoms: C_2  and  C_3 
REMARK    2  A    between atoms: C_2  and  N_16 
REMARK       I    between atoms: C_3  and  N_5 
REMARK    3  A    between atoms: N_5  and  C_6 
REMARK    4  A    between atoms: C_6  and  C_7 
REMARK    5  A    between atoms: C_7  and  N_8 
ROOT
HETATM    1  C   UNL     1     -41.949 -48.960  11.398  1.00  0.00     0.242 C 
HETATM    2  O   UNL     1     -40.955 -49.551  10.978  1.00  0.00    -0.271 OA
HETATM    3  N   UNL     1     -42.838 -49.548  12.275  1.00  0.00    -0.358 N 
HETATM    4  H   UNL     1     -43.579 -48.990  12.691  1.00  0.00     0.162 HD
ENDROOT
BRANCH   3   5
HETATM    5  C   UNL     1     -42.596 -50.892  12.773  1.00  0.00     0.152 C 
BRANCH   5   6
HETATM    6  C   UNL     1     -43.231 -51.138  14.150  1.00  0.00     0.292 C 
BRANCH   6   7
HETATM    7  N   UNL     1     -44.095 -52.330  14.220  1.00  0.00     0.090 N 
HETATM    8  C   UNL     1     -44.954 -52.522  13.040  1.00  0.00     0.276 C 
HETATM    9  C   UNL     1     -46.073 -51.474  12.912  1.00  0.00     0.010 C 
HETATM   10  C   UNL     1     -46.940 -51.760  11.687  1.00  0.00     0.011 C 
HETATM   11  C   UNL     1     -46.922 -51.447  14.191  1.00  0.00     0.012 C 
HETATM   12  C   UNL     1     -46.038 -51.275  15.433  1.00  0.00     0.010 C 
HETATM   13  C   UNL     1     -46.869 -51.352  16.712  1.00  0.00     0.011 C 
HETATM   14  C   UNL     1     -44.917 -52.332  15.444  1.00  0.00     0.276 C 
ENDBRANCH   6   7
ENDBRANCH   5   6
ENDBRANCH   3   5
BRANCH   1  15
HETATM   15  C   UNL     1     -42.315 -47.553  10.947  1.00  0.00     0.196 C 
HETATM   16  C   UNL     1     -43.015 -46.765  12.051  1.00  0.00     0.044 C 
BRANCH  15  17
HETATM   17  N   UNL     1     -43.120 -47.604   9.739  1.00  0.00    -0.273 N 
HETATM   18  C   UNL     1     -44.439 -47.308   9.588  1.00  0.00     0.202 A 
HETATM   19  N   UNL     1     -44.789 -47.502   8.336  1.00  0.00    -0.346 N 
HETATM   20  C   UNL     1     -43.632 -47.933   7.755  1.00  0.00     0.198 A 
ATOM     21  HN  UNL     1     -45.703 -47.363   7.904  1.00  0.00     0.167 HD
HETATM   22  N   UNL     1     -42.587 -48.043   8.580  1.00  0.00    -0.292 N 
ATOM     23  HN  UNL     1     -41.641 -48.371   8.386  1.00  0.00     0.188 HD
ENDBRANCH  15  17
ENDBRANCH   1  15
TORSDOF 5
ENDMDL
MODEL 2
REMARK VINA RESULT:      -6.3      2.351      3.087
REMARK  5 active torsions:
REMARK  status: ('A' for Active; 'I' for Inactive)
REMARK    1  A    between atoms: C_2  and  C_3 
REMARK    2  A    between atoms: C_2  and  N_16 
REMARK       I    between atoms: C_3  and  N_5 
REMARK    3  A    between atoms: N_5  and  C_6 
REMARK    4  A    between atoms: C_6  and  C_7 
REMARK    5  A    between atoms: C_7  and  N_8 
ROOT
HETATM    1  C   UNL     1     -42.695 -48.345  11.604  1.00  0.00     0.242 C 
HETATM    2  O   UNL     1     -43.134 -47.711  12.563  1.00  0.00    -0.271 OA
HETATM    3  N   UNL     1     -42.253 -49.647  11.724  1.00  0.00    -0.358 N 
HETATM    4  H   UNL     1     -42.010 -50.175  10.890  1.00  0.00     0.162 HD
ENDROOT
BRANCH   3   5
HETATM    5  C   UNL     1     -42.336 -50.335  13.001  1.00  0.00     0.152 C 
BRANCH   5   6
HETATM    6  C   UNL     1     -43.450 -51.391  13.035  1.00  0.00     0.292 C 
BRANCH   6   7
HETATM    7  N   UNL     1     -43.086 -52.683  12.426  1.00  0.00     0.090 N 
HETATM    8  C   UNL     1     -44.158 -53.690  12.462  1.00  0.00     0.276 C 
HETATM    9  C   UNL     1     -44.464 -54.218  13.875  1.00  0.00     0.010 C 
HETATM   10  C   UNL     1     -45.560 -55.281  13.827  1.00  0.00     0.011 C 
HETATM   11  C   UNL     1     -43.188 -54.775  14.521  1.00  0.00     0.012 C 
HETATM   12  C   UNL     1     -42.050 -53.745  14.465  1.00  0.00     0.010 C 
HETATM   13  C   UNL     1     -40.752 -54.334  15.012  1.00  0.00     0.011 C 
HETATM   14  C   UNL     1     -41.857 -53.237  13.024  1.00  0.00     0.276 C 
ENDBRANCH   6   7
ENDBRANCH   5   6
ENDBRANCH   3   5
BRANCH   1  15
HETATM   15  C   UNL     1     -42.551 -47.734  10.217  1.00  0.00     0.196 C 
HETATM   16  C   UNL     1     -41.536 -46.594  10.200  1.00  0.00     0.044 C 
BRANCH  15  17
HETATM   17  N   UNL     1     -43.845 -47.301   9.719  1.00  0.00    -0.273 N 
HETATM   18  C   UNL     1     -44.152 -46.166   9.036  1.00  0.00     0.202 A 
HETATM   19  N   UNL     1     -45.442 -46.143   8.785  1.00  0.00    -0.346 N 
HETATM   20  C   UNL     1     -45.888 -47.300   9.354  1.00  0.00     0.198 A 
ATOM     21  HN  UNL     1     -45.978 -45.433   8.286  1.00  0.00     0.167 HD
HETATM   22  N   UNL     1     -44.952 -48.031   9.967  1.00  0.00    -0.292 N 
ATOM     23  HN  UNL     1     -45.048 -48.905  10.483  1.00  0.00     0.188 HD
ENDBRANCH  15  17
ENDBRANCH   1  15
TORSDOF 5
ENDMDL
MODEL 3
REMARK VINA RESULT:      -6.2      1.397      1.849
REMARK  5 active torsions:
REMARK  status: ('A' for Active; 'I' for Inactive)
REMARK    1  A    between atoms: C_2  and  C_3 
REMARK    2  A    between atoms: C_2  and  N_16 
REMARK       I    between atoms: C_3  and  N_5 
REMARK    3  A    between atoms: N_5  and  C_6 
REMARK    4  A    between atoms: C_6  and  C_7 
REMARK    5  A    between atoms: C_7  and  N_8 
ROOT
HETATM    1  C   UNL     1     -40.838 -50.311  12.177  1.00  0.00     0.242 C 
HETATM    2  O   UNL     1     -40.264 -50.513  13.246  1.00  0.00    -0.271 OA
HETATM    3  N   UNL     1     -41.826 -51.151  11.703  1.00  0.00    -0.358 N 
HETATM    4  H   UNL     1     -42.358 -50.887  10.878  1.00  0.00     0.162 HD
ENDROOT
BRANCH   3   5
HETATM    5  C   UNL     1     -42.255 -52.295  12.489  1.00  0.00     0.152 C 
BRANCH   5   6
HETATM    6  C   UNL     1     -43.279 -51.921  13.571  1.00  0.00     0.292 C 
BRANCH   6   7
HETATM    7  N   UNL     1     -44.379 -52.889  13.732  1.00  0.00     0.090 N 
HETATM    8  C   UNL     1     -45.343 -52.898  12.620  1.00  0.00     0.276 C 
HETATM    9  C   UNL     1     -46.209 -51.628  12.543  1.00  0.00     0.010 C 
HETATM   10  C   UNL     1     -47.205 -51.725  11.389  1.00  0.00     0.011 C 
HETATM   11  C   UNL     1     -46.934 -51.399  13.876  1.00  0.00     0.012 C 
HETATM   12  C   UNL     1     -45.945 -51.416  15.049  1.00  0.00     0.010 C 
HETATM   13  C   UNL     1     -46.677 -51.292  16.384  1.00  0.00     0.011 C 
HETATM   14  C   UNL     1     -45.089 -52.695  15.010  1.00  0.00     0.276 C 
ENDBRANCH   6   7
ENDBRANCH   5   6
ENDBRANCH   3   5
BRANCH   1  15
HETATM   15  C   UNL     1     -40.474 -49.152  11.260  1.00  0.00     0.196 C 
HETATM   16  C   UNL     1     -39.394 -48.261  11.868  1.00  0.00     0.044 C 
BRANCH  15  17
HETATM   17  N   UNL     1     -41.661 -48.389  10.915  1.00  0.00    -0.273 N 
HETATM   18  C   UNL     1     -42.564 -47.806  11.749  1.00  0.00     0.202 A 
HETATM   19  N   UNL     1     -43.504 -47.225  11.038  1.00  0.00    -0.346 N 
HETATM   20  C   UNL     1     -43.130 -47.495   9.753  1.00  0.00     0.198 A 
ATOM     21  HN  UNL     1     -44.315 -46.700  11.365  1.00  0.00     0.167 HD
HETATM   22  N   UNL     1     -42.023 -48.233   9.626  1.00  0.00    -0.292 N 
ATOM     23  HN  UNL     1     -41.573 -48.584   8.780  1.00  0.00     0.188 HD
ENDBRANCH  15  17
ENDBRANCH   1  15
TORSDOF 5
ENDMDL
MODEL 4
REMARK VINA RESULT:      -6.1      1.707      2.570
REMARK  5 active torsions:
REMARK  status: ('A' for Active; 'I' for Inactive)
REMARK    1  A    between atoms: C_2  and  C_3 
REMARK    2  A    between atoms: C_2  and  N_16 
REMARK       I    between atoms: C_3  and  N_5 
REMARK    3  A    between atoms: N_5  and  C_6 
REMARK    4  A    between atoms: C_6  and  C_7 
REMARK    5  A    between atoms: C_7  and  N_8 
ROOT
HETATM    1  C   UNL     1     -41.877 -48.539  11.341  1.00  0.00     0.242 C 
HETATM    2  O   UNL     1     -42.320 -48.228  12.445  1.00  0.00    -0.271 OA
HETATM    3  N   UNL     1     -41.206 -49.726  11.126  1.00  0.00    -0.358 N 
HETATM    4  H   UNL     1     -40.960 -50.001  10.178  1.00  0.00     0.162 HD
ENDROOT
BRANCH   3   5
HETATM    5  C   UNL     1     -41.041 -50.682  12.208  1.00  0.00     0.152 C 
BRANCH   5   6
HETATM    6  C   UNL     1     -42.227 -51.650  12.330  1.00  0.00     0.292 C 
BRANCH   6   7
HETATM    7  N   UNL     1     -42.978 -51.540  13.594  1.00  0.00     0.090 N 
HETATM    8  C   UNL     1     -42.931 -52.751  14.430  1.00  0.00     0.276 C 
HETATM    9  C   UNL     1     -43.710 -53.940  13.841  1.00  0.00     0.010 C 
HETATM   10  C   UNL     1     -43.644 -55.144  14.779  1.00  0.00     0.011 C 
HETATM   11  C   UNL     1     -45.166 -53.537  13.567  1.00  0.00     0.012 C 
HETATM   12  C   UNL     1     -45.231 -52.259  12.720  1.00  0.00     0.010 C 
HETATM   13  C   UNL     1     -46.676 -51.799  12.534  1.00  0.00     0.011 C 
HETATM   14  C   UNL     1     -44.380 -51.146  13.359  1.00  0.00     0.276 C 
ENDBRANCH   6   7
ENDBRANCH   5   6
ENDBRANCH   3   5
BRANCH   1  15
HETATM   15  C   UNL     1     -41.978 -47.621  10.131  1.00  0.00     0.196 C 
HETATM   16  C   UNL     1     -41.538 -46.197  10.458  1.00  0.00     0.044 C 
BRANCH  15  17
HETATM   17  N   UNL     1     -43.325 -47.649   9.588  1.00  0.00    -0.273 N 
HETATM   18  C   UNL     1     -43.711 -47.658   8.284  1.00  0.00     0.202 A 
HETATM   19  N   UNL     1     -45.024 -47.666   8.217  1.00  0.00    -0.346 N 
HETATM   20  C   UNL     1     -45.400 -47.650   9.529  1.00  0.00     0.198 A 
ATOM     21  HN  UNL     1     -45.617 -47.681   7.388  1.00  0.00     0.167 HD
HETATM   22  N   UNL     1     -44.394 -47.608  10.408  1.00  0.00    -0.292 N 
ATOM     23  HN  UNL     1     -44.427 -47.557  11.426  1.00  0.00     0.188 HD
ENDBRANCH  15  17
ENDBRANCH   1  15
TORSDOF 5
ENDMDL
MODEL 5
REMARK VINA RESULT:      -6.0      2.421      3.725
REMARK  5 active torsions:
REMARK  status: ('A' for Active; 'I' for Inactive)
REMARK    1  A    between atoms: C_2  and  C_3 
REMARK    2  A    between atoms: C_2  and  N_16 
REMARK       I    between atoms: C_3  and  N_5 
REMARK    3  A    between atoms: N_5  and  C_6 
REMARK    4  A    between atoms: C_6  and  C_7 
REMARK    5  A    between atoms: C_7  and  N_8 
ROOT
HETATM    1  C   UNL     1     -42.016 -47.630  10.988  1.00  0.00     0.242 C 
HETATM    2  O   UNL     1     -42.494 -47.597  12.122  1.00  0.00    -0.271 OA
HETATM    3  N   UNL     1     -40.946 -48.440  10.665  1.00  0.00    -0.358 N 
HETATM    4  H   UNL     1     -40.656 -48.529   9.695  1.00  0.00     0.162 HD
ENDROOT
BRANCH   3   5
HETATM    5  C   UNL     1     -40.371 -49.328  11.661  1.00  0.00     0.152 C 
BRANCH   5   6
HETATM    6  C   UNL     1     -41.102 -50.676  11.747  1.00  0.00     0.292 C 
BRANCH   6   7
HETATM    7  N   UNL     1     -41.503 -51.068  13.110  1.00  0.00     0.090 N 
HETATM    8  C   UNL     1     -40.596 -52.034  13.751  1.00  0.00     0.276 C 
HETATM    9  C   UNL     1     -40.642 -53.438  13.121  1.00  0.00     0.010 C 
HETATM   10  C   UNL     1     -39.704 -54.390  13.860  1.00  0.00     0.011 C 
HETATM   11  C   UNL     1     -42.081 -53.973  13.124  1.00  0.00     0.012 C 
HETATM   12  C   UNL     1     -43.043 -52.964  12.484  1.00  0.00     0.010 C 
HETATM   13  C   UNL     1     -44.488 -53.449  12.579  1.00  0.00     0.011 C 
HETATM   14  C   UNL     1     -42.886 -51.580  13.142  1.00  0.00     0.276 C 
ENDBRANCH   6   7
ENDBRANCH   5   6
ENDBRANCH   3   5
BRANCH   1  15
HETATM   15  C   UNL     1     -42.524 -46.743   9.861  1.00  0.00     0.196 C 
HETATM   16  C   UNL     1     -42.685 -45.292  10.307  1.00  0.00     0.044 C 
BRANCH  15  17
HETATM   17  N   UNL     1     -43.763 -47.274   9.321  1.00  0.00    -0.273 N 
HETATM   18  C   UNL     1     -43.984 -47.829   8.098  1.00  0.00     0.202 A 
HETATM   19  N   UNL     1     -45.250 -48.166   7.995  1.00  0.00    -0.346 N 
HETATM   20  C   UNL     1     -45.771 -47.781   9.196  1.00  0.00     0.198 A 
ATOM     21  HN  UNL     1     -45.726 -48.609   7.209  1.00  0.00     0.167 HD
HETATM   22  N   UNL     1     -44.906 -47.200  10.032  1.00  0.00    -0.292 N 
ATOM     23  HN  UNL     1     -45.067 -46.806  10.958  1.00  0.00     0.188 HD
ENDBRANCH  15  17
ENDBRANCH   1  15
TORSDOF 5
ENDMDL
MODEL 6
REMARK VINA RESULT:      -5.9      1.619      2.272
REMARK  5 active torsions:
REMARK  status: ('A' for Active; 'I' for Inactive)
REMARK    1  A    between atoms: C_2  and  C_3 
REMARK    2  A    between atoms: C_2  and  N_16 
REMARK       I    between atoms: C_3  and  N_5 
REMARK    3  A    between atoms: N_5  and  C_6 
REMARK    4  A    between atoms: C_6  and  C_7 
REMARK    5  A    between atoms: C_7  and  N_8 
ROOT
HETATM    1  C   UNL     1     -42.039 -48.584  11.358  1.00  0.00     0.242 C 
HETATM    2  O   UNL     1     -40.840 -48.857  11.328  1.00  0.00    -0.271 OA
HETATM    3  N   UNL     1     -42.961 -49.388  11.998  1.00  0.00    -0.358 N 
HETATM    4  H   UNL     1     -43.921 -49.069  12.103  1.00  0.00     0.162 HD
ENDROOT
BRANCH   3   5
HETATM    5  C   UNL     1     -42.526 -50.579  12.709  1.00  0.00     0.152 C 
BRANCH   5   6
HETATM    6  C   UNL     1     -43.246 -50.763  14.053  1.00  0.00     0.292 C 
BRANCH   6   7
HETATM    7  N   UNL     1     -43.973 -52.038  14.187  1.00  0.00     0.090 N 
HETATM    8  C   UNL     1     -44.835 -52.364  13.039  1.00  0.00     0.276 C 
HETATM    9  C   UNL     1     -46.065 -51.448  12.909  1.00  0.00     0.010 C 
HETATM   10  C   UNL     1     -46.925 -51.868  11.719  1.00  0.00     0.011 C 
HETATM   11  C   UNL     1     -46.880 -51.467  14.209  1.00  0.00     0.012 C 
HETATM   12  C   UNL     1     -45.989 -51.157  15.420  1.00  0.00     0.010 C 
HETATM   13  C   UNL     1     -46.775 -51.277  16.723  1.00  0.00     0.011 C 
HETATM   14  C   UNL     1     -44.760 -52.085  15.434  1.00  0.00     0.276 C 
ENDBRANCH   6   7
ENDBRANCH   5   6
ENDBRANCH   3   5
BRANCH   1  15
HETATM   15  C   UNL     1     -42.619 -47.369  10.646  1.00  0.00     0.196 C 
HETATM   16  C   UNL     1     -42.951 -47.670   9.187  1.00  0.00     0.044 C 
BRANCH  15  17
HETATM   17  N   UNL     1     -41.717 -46.237  10.764  1.00  0.00    -0.273 N 
HETATM   18  C   UNL     1     -41.934 -45.042  11.377  1.00  0.00     0.202 A 
HETATM   19  N   UNL     1     -40.871 -44.283  11.241  1.00  0.00    -0.346 N 
HETATM   20  C   UNL     1     -40.021 -45.067  10.517  1.00  0.00     0.198 A 
ATOM     21  HN  UNL     1     -40.717 -43.337  11.593  1.00  0.00     0.167 HD
HETATM   22  N   UNL     1     -40.506 -46.264  10.172  1.00  0.00    -0.292 N 
ATOM     23  HN  UNL     1     -40.075 -46.999   9.612  1.00  0.00     0.188 HD
ENDBRANCH  15  17
ENDBRANCH   1  15
TORSDOF 5
ENDMDL
MODEL 7
REMARK VINA RESULT:      -5.9      1.622      2.589
REMARK  5 active torsions:
REMARK  status: ('A' for Active; 'I' for Inactive)
REMARK    1  A    between atoms: C_2  and  C_3 
REMARK    2  A    between atoms: C_2  and  N_16 
REMARK       I    between atoms: C_3  and  N_5 
REMARK    3  A    between atoms: N_5  and  C_6 
REMARK    4  A    between atoms: C_6  and  C_7 
REMARK    5  A    between atoms: C_7  and  N_8 
ROOT
HETATM    1  C   UNL     1     -42.757 -48.354  11.554  1.00  0.00     0.242 C 
HETATM    2  O   UNL     1     -43.235 -47.760  12.519  1.00  0.00    -0.271 OA
HETATM    3  N   UNL     1     -42.280 -49.646  11.648  1.00  0.00    -0.358 N 
HETATM    4  H   UNL     1     -42.003 -50.143  10.806  1.00  0.00     0.162 HD
ENDROOT
BRANCH   3   5
HETATM    5  C   UNL     1     -42.371 -50.371  12.904  1.00  0.00     0.152 C 
BRANCH   5   6
HETATM    6  C   UNL     1     -43.042 -51.744  12.748  1.00  0.00     0.292 C 
BRANCH   6   7
HETATM    7  N   UNL     1     -44.512 -51.721  12.846  1.00  0.00     0.090 N 
HETATM    8  C   UNL     1     -45.025 -51.052  14.053  1.00  0.00     0.276 C 
HETATM    9  C   UNL     1     -44.753 -51.827  15.354  1.00  0.00     0.010 C 
HETATM   10  C   UNL     1     -45.343 -51.089  16.553  1.00  0.00     0.011 C 
HETATM   11  C   UNL     1     -45.320 -53.249  15.252  1.00  0.00     0.012 C 
HETATM   12  C   UNL     1     -44.817 -53.951  13.983  1.00  0.00     0.010 C 
HETATM   13  C   UNL     1     -45.461 -55.327  13.826  1.00  0.00     0.011 C 
HETATM   14  C   UNL     1     -45.084 -53.077  12.744  1.00  0.00     0.276 C 
ENDBRANCH   6   7
ENDBRANCH   5   6
ENDBRANCH   3   5
BRANCH   1  15
HETATM   15  C   UNL     1     -42.599 -47.700  10.188  1.00  0.00     0.196 C 
HETATM   16  C   UNL     1     -41.594 -46.552  10.219  1.00  0.00     0.044 C 
BRANCH  15  17
HETATM   17  N   UNL     1     -43.890 -47.263   9.686  1.00  0.00    -0.273 N 
HETATM   18  C   UNL     1     -44.194 -46.117   9.019  1.00  0.00     0.202 A 
HETATM   19  N   UNL     1     -45.481 -46.094   8.756  1.00  0.00    -0.346 N 
HETATM   20  C   UNL     1     -45.929 -47.262   9.302  1.00  0.00     0.198 A 
ATOM     21  HN  UNL     1     -46.016 -45.377   8.265  1.00  0.00     0.167 HD
HETATM   22  N   UNL     1     -44.997 -47.999   9.911  1.00  0.00    -0.292 N 
ATOM     23  HN  UNL     1     -45.095 -48.882  10.412  1.00  0.00     0.188 HD
ENDBRANCH  15  17
ENDBRANCH   1  15
TORSDOF 5
ENDMDL
MODEL 8
REMARK VINA RESULT:      -5.8      3.216      4.304
REMARK  5 active torsions:
REMARK  status: ('A' for Active; 'I' for Inactive)
REMARK    1  A    between atoms: C_2  and  C_3 
REMARK    2  A    between atoms: C_2  and  N_16 
REMARK       I    between atoms: C_3  and  N_5 
REMARK    3  A    between atoms: N_5  and  C_6 
REMARK    4  A    between atoms: C_6  and  C_7 
REMARK    5  A    between atoms: C_7  and  N_8 
ROOT
HETATM    1  C   UNL     1     -41.984 -53.469  13.089  1.00  0.00     0.242 C 
HETATM    2  O   UNL     1     -42.928 -53.071  12.407  1.00  0.00    -0.271 OA
HETATM    3  N   UNL     1     -42.161 -54.315  14.165  1.00  0.00    -0.358 N 
HETATM    4  H   UNL     1     -41.350 -54.715  14.630  1.00  0.00     0.162 HD
ENDROOT
BRANCH   3   5
HETATM    5  C   UNL     1     -43.486 -54.806  14.503  1.00  0.00     0.152 C 
BRANCH   5   6
HETATM    6  C   UNL     1     -44.205 -53.916  15.528  1.00  0.00     0.292 C 
BRANCH   6   7
HETATM    7  N   UNL     1     -45.677 -53.961  15.451  1.00  0.00     0.090 N 
HETATM    8  C   UNL     1     -46.220 -53.649  14.119  1.00  0.00     0.276 C 
HETATM    9  C   UNL     1     -46.047 -52.176  13.710  1.00  0.00     0.010 C 
HETATM   10  C   UNL     1     -46.665 -51.923  12.336  1.00  0.00     0.011 C 
HETATM   11  C   UNL     1     -46.668 -51.255  14.769  1.00  0.00     0.012 C 
HETATM   12  C   UNL     1     -46.132 -51.587  16.168  1.00  0.00     0.010 C 
HETATM   13  C   UNL     1     -46.825 -50.742  17.235  1.00  0.00     0.011 C 
HETATM   14  C   UNL     1     -46.299 -53.089  16.464  1.00  0.00     0.276 C 
ENDBRANCH   6   7
ENDBRANCH   5   6
ENDBRANCH   3   5
BRANCH   1  15
HETATM   15  C   UNL     1     -40.551 -53.021  12.842  1.00  0.00     0.196 C 
HETATM   16  C   UNL     1     -39.644 -53.332  14.030  1.00  0.00     0.044 C 
BRANCH  15  17
HETATM   17  N   UNL     1     -40.515 -51.610  12.501  1.00  0.00    -0.273 N 
HETATM   18  C   UNL     1     -40.279 -50.548  13.318  1.00  0.00     0.202 A 
HETATM   19  N   UNL     1     -40.353 -49.436  12.622  1.00  0.00    -0.346 N 
HETATM   20  C   UNL     1     -40.652 -49.878  11.365  1.00  0.00     0.198 A 
ATOM     21  HN  UNL     1     -40.220 -48.477  12.941  1.00  0.00     0.167 HD
HETATM   22  N   UNL     1     -40.793 -51.202  11.247  1.00  0.00    -0.292 N 
ATOM     23  HN  UNL     1     -41.044 -51.754  10.427  1.00  0.00     0.188 HD
ENDBRANCH  15  17
ENDBRANCH   1  15
TORSDOF 5
ENDMDL
MODEL 9
REMARK VINA RESULT:      -5.4      2.353      3.753
REMARK  5 active torsions:
REMARK  status: ('A' for Active; 'I' for Inactive)
REMARK    1  A    between atoms: C_2  and  C_3 
REMARK    2  A    between atoms: C_2  and  N_16 
REMARK       I    between atoms: C_3  and  N_5 
REMARK    3  A    between atoms: N_5  and  C_6 
REMARK    4  A    between atoms: C_6  and  C_7 
REMARK    5  A    between atoms: C_7  and  N_8 
ROOT
HETATM    1  C   UNL     1     -40.861 -52.242  12.719  1.00  0.00     0.242 C 
HETATM    2  O   UNL     1     -41.322 -52.696  11.672  1.00  0.00    -0.271 OA
HETATM    3  N   UNL     1     -41.246 -52.715  13.958  1.00  0.00    -0.358 N 
HETATM    4  H   UNL     1     -40.758 -52.398  14.792  1.00  0.00     0.162 HD
ENDROOT
BRANCH   3   5
HETATM    5  C   UNL     1     -42.190 -53.815  14.062  1.00  0.00     0.152 C 
BRANCH   5   6
HETATM    6  C   UNL     1     -43.611 -53.346  14.405  1.00  0.00     0.292 C 
BRANCH   6   7
HETATM    7  N   UNL     1     -43.844 -51.904  14.205  1.00  0.00     0.090 N 
HETATM    8  C   UNL     1     -44.430 -51.221  15.370  1.00  0.00     0.276 C 
HETATM    9  C   UNL     1     -45.889 -51.619  15.651  1.00  0.00     0.010 C 
HETATM   10  C   UNL     1     -46.437 -50.846  16.849  1.00  0.00     0.011 C 
HETATM   11  C   UNL     1     -46.753 -51.382  14.404  1.00  0.00     0.012 C 
HETATM   12  C   UNL     1     -46.139 -52.064  13.174  1.00  0.00     0.010 C 
HETATM   13  C   UNL     1     -46.940 -51.743  11.914  1.00  0.00     0.011 C 
HETATM   14  C   UNL     1     -44.666 -51.648  13.008  1.00  0.00     0.276 C 
ENDBRANCH   6   7
ENDBRANCH   5   6
ENDBRANCH   3   5
BRANCH   1  15
HETATM   15  C   UNL     1     -39.873 -51.085  12.743  1.00  0.00     0.196 C 
HETATM   16  C   UNL     1     -39.380 -50.786  14.157  1.00  0.00     0.044 C 
BRANCH  15  17
HETATM   17  N   UNL     1     -40.458 -49.908  12.125  1.00  0.00    -0.273 N 
HETATM   18  C   UNL     1     -40.995 -48.814  12.729  1.00  0.00     0.202 A 
HETATM   19  N   UNL     1     -41.434 -47.981  11.812  1.00  0.00    -0.346 N 
HETATM   20  C   UNL     1     -41.146 -48.627  10.644  1.00  0.00     0.198 A 
ATOM     21  HN  UNL     1     -41.880 -47.073  11.941  1.00  0.00     0.167 HD
HETATM   22  N   UNL     1     -40.575 -49.827  10.784  1.00  0.00    -0.292 N 
ATOM     23  HN  UNL     1     -40.302 -50.500  10.069  1.00  0.00     0.188 HD
ENDBRANCH  15  17
ENDBRANCH   1  15
TORSDOF 5
ENDMDL
