MODEL 1
REMARK VINA RESULT:      -5.8      0.000      0.000
REMARK  4 active torsions:
REMARK  status: ('A' for Active; 'I' for Inactive)
REMARK    1  A    between atoms: O_1  and  C_2 
REMARK    2  A    between atoms: C_2  and  C_3 
REMARK    3  A    between atoms: C_2  and  C_16 
REMARK    4  A    between atoms: C_3  and  N_4 
ROOT
HETATM    1  N   UNL     1     -42.495 -51.778  12.536  1.00  0.00    -0.338 N 
HETATM    2  C   UNL     1     -42.734 -50.436  12.662  1.00  0.00     0.184 A 
HETATM    3  N   UNL     1     -43.955 -50.196  13.074  1.00  0.00    -0.350 N 
ATOM      4  HN  UNL     1     -44.388 -49.285  13.221  1.00  0.00     0.166 HD
HETATM    5  C   UNL     1     -44.524 -51.427  13.267  1.00  0.00     0.063 A 
HETATM    6  C   UNL     1     -45.808 -51.746  13.733  1.00  0.00     0.077 A 
HETATM    7  C   UNL     1     -46.149 -53.091  13.857  1.00  0.00     0.157 A 
HETATM    8  F   UNL     1     -47.368 -53.414  14.316  1.00  0.00    -0.203 F 
HETATM    9  C   UNL     1     -45.250 -54.099  13.521  1.00  0.00     0.157 A 
HETATM   10  F   UNL     1     -45.607 -55.384  13.655  1.00  0.00    -0.203 F 
HETATM   11  C   UNL     1     -43.968 -53.805  13.047  1.00  0.00     0.077 A 
HETATM   12  C   UNL     1     -43.631 -52.450  12.933  1.00  0.00     0.065 A 
ENDROOT
BRANCH   1  13
HETATM   13  C   UNL     1     -41.236 -52.357  12.096  1.00  0.00     0.170 C 
BRANCH  13  14
HETATM   14  C   UNL     1     -40.267 -52.652  13.248  1.00  0.00     0.243 C 
BRANCH  14  15
HETATM   15  O   UNL     1     -38.963 -52.138  12.923  1.00  0.00    -0.385 OA
HETATM   16  H   UNL     1     -38.292 -52.766  13.252  1.00  0.00     0.210 HD
ENDBRANCH  14  15
BRANCH  14  17
HETATM   17  C   UNL     1     -40.260 -54.167  13.540  1.00  0.00     0.414 C 
HETATM   18  F   UNL     1     -40.903 -54.479  14.685  1.00  0.00    -0.168 F 
HETATM   19  F   UNL     1     -40.879 -54.838  12.538  1.00  0.00    -0.168 F 
HETATM   20  F   UNL     1     -39.005 -54.663  13.631  1.00  0.00    -0.168 F 
ENDBRANCH  14  17
ENDBRANCH  13  14
ENDBRANCH   1  13
TORSDOF 4
ENDMDL
MODEL 2
REMARK VINA RESULT:      -5.6      2.517      5.482
REMARK  4 active torsions:
REMARK  status: ('A' for Active; 'I' for Inactive)
REMARK    1  A    between atoms: O_1  and  C_2 
REMARK    2  A    between atoms: C_2  and  C_3 
REMARK    3  A    between atoms: C_2  and  C_16 
REMARK    4  A    between atoms: C_3  and  N_4 
ROOT
HETATM    1  N   UNL     1     -42.605 -53.169  13.239  1.00  0.00    -0.338 N 
HETATM    2  C   UNL     1     -42.012 -52.896  12.036  1.00  0.00     0.184 A 
HETATM    3  N   UNL     1     -40.756 -53.272  12.017  1.00  0.00    -0.350 N 
ATOM      4  HN  UNL     1     -40.089 -53.157  11.254  1.00  0.00     0.166 HD
HETATM    5  C   UNL     1     -40.529 -53.851  13.237  1.00  0.00     0.063 A 
HETATM    6  C   UNL     1     -39.360 -54.449  13.730  1.00  0.00     0.077 A 
HETATM    7  C   UNL     1     -39.387 -54.987  15.016  1.00  0.00     0.157 A 
HETATM    8  F   UNL     1     -38.281 -55.575  15.498  1.00  0.00    -0.203 F 
HETATM    9  C   UNL     1     -40.535 -54.928  15.800  1.00  0.00     0.157 A 
HETATM   10  F   UNL     1     -40.529 -55.458  17.032  1.00  0.00    -0.203 F 
HETATM   11  C   UNL     1     -41.708 -54.330  15.333  1.00  0.00     0.077 A 
HETATM   12  C   UNL     1     -41.676 -53.800  14.037  1.00  0.00     0.065 A 
ENDROOT
BRANCH   1  13
HETATM   13  C   UNL     1     -43.988 -52.866  13.566  1.00  0.00     0.170 C 
BRANCH  13  14
HETATM   14  C   UNL     1     -44.988 -53.852  12.950  1.00  0.00     0.243 C 
BRANCH  14  15
HETATM   15  O   UNL     1     -45.957 -53.131  12.168  1.00  0.00    -0.385 OA
HETATM   16  H   UNL     1     -46.795 -53.629  12.176  1.00  0.00     0.210 HD
ENDBRANCH  14  15
BRANCH  14  17
HETATM   17  C   UNL     1     -45.631 -54.700  14.067  1.00  0.00     0.414 C 
HETATM   18  F   UNL     1     -44.868 -54.761  15.179  1.00  0.00    -0.168 F 
HETATM   19  F   UNL     1     -46.824 -54.168  14.429  1.00  0.00    -0.168 F 
HETATM   20  F   UNL     1     -45.871 -55.971  13.669  1.00  0.00    -0.168 F 
ENDBRANCH  14  17
ENDBRANCH  13  14
ENDBRANCH   1  13
TORSDOF 4
ENDMDL
MODEL 3
REMARK VINA RESULT:      -5.6      3.065      5.937
REMARK  4 active torsions:
REMARK  status: ('A' for Active; 'I' for Inactive)
REMARK    1  A    between atoms: O_1  and  C_2 
REMARK    2  A    between atoms: C_2  and  C_3 
REMARK    3  A    between atoms: C_2  and  C_16 
REMARK    4  A    between atoms: C_3  and  N_4 
ROOT
HETATM    1  N   UNL     1     -43.836 -53.935  13.653  1.00  0.00    -0.338 N 
HETATM    2  C   UNL     1     -43.486 -54.835  14.623  1.00  0.00     0.184 A 
HETATM    3  N   UNL     1     -42.202 -54.793  14.883  1.00  0.00    -0.350 N 
ATOM      4  HN  UNL     1     -41.687 -55.377  15.542  1.00  0.00     0.166 HD
HETATM    5  C   UNL     1     -41.698 -53.801  14.085  1.00  0.00     0.063 A 
HETATM    6  C   UNL     1     -40.384 -53.321  13.990  1.00  0.00     0.077 A 
HETATM    7  C   UNL     1     -40.125 -52.279  13.101  1.00  0.00     0.157 A 
HETATM    8  F   UNL     1     -38.875 -51.798  13.008  1.00  0.00    -0.203 F 
HETATM    9  C   UNL     1     -41.135 -51.730  12.316  1.00  0.00     0.157 A 
HETATM   10  F   UNL     1     -40.854 -50.726  11.473  1.00  0.00    -0.203 F 
HETATM   11  C   UNL     1     -42.450 -52.198  12.388  1.00  0.00     0.077 A 
HETATM   12  C   UNL     1     -42.703 -53.239  13.291  1.00  0.00     0.065 A 
ENDROOT
BRANCH   1  13
HETATM   13  C   UNL     1     -45.186 -53.748  13.147  1.00  0.00     0.170 C 
BRANCH  13  14
HETATM   14  C   UNL     1     -46.122 -53.063  14.150  1.00  0.00     0.243 C 
BRANCH  14  15
HETATM   15  O   UNL     1     -47.329 -53.834  14.286  1.00  0.00    -0.385 OA
HETATM   16  H   UNL     1     -47.934 -53.593  13.559  1.00  0.00     0.210 HD
ENDBRANCH  14  15
BRANCH  14  17
HETATM   17  C   UNL     1     -46.384 -51.611  13.702  1.00  0.00     0.414 C 
HETATM   18  F   UNL     1     -46.932 -51.536  12.470  1.00  0.00    -0.168 F 
HETATM   19  F   UNL     1     -47.244 -51.007  14.559  1.00  0.00    -0.168 F 
HETATM   20  F   UNL     1     -45.253 -50.868  13.690  1.00  0.00    -0.168 F 
ENDBRANCH  14  17
ENDBRANCH  13  14
ENDBRANCH   1  13
TORSDOF 4
ENDMDL
MODEL 4
REMARK VINA RESULT:      -5.6      5.887      7.609
REMARK  4 active torsions:
REMARK  status: ('A' for Active; 'I' for Inactive)
REMARK    1  A    between atoms: O_1  and  C_2 
REMARK    2  A    between atoms: C_2  and  C_3 
REMARK    3  A    between atoms: C_2  and  C_16 
REMARK    4  A    between atoms: C_3  and  N_4 
ROOT
HETATM    1  N   UNL     1     -40.485 -48.352  11.708  1.00  0.00    -0.338 N 
HETATM    2  C   UNL     1     -41.308 -48.554  10.632  1.00  0.00     0.184 A 
HETATM    3  N   UNL     1     -41.643 -47.424  10.058  1.00  0.00    -0.350 N 
ATOM      4  HN  UNL     1     -42.264 -47.299   9.259  1.00  0.00     0.166 HD
HETATM    5  C   UNL     1     -40.981 -46.448  10.755  1.00  0.00     0.063 A 
HETATM    6  C   UNL     1     -40.962 -45.063  10.539  1.00  0.00     0.077 A 
HETATM    7  C   UNL     1     -40.190 -44.274  11.389  1.00  0.00     0.157 A 
HETATM    8  F   UNL     1     -40.149 -42.948  11.188  1.00  0.00    -0.203 F 
HETATM    9  C   UNL     1     -39.460 -44.835  12.433  1.00  0.00     0.157 A 
HETATM   10  F   UNL     1     -38.723 -44.049  13.231  1.00  0.00    -0.203 F 
HETATM   11  C   UNL     1     -39.470 -46.213  12.672  1.00  0.00     0.077 A 
HETATM   12  C   UNL     1     -40.243 -46.999  11.808  1.00  0.00     0.065 A 
ENDROOT
BRANCH   1  13
HETATM   13  C   UNL     1     -39.949 -49.409  12.549  1.00  0.00     0.170 C 
BRANCH  13  14
HETATM   14  C   UNL     1     -39.094 -50.423  11.780  1.00  0.00     0.243 C 
BRANCH  14  15
HETATM   15  O   UNL     1     -39.393 -51.753  12.242  1.00  0.00    -0.385 OA
HETATM   16  H   UNL     1     -39.741 -51.694  13.152  1.00  0.00     0.210 HD
ENDBRANCH  14  15
BRANCH  14  17
HETATM   17  C   UNL     1     -37.603 -50.058  11.927  1.00  0.00     0.414 C 
HETATM   18  F   UNL     1     -37.041 -49.683  10.759  1.00  0.00    -0.168 F 
HETATM   19  F   UNL     1     -37.460 -49.022  12.790  1.00  0.00    -0.168 F 
HETATM   20  F   UNL     1     -36.872 -51.085  12.419  1.00  0.00    -0.168 F 
ENDBRANCH  14  17
ENDBRANCH  13  14
ENDBRANCH   1  13
TORSDOF 4
ENDMDL
MODEL 5
REMARK VINA RESULT:      -5.5      3.619      4.540
REMARK  4 active torsions:
REMARK  status: ('A' for Active; 'I' for Inactive)
REMARK    1  A    between atoms: O_1  and  C_2 
REMARK    2  A    between atoms: C_2  and  C_3 
REMARK    3  A    between atoms: C_2  and  C_16 
REMARK    4  A    between atoms: C_3  and  N_4 
ROOT
HETATM    1  N   UNL     1     -41.938 -50.855  12.400  1.00  0.00    -0.338 N 
HETATM    2  C   UNL     1     -41.208 -51.906  11.912  1.00  0.00     0.184 A 
HETATM    3  N   UNL     1     -41.862 -53.039  12.011  1.00  0.00    -0.350 N 
ATOM      4  HN  UNL     1     -41.531 -53.966  11.746  1.00  0.00     0.166 HD
HETATM    5  C   UNL     1     -43.081 -52.713  12.544  1.00  0.00     0.063 A 
HETATM    6  C   UNL     1     -44.174 -53.543  12.827  1.00  0.00     0.077 A 
HETATM    7  C   UNL     1     -45.323 -52.962  13.360  1.00  0.00     0.157 A 
HETATM    8  F   UNL     1     -46.384 -53.740  13.624  1.00  0.00    -0.203 F 
HETATM    9  C   UNL     1     -45.390 -51.595  13.617  1.00  0.00     0.157 A 
HETATM   10  F   UNL     1     -46.511 -51.066  14.126  1.00  0.00    -0.203 F 
HETATM   11  C   UNL     1     -44.309 -50.749  13.349  1.00  0.00     0.077 A 
HETATM   12  C   UNL     1     -43.162 -51.341  12.806  1.00  0.00     0.065 A 
ENDROOT
BRANCH   1  13
HETATM   13  C   UNL     1     -41.482 -49.476  12.432  1.00  0.00     0.170 C 
BRANCH  13  14
HETATM   14  C   UNL     1     -41.125 -48.922  11.047  1.00  0.00     0.243 C 
BRANCH  14  15
HETATM   15  O   UNL     1     -39.836 -48.283  11.101  1.00  0.00    -0.385 OA
HETATM   16  H   UNL     1     -39.955 -47.372  11.429  1.00  0.00     0.210 HD
ENDBRANCH  14  15
BRANCH  14  17
HETATM   17  C   UNL     1     -42.244 -47.975  10.566  1.00  0.00     0.414 C 
HETATM   18  F   UNL     1     -41.948 -46.674  10.769  1.00  0.00    -0.168 F 
HETATM   19  F   UNL     1     -42.450 -48.136   9.236  1.00  0.00    -0.168 F 
HETATM   20  F   UNL     1     -43.423 -48.225  11.181  1.00  0.00    -0.168 F 
ENDBRANCH  14  17
ENDBRANCH  13  14
ENDBRANCH   1  13
TORSDOF 4
ENDMDL
MODEL 6
REMARK VINA RESULT:      -5.5      2.816      3.556
REMARK  4 active torsions:
REMARK  status: ('A' for Active; 'I' for Inactive)
REMARK    1  A    between atoms: O_1  and  C_2 
REMARK    2  A    between atoms: C_2  and  C_3 
REMARK    3  A    between atoms: C_2  and  C_16 
REMARK    4  A    between atoms: C_3  and  N_4 
ROOT
HETATM    1  N   UNL     1     -40.351 -52.008  13.051  1.00  0.00    -0.338 N 
HETATM    2  C   UNL     1     -40.786 -51.100  12.123  1.00  0.00     0.184 A 
HETATM    3  N   UNL     1     -42.016 -51.345  11.742  1.00  0.00    -0.350 N 
ATOM      4  HN  UNL     1     -42.559 -50.836  11.045  1.00  0.00     0.166 HD
HETATM    5  C   UNL     1     -42.418 -52.428  12.478  1.00  0.00     0.063 A 
HETATM    6  C   UNL     1     -43.659 -53.081  12.487  1.00  0.00     0.077 A 
HETATM    7  C   UNL     1     -43.827 -54.165  13.348  1.00  0.00     0.157 A 
HETATM    8  F   UNL     1     -45.013 -54.793  13.380  1.00  0.00    -0.203 F 
HETATM    9  C   UNL     1     -42.795 -54.600  14.173  1.00  0.00     0.157 A 
HETATM   10  F   UNL     1     -42.989 -55.642  14.993  1.00  0.00    -0.203 F 
HETATM   11  C   UNL     1     -41.547 -53.968  14.176  1.00  0.00     0.077 A 
HETATM   12  C   UNL     1     -41.390 -52.875  13.314  1.00  0.00     0.065 A 
ENDROOT
BRANCH   1  13
HETATM   13  C   UNL     1     -39.032 -52.002  13.660  1.00  0.00     0.170 C 
BRANCH  13  14
HETATM   14  C   UNL     1     -38.070 -50.995  13.017  1.00  0.00     0.243 C 
BRANCH  14  15
HETATM   15  O   UNL     1     -36.935 -51.693  12.473  1.00  0.00    -0.385 OA
HETATM   16  H   UNL     1     -36.567 -51.164  11.741  1.00  0.00     0.210 HD
ENDBRANCH  14  15
BRANCH  14  17
HETATM   17  C   UNL     1     -37.676 -49.923  14.053  1.00  0.00     0.414 C 
HETATM   18  F   UNL     1     -37.368 -48.738  13.485  1.00  0.00    -0.168 F 
HETATM   19  F   UNL     1     -38.704 -49.703  14.909  1.00  0.00    -0.168 F 
HETATM   20  F   UNL     1     -36.614 -50.303  14.801  1.00  0.00    -0.168 F 
ENDBRANCH  14  17
ENDBRANCH  13  14
ENDBRANCH   1  13
TORSDOF 4
ENDMDL
MODEL 7
REMARK VINA RESULT:      -5.4      2.807      5.853
REMARK  4 active torsions:
REMARK  status: ('A' for Active; 'I' for Inactive)
REMARK    1  A    between atoms: O_1  and  C_2 
REMARK    2  A    between atoms: C_2  and  C_3 
REMARK    3  A    between atoms: C_2  and  C_16 
REMARK    4  A    between atoms: C_3  and  N_4 
ROOT
HETATM    1  N   UNL     1     -43.498 -53.809  13.525  1.00  0.00    -0.338 N 
HETATM    2  C   UNL     1     -44.070 -54.747  14.341  1.00  0.00     0.184 A 
HETATM    3  N   UNL     1     -43.193 -55.284  15.153  1.00  0.00    -0.350 N 
ATOM      4  HN  UNL     1     -43.356 -56.022  15.838  1.00  0.00     0.166 HD
HETATM    5  C   UNL     1     -42.010 -54.645  14.889  1.00  0.00     0.063 A 
HETATM    6  C   UNL     1     -40.757 -54.813  15.496  1.00  0.00     0.077 A 
HETATM    7  C   UNL     1     -39.698 -54.023  15.053  1.00  0.00     0.157 A 
HETATM    8  F   UNL     1     -38.496 -54.161  15.632  1.00  0.00    -0.203 F 
HETATM    9  C   UNL     1     -39.868 -53.095  14.029  1.00  0.00     0.157 A 
HETATM   10  F   UNL     1     -38.830 -52.347  13.628  1.00  0.00    -0.203 F 
HETATM   11  C   UNL     1     -41.106 -52.916  13.404  1.00  0.00     0.077 A 
HETATM   12  C   UNL     1     -42.166 -53.709  13.862  1.00  0.00     0.065 A 
ENDROOT
BRANCH   1  13
HETATM   13  C   UNL     1     -44.213 -53.044  12.516  1.00  0.00     0.170 C 
BRANCH  13  14
HETATM   14  C   UNL     1     -45.694 -52.830  12.851  1.00  0.00     0.243 C 
BRANCH  14  15
HETATM   15  O   UNL     1     -46.447 -52.684  11.634  1.00  0.00    -0.385 OA
HETATM   16  H   UNL     1     -47.141 -52.013  11.778  1.00  0.00     0.210 HD
ENDBRANCH  14  15
BRANCH  14  17
HETATM   17  C   UNL     1     -45.839 -51.619  13.796  1.00  0.00     0.414 C 
HETATM   18  F   UNL     1     -44.902 -50.673  13.577  1.00  0.00    -0.168 F 
HETATM   19  F   UNL     1     -47.049 -51.034  13.620  1.00  0.00    -0.168 F 
HETATM   20  F   UNL     1     -45.760 -51.977  15.099  1.00  0.00    -0.168 F 
ENDBRANCH  14  17
ENDBRANCH  13  14
ENDBRANCH   1  13
TORSDOF 4
ENDMDL
MODEL 8
REMARK VINA RESULT:      -5.4      5.416      7.629
REMARK  4 active torsions:
REMARK  status: ('A' for Active; 'I' for Inactive)
REMARK    1  A    between atoms: O_1  and  C_2 
REMARK    2  A    between atoms: C_2  and  C_3 
REMARK    3  A    between atoms: C_2  and  C_16 
REMARK    4  A    between atoms: C_3  and  N_4 
ROOT
HETATM    1  N   UNL     1     -41.769 -46.873  10.991  1.00  0.00    -0.338 N 
HETATM    2  C   UNL     1     -40.853 -45.864  11.121  1.00  0.00     0.184 A 
HETATM    3  N   UNL     1     -39.691 -46.313  11.529  1.00  0.00    -0.350 N 
ATOM      4  HN  UNL     1     -38.854 -45.766  11.730  1.00  0.00     0.166 HD
HETATM    5  C   UNL     1     -39.838 -47.671  11.629  1.00  0.00     0.063 A 
HETATM    6  C   UNL     1     -38.892 -48.640  11.993  1.00  0.00     0.077 A 
HETATM    7  C   UNL     1     -39.287 -49.976  12.005  1.00  0.00     0.157 A 
HETATM    8  F   UNL     1     -38.390 -50.918  12.338  1.00  0.00    -0.203 F 
HETATM    9  C   UNL     1     -40.587 -50.348  11.676  1.00  0.00     0.157 A 
HETATM   10  F   UNL     1     -40.935 -51.643  11.693  1.00  0.00    -0.203 F 
HETATM   11  C   UNL     1     -41.549 -49.399  11.317  1.00  0.00     0.077 A 
HETATM   12  C   UNL     1     -41.141 -48.060  11.300  1.00  0.00     0.065 A 
ENDROOT
BRANCH   1  13
HETATM   13  C   UNL     1     -43.145 -46.690  10.560  1.00  0.00     0.170 C 
BRANCH  13  14
HETATM   14  C   UNL     1     -43.394 -47.137   9.114  1.00  0.00     0.243 C 
BRANCH  14  15
HETATM   15  O   UNL     1     -42.879 -46.145   8.208  1.00  0.00    -0.385 OA
HETATM   16  H   UNL     1     -43.135 -45.263   8.536  1.00  0.00     0.210 HD
ENDBRANCH  14  15
BRANCH  14  17
HETATM   17  C   UNL     1     -44.899 -47.412   8.911  1.00  0.00     0.414 C 
HETATM   18  F   UNL     1     -45.139 -48.267   7.895  1.00  0.00    -0.168 F 
HETATM   19  F   UNL     1     -45.427 -47.963  10.031  1.00  0.00    -0.168 F 
HETATM   20  F   UNL     1     -45.595 -46.279   8.663  1.00  0.00    -0.168 F 
ENDBRANCH  14  17
ENDBRANCH  13  14
ENDBRANCH   1  13
TORSDOF 4
ENDMDL
MODEL 9
REMARK VINA RESULT:      -5.4      2.998      5.537
REMARK  4 active torsions:
REMARK  status: ('A' for Active; 'I' for Inactive)
REMARK    1  A    between atoms: O_1  and  C_2 
REMARK    2  A    between atoms: C_2  and  C_3 
REMARK    3  A    between atoms: C_2  and  C_16 
REMARK    4  A    between atoms: C_3  and  N_4 
ROOT
HETATM    1  N   UNL     1     -43.905 -53.592  13.060  1.00  0.00    -0.338 N 
HETATM    2  C   UNL     1     -43.102 -52.916  12.181  1.00  0.00     0.184 A 
HETATM    3  N   UNL     1     -41.838 -52.995  12.517  1.00  0.00    -0.350 N 
ATOM      4  HN  UNL     1     -41.046 -52.558  12.047  1.00  0.00     0.166 HD
HETATM    5  C   UNL     1     -41.805 -53.787  13.635  1.00  0.00     0.063 A 
HETATM    6  C   UNL     1     -40.701 -54.219  14.383  1.00  0.00     0.077 A 
HETATM    7  C   UNL     1     -40.930 -55.043  15.483  1.00  0.00     0.157 A 
HETATM    8  F   UNL     1     -39.883 -55.476  16.202  1.00  0.00    -0.203 F 
HETATM    9  C   UNL     1     -42.219 -55.425  15.843  1.00  0.00     0.157 A 
HETATM   10  F   UNL     1     -42.407 -56.222  16.905  1.00  0.00    -0.203 F 
HETATM   11  C   UNL     1     -43.336 -55.001  15.116  1.00  0.00     0.077 A 
HETATM   12  C   UNL     1     -43.095 -54.180  14.007  1.00  0.00     0.065 A 
ENDROOT
BRANCH   1  13
HETATM   13  C   UNL     1     -45.351 -53.685  12.956  1.00  0.00     0.170 C 
BRANCH  13  14
HETATM   14  C   UNL     1     -46.088 -53.034  14.132  1.00  0.00     0.243 C 
BRANCH  14  15
HETATM   15  O   UNL     1     -47.292 -53.770  14.414  1.00  0.00    -0.385 OA
HETATM   16  H   UNL     1     -47.048 -54.603  14.859  1.00  0.00     0.210 HD
ENDBRANCH  14  15
BRANCH  14  17
HETATM   17  C   UNL     1     -46.354 -51.548  13.815  1.00  0.00     0.414 C 
HETATM   18  F   UNL     1     -45.240 -50.791  13.893  1.00  0.00    -0.168 F 
HETATM   19  F   UNL     1     -46.837 -51.420  12.554  1.00  0.00    -0.168 F 
HETATM   20  F   UNL     1     -47.274 -51.005  14.646  1.00  0.00    -0.168 F 
ENDBRANCH  14  17
ENDBRANCH  13  14
ENDBRANCH   1  13
TORSDOF 4
ENDMDL
