MODEL 1
REMARK VINA RESULT:      -6.1      0.000      0.000
REMARK  5 active torsions:
REMARK  status: ('A' for Active; 'I' for Inactive)
REMARK    1  A    between atoms: C_2  and  C_3 
REMARK    2  A    between atoms: C_3  and  N_4 
REMARK    3  A    between atoms: C_3  and  C_17 
REMARK       I    between atoms: N_4  and  C_5 
REMARK    4  A    between atoms: C_5  and  C_7 
REMARK    5  A    between atoms: C_7  and  C_8 
ROOT
HETATM    1  N   UNL     1     -43.891 -50.501  12.612  1.00  0.00    -0.356 N 
HETATM    2  C   UNL     1     -43.244 -49.505  13.316  1.00  0.00     0.222 C 
HETATM    3  O   UNL     1     -42.645 -49.716  14.367  1.00  0.00    -0.273 OA
HETATM    4  H   UNL     1     -44.319 -50.275  11.723  1.00  0.00     0.162 HD
ENDROOT
BRANCH   2   5
HETATM    5  C   UNL     1     -43.315 -48.114  12.718  1.00  0.00     0.145 C 
BRANCH   5   6
HETATM    6  C   UNL     1     -42.915 -48.110  11.281  1.00  0.00    -0.002 A 
HETATM    7  C   UNL     1     -41.636 -48.388  10.717  1.00  0.00     0.030 A 
HETATM    8  C   UNL     1     -40.356 -48.754  11.380  1.00  0.00     0.070 C 
HETATM    9  N   UNL     1     -41.653 -48.280   9.383  1.00  0.00    -0.303 N 
HETATM   10  N   UNL     1     -42.912 -47.926   9.091  1.00  0.00    -0.300 N 
ATOM     11  HN  UNL     1     -40.881 -48.435   8.735  1.00  0.00     0.186 HD
HETATM   12  C   UNL     1     -43.268 -47.723   7.706  1.00  0.00     0.177 C 
HETATM   13  C   UNL     1     -43.716 -47.794  10.192  1.00  0.00     0.033 A 
HETATM   14  C   UNL     1     -45.140 -47.378  10.136  1.00  0.00     0.070 C 
ENDBRANCH   5   6
ENDBRANCH   2   5
BRANCH   1  15
HETATM   15  C   UNL     1     -43.931 -51.889  13.088  1.00  0.00     0.088 C 
BRANCH  15  16
HETATM   16  C   UNL     1     -42.768 -52.686  12.455  1.00  0.00     0.021 C 
HETATM   17  C   UNL     1     -41.919 -53.440  13.469  1.00  0.00     0.007 C 
ENDBRANCH  15  16
BRANCH  15  18
HETATM   18  C   UNL     1     -45.318 -52.554  12.782  1.00  0.00     0.008 C 
HETATM   19  C   UNL     1     -46.534 -51.635  13.038  1.00  0.00     0.007 C 
HETATM   20  C   UNL     1     -46.790 -51.369  14.523  1.00  0.00     0.000 C 
HETATM   21  C   UNL     1     -46.897 -52.650  15.339  1.00  0.00     0.000 C 
HETATM   22  C   UNL     1     -45.736 -53.604  15.069  1.00  0.00     0.000 C 
HETATM   23  C   UNL     1     -45.566 -53.858  13.572  1.00  0.00     0.007 C 
ENDBRANCH  15  18
ENDBRANCH   1  15
TORSDOF 5
ENDMDL
MODEL 2
REMARK VINA RESULT:      -5.8      3.558      5.055
REMARK  5 active torsions:
REMARK  status: ('A' for Active; 'I' for Inactive)
REMARK    1  A    between atoms: C_2  and  C_3 
REMARK    2  A    between atoms: C_3  and  N_4 
REMARK    3  A    between atoms: C_3  and  C_17 
REMARK       I    between atoms: N_4  and  C_5 
REMARK    4  A    between atoms: C_5  and  C_7 
REMARK    5  A    between atoms: C_7  and  C_8 
ROOT
HETATM    1  N   UNL     1     -43.012 -53.081  13.261  1.00  0.00    -0.356 N 
HETATM    2  C   UNL     1     -42.070 -53.954  13.767  1.00  0.00     0.222 C 
HETATM    3  O   UNL     1     -42.317 -54.749  14.669  1.00  0.00    -0.273 OA
HETATM    4  H   UNL     1     -42.763 -52.489  12.479  1.00  0.00     0.162 HD
ENDROOT
BRANCH   2   5
HETATM    5  C   UNL     1     -40.689 -53.875  13.146  1.00  0.00     0.145 C 
BRANCH   5   6
HETATM    6  C   UNL     1     -39.874 -52.780  13.748  1.00  0.00    -0.002 A 
HETATM    7  C   UNL     1     -39.127 -52.797  14.961  1.00  0.00     0.030 A 
HETATM    8  C   UNL     1     -38.945 -53.883  15.960  1.00  0.00     0.070 C 
HETATM    9  N   UNL     1     -38.524 -51.622  15.183  1.00  0.00    -0.303 N 
HETATM   10  N   UNL     1     -38.886 -50.857  14.144  1.00  0.00    -0.300 N 
ATOM     11  HN  UNL     1     -37.924 -51.368  15.968  1.00  0.00     0.186 HD
HETATM   12  C   UNL     1     -38.395 -49.500  14.082  1.00  0.00     0.177 C 
HETATM   13  C   UNL     1     -39.709 -51.493  13.253  1.00  0.00     0.033 A 
HETATM   14  C   UNL     1     -40.273 -50.852  12.039  1.00  0.00     0.070 C 
ENDBRANCH   5   6
ENDBRANCH   2   5
BRANCH   1  15
HETATM   15  C   UNL     1     -44.381 -53.024  13.788  1.00  0.00     0.088 C 
BRANCH  15  16
HETATM   16  C   UNL     1     -45.269 -54.033  13.025  1.00  0.00     0.021 C 
HETATM   17  C   UNL     1     -45.633 -55.267  13.841  1.00  0.00     0.007 C 
ENDBRANCH  15  16
BRANCH  15  18
HETATM   18  C   UNL     1     -44.961 -51.570  13.705  1.00  0.00     0.008 C 
HETATM   19  C   UNL     1     -44.353 -50.584  14.728  1.00  0.00     0.007 C 
HETATM   20  C   UNL     1     -44.784 -50.864  16.169  1.00  0.00     0.000 C 
HETATM   21  C   UNL     1     -46.298 -50.942  16.324  1.00  0.00     0.000 C 
HETATM   22  C   UNL     1     -46.935 -51.869  15.293  1.00  0.00     0.000 C 
HETATM   23  C   UNL     1     -46.495 -51.505  13.875  1.00  0.00     0.007 C 
ENDBRANCH  15  18
ENDBRANCH   1  15
TORSDOF 5
ENDMDL
MODEL 3
REMARK VINA RESULT:      -5.6      1.763      2.728
REMARK  5 active torsions:
REMARK  status: ('A' for Active; 'I' for Inactive)
REMARK    1  A    between atoms: C_2  and  C_3 
REMARK    2  A    between atoms: C_3  and  N_4 
REMARK    3  A    between atoms: C_3  and  C_17 
REMARK       I    between atoms: N_4  and  C_5 
REMARK    4  A    between atoms: C_5  and  C_7 
REMARK    5  A    between atoms: C_7  and  C_8 
ROOT
HETATM    1  N   UNL     1     -42.835 -51.634  12.561  1.00  0.00    -0.356 N 
HETATM    2  C   UNL     1     -42.674 -50.294  12.851  1.00  0.00     0.222 C 
HETATM    3  O   UNL     1     -43.102 -49.780  13.881  1.00  0.00    -0.273 OA
HETATM    4  H   UNL     1     -42.411 -52.010  11.723  1.00  0.00     0.162 HD
ENDROOT
BRANCH   2   5
HETATM    5  C   UNL     1     -41.934 -49.474  11.812  1.00  0.00     0.145 C 
BRANCH   5   6
HETATM    6  C   UNL     1     -42.196 -48.014  11.972  1.00  0.00    -0.002 A 
HETATM    7  C   UNL     1     -43.170 -47.211  11.311  1.00  0.00     0.030 A 
HETATM    8  C   UNL     1     -44.186 -47.584  10.290  1.00  0.00     0.070 C 
HETATM    9  N   UNL     1     -43.106 -45.935  11.707  1.00  0.00    -0.303 N 
HETATM   10  N   UNL     1     -42.103 -45.908  12.595  1.00  0.00    -0.300 N 
ATOM     11  HN  UNL     1     -43.691 -45.157  11.401  1.00  0.00     0.186 HD
HETATM   12  C   UNL     1     -41.767 -44.650  13.221  1.00  0.00     0.177 C 
HETATM   13  C   UNL     1     -41.507 -47.126  12.787  1.00  0.00     0.033 A 
HETATM   14  C   UNL     1     -40.353 -47.352  13.693  1.00  0.00     0.070 C 
ENDBRANCH   5   6
ENDBRANCH   2   5
BRANCH   1  15
HETATM   15  C   UNL     1     -43.559 -52.541  13.461  1.00  0.00     0.088 C 
BRANCH  15  16
HETATM   16  C   UNL     1     -42.680 -53.776  13.764  1.00  0.00     0.021 C 
HETATM   17  C   UNL     1     -41.394 -53.827  12.950  1.00  0.00     0.007 C 
ENDBRANCH  15  16
BRANCH  15  18
HETATM   18  C   UNL     1     -44.944 -52.955  12.854  1.00  0.00     0.008 C 
HETATM   19  C   UNL     1     -45.987 -51.816  12.812  1.00  0.00     0.007 C 
HETATM   20  C   UNL     1     -46.510 -51.422  14.195  1.00  0.00     0.000 C 
HETATM   21  C   UNL     1     -47.040 -52.613  14.983  1.00  0.00     0.000 C 
HETATM   22  C   UNL     1     -46.055 -53.778  14.999  1.00  0.00     0.000 C 
HETATM   23  C   UNL     1     -45.608 -54.144  13.584  1.00  0.00     0.007 C 
ENDBRANCH  15  18
ENDBRANCH   1  15
TORSDOF 5
ENDMDL
MODEL 4
REMARK VINA RESULT:      -5.6      2.017      3.398
REMARK  5 active torsions:
REMARK  status: ('A' for Active; 'I' for Inactive)
REMARK    1  A    between atoms: C_2  and  C_3 
REMARK    2  A    between atoms: C_3  and  N_4 
REMARK    3  A    between atoms: C_3  and  C_17 
REMARK       I    between atoms: N_4  and  C_5 
REMARK    4  A    between atoms: C_5  and  C_7 
REMARK    5  A    between atoms: C_7  and  C_8 
ROOT
HETATM    1  N   UNL     1     -42.712 -51.473  13.444  1.00  0.00    -0.356 N 
HETATM    2  C   UNL     1     -42.334 -50.558  14.406  1.00  0.00     0.222 C 
HETATM    3  O   UNL     1     -42.497 -50.751  15.608  1.00  0.00    -0.273 OA
HETATM    4  H   UNL     1     -42.500 -51.282  12.473  1.00  0.00     0.162 HD
ENDROOT
BRANCH   2   5
HETATM    5  C   UNL     1     -41.701 -49.279  13.894  1.00  0.00     0.145 C 
BRANCH   5   6
HETATM    6  C   UNL     1     -40.587 -49.558  12.941  1.00  0.00    -0.002 A 
HETATM    7  C   UNL     1     -40.532 -49.294  11.542  1.00  0.00     0.030 A 
HETATM    8  C   UNL     1     -41.544 -48.680  10.642  1.00  0.00     0.070 C 
HETATM    9  N   UNL     1     -39.367 -49.688  11.014  1.00  0.00    -0.303 N 
HETATM   10  N   UNL     1     -38.689 -50.209  12.045  1.00  0.00    -0.300 N 
ATOM     11  HN  UNL     1     -39.064 -49.609  10.043  1.00  0.00     0.186 HD
HETATM   12  C   UNL     1     -37.366 -50.738  11.806  1.00  0.00     0.177 C 
HETATM   13  C   UNL     1     -39.375 -50.172  13.230  1.00  0.00     0.033 A 
HETATM   14  C   UNL     1     -38.855 -50.716  14.510  1.00  0.00     0.070 C 
ENDBRANCH   5   6
ENDBRANCH   2   5
BRANCH   1  15
HETATM   15  C   UNL     1     -43.366 -52.741  13.793  1.00  0.00     0.088 C 
BRANCH  15  16
HETATM   16  C   UNL     1     -42.401 -53.914  13.506  1.00  0.00     0.021 C 
HETATM   17  C   UNL     1     -41.147 -53.504  12.746  1.00  0.00     0.007 C 
ENDBRANCH  15  16
BRANCH  15  18
HETATM   18  C   UNL     1     -44.722 -52.910  13.024  1.00  0.00     0.008 C 
HETATM   19  C   UNL     1     -45.636 -51.665  13.065  1.00  0.00     0.007 C 
HETATM   20  C   UNL     1     -46.246 -51.406  14.444  1.00  0.00     0.000 C 
HETATM   21  C   UNL     1     -46.965 -52.625  15.006  1.00  0.00     0.000 C 
HETATM   22  C   UNL     1     -46.108 -53.885  14.931  1.00  0.00     0.000 C 
HETATM   23  C   UNL     1     -45.568 -54.104  13.518  1.00  0.00     0.007 C 
ENDBRANCH  15  18
ENDBRANCH   1  15
TORSDOF 5
ENDMDL
MODEL 5
REMARK VINA RESULT:      -5.5      2.075      3.047
REMARK  5 active torsions:
REMARK  status: ('A' for Active; 'I' for Inactive)
REMARK    1  A    between atoms: C_2  and  C_3 
REMARK    2  A    between atoms: C_3  and  N_4 
REMARK    3  A    between atoms: C_3  and  C_17 
REMARK       I    between atoms: N_4  and  C_5 
REMARK    4  A    between atoms: C_5  and  C_7 
REMARK    5  A    between atoms: C_7  and  C_8 
ROOT
HETATM    1  N   UNL     1     -42.746 -53.179  12.919  1.00  0.00    -0.356 N 
HETATM    2  C   UNL     1     -42.110 -51.955  12.977  1.00  0.00     0.222 C 
HETATM    3  O   UNL     1     -42.241 -51.182  13.922  1.00  0.00    -0.273 OA
HETATM    4  H   UNL     1     -42.554 -53.796  12.141  1.00  0.00     0.162 HD
ENDROOT
BRANCH   2   5
HETATM    5  C   UNL     1     -41.232 -51.605  11.792  1.00  0.00     0.145 C 
BRANCH   5   6
HETATM    6  C   UNL     1     -40.479 -50.337  12.018  1.00  0.00    -0.002 A 
HETATM    7  C   UNL     1     -39.209 -50.161  12.638  1.00  0.00     0.030 A 
HETATM    8  C   UNL     1     -38.283 -51.163  13.229  1.00  0.00     0.070 C 
HETATM    9  N   UNL     1     -38.852 -48.871  12.668  1.00  0.00    -0.303 N 
HETATM   10  N   UNL     1     -39.875 -48.225  12.093  1.00  0.00    -0.300 N 
ATOM     11  HN  UNL     1     -37.993 -48.470  13.044  1.00  0.00     0.186 HD
HETATM   12  C   UNL     1     -39.804 -46.788  11.969  1.00  0.00     0.177 C 
HETATM   13  C   UNL     1     -40.892 -49.052  11.692  1.00  0.00     0.033 A 
HETATM   14  C   UNL     1     -42.149 -48.578  11.060  1.00  0.00     0.070 C 
ENDBRANCH   5   6
ENDBRANCH   2   5
BRANCH   1  15
HETATM   15  C   UNL     1     -43.651 -53.635  13.981  1.00  0.00     0.088 C 
BRANCH  15  16
HETATM   16  C   UNL     1     -43.094 -54.932  14.612  1.00  0.00     0.021 C 
HETATM   17  C   UNL     1     -41.839 -54.716  15.448  1.00  0.00     0.007 C 
ENDBRANCH  15  16
BRANCH  15  18
HETATM   18  C   UNL     1     -45.107 -53.839  13.437  1.00  0.00     0.008 C 
HETATM   19  C   UNL     1     -45.624 -52.682  12.553  1.00  0.00     0.007 C 
HETATM   20  C   UNL     1     -45.907 -51.400  13.338  1.00  0.00     0.000 C 
HETATM   21  C   UNL     1     -46.834 -51.631  14.525  1.00  0.00     0.000 C 
HETATM   22  C   UNL     1     -46.380 -52.803  15.390  1.00  0.00     0.000 C 
HETATM   23  C   UNL     1     -46.158 -54.059  14.548  1.00  0.00     0.007 C 
ENDBRANCH  15  18
ENDBRANCH   1  15
TORSDOF 5
ENDMDL
MODEL 6
REMARK VINA RESULT:      -5.4      1.557      2.097
REMARK  5 active torsions:
REMARK  status: ('A' for Active; 'I' for Inactive)
REMARK    1  A    between atoms: C_2  and  C_3 
REMARK    2  A    between atoms: C_3  and  N_4 
REMARK    3  A    between atoms: C_3  and  C_17 
REMARK       I    between atoms: N_4  and  C_5 
REMARK    4  A    between atoms: C_5  and  C_7 
REMARK    5  A    between atoms: C_7  and  C_8 
ROOT
HETATM    1  N   UNL     1     -42.259 -51.656  13.768  1.00  0.00    -0.356 N 
HETATM    2  C   UNL     1     -41.839 -50.821  14.784  1.00  0.00     0.222 C 
HETATM    3  O   UNL     1     -42.191 -50.965  15.951  1.00  0.00    -0.273 OA
HETATM    4  H   UNL     1     -41.889 -51.521  12.836  1.00  0.00     0.162 HD
ENDROOT
BRANCH   2   5
HETATM    5  C   UNL     1     -40.909 -49.695  14.376  1.00  0.00     0.145 C 
BRANCH   5   6
HETATM    6  C   UNL     1     -41.014 -49.393  12.919  1.00  0.00    -0.002 A 
HETATM    7  C   UNL     1     -40.151 -49.809  11.864  1.00  0.00     0.030 A 
HETATM    8  C   UNL     1     -38.922 -50.645  11.905  1.00  0.00     0.070 C 
HETATM    9  N   UNL     1     -40.560 -49.337  10.680  1.00  0.00    -0.303 N 
HETATM   10  N   UNL     1     -41.654 -48.619  10.964  1.00  0.00    -0.300 N 
ATOM     11  HN  UNL     1     -40.133 -49.491   9.767  1.00  0.00     0.186 HD
HETATM   12  C   UNL     1     -42.349 -47.961   9.882  1.00  0.00     0.177 C 
HETATM   13  C   UNL     1     -41.972 -48.603  12.296  1.00  0.00     0.033 A 
HETATM   14  C   UNL     1     -43.117 -47.853  12.869  1.00  0.00     0.070 C 
ENDBRANCH   5   6
ENDBRANCH   2   5
BRANCH   1  15
HETATM   15  C   UNL     1     -43.185 -52.769  14.010  1.00  0.00     0.088 C 
BRANCH  15  16
HETATM   16  C   UNL     1     -42.440 -54.111  13.818  1.00  0.00     0.021 C 
HETATM   17  C   UNL     1     -41.206 -54.004  12.932  1.00  0.00     0.007 C 
ENDBRANCH  15  16
BRANCH  15  18
HETATM   18  C   UNL     1     -44.445 -52.672  13.082  1.00  0.00     0.008 C 
HETATM   19  C   UNL     1     -45.253 -51.365  13.241  1.00  0.00     0.007 C 
HETATM   20  C   UNL     1     -46.006 -51.277  14.570  1.00  0.00     0.000 C 
HETATM   21  C   UNL     1     -46.886 -52.493  14.828  1.00  0.00     0.000 C 
HETATM   22  C   UNL     1     -46.130 -53.804  14.627  1.00  0.00     0.000 C 
HETATM   23  C   UNL     1     -45.439 -53.841  13.265  1.00  0.00     0.007 C 
ENDBRANCH  15  18
ENDBRANCH   1  15
TORSDOF 5
ENDMDL
MODEL 7
REMARK VINA RESULT:      -5.4      2.395      4.088
REMARK  5 active torsions:
REMARK  status: ('A' for Active; 'I' for Inactive)
REMARK    1  A    between atoms: C_2  and  C_3 
REMARK    2  A    between atoms: C_3  and  N_4 
REMARK    3  A    between atoms: C_3  and  C_17 
REMARK       I    between atoms: N_4  and  C_5 
REMARK    4  A    between atoms: C_5  and  C_7 
REMARK    5  A    between atoms: C_7  and  C_8 
ROOT
HETATM    1  N   UNL     1     -43.329 -52.119  12.670  1.00  0.00    -0.356 N 
HETATM    2  C   UNL     1     -42.018 -52.424  12.978  1.00  0.00     0.222 C 
HETATM    3  O   UNL     1     -41.696 -53.005  14.011  1.00  0.00    -0.273 OA
HETATM    4  H   UNL     1     -43.536 -51.690  11.777  1.00  0.00     0.162 HD
ENDROOT
BRANCH   2   5
HETATM    5  C   UNL     1     -40.979 -51.993  11.962  1.00  0.00     0.145 C 
BRANCH   5   6
HETATM    6  C   UNL     1     -40.334 -50.702  12.345  1.00  0.00    -0.002 A 
HETATM    7  C   UNL     1     -40.775 -49.376  12.068  1.00  0.00     0.030 A 
HETATM    8  C   UNL     1     -41.977 -48.899  11.333  1.00  0.00     0.070 C 
HETATM    9  N   UNL     1     -39.933 -48.464  12.568  1.00  0.00    -0.303 N 
HETATM   10  N   UNL     1     -38.959 -49.184  13.142  1.00  0.00    -0.300 N 
ATOM     11  HN  UNL     1     -40.013 -47.449  12.521  1.00  0.00     0.186 HD
HETATM   12  C   UNL     1     -37.870 -48.486  13.784  1.00  0.00     0.177 C 
HETATM   13  C   UNL     1     -39.138 -50.538  13.030  1.00  0.00     0.033 A 
HETATM   14  C   UNL     1     -38.184 -51.548  13.553  1.00  0.00     0.070 C 
ENDBRANCH   5   6
ENDBRANCH   2   5
BRANCH   1  15
HETATM   15  C   UNL     1     -44.437 -52.448  13.575  1.00  0.00     0.088 C 
BRANCH  15  16
HETATM   16  C   UNL     1     -45.346 -53.509  12.913  1.00  0.00     0.021 C 
HETATM   17  C   UNL     1     -45.279 -54.875  13.582  1.00  0.00     0.007 C 
ENDBRANCH  15  16
BRANCH  15  18
HETATM   18  C   UNL     1     -45.244 -51.164  13.973  1.00  0.00     0.008 C 
HETATM   19  C   UNL     1     -44.685 -50.417  15.204  1.00  0.00     0.007 C 
HETATM   20  C   UNL     1     -44.896 -51.173  16.518  1.00  0.00     0.000 C 
HETATM   21  C   UNL     1     -46.349 -51.571  16.740  1.00  0.00     0.000 C 
HETATM   22  C   UNL     1     -46.948 -52.266  15.520  1.00  0.00     0.000 C 
HETATM   23  C   UNL     1     -46.739 -51.437  14.253  1.00  0.00     0.007 C 
ENDBRANCH  15  18
ENDBRANCH   1  15
TORSDOF 5
ENDMDL
MODEL 8
REMARK VINA RESULT:      -5.4      2.081      6.915
REMARK  5 active torsions:
REMARK  status: ('A' for Active; 'I' for Inactive)
REMARK    1  A    between atoms: C_2  and  C_3 
REMARK    2  A    between atoms: C_3  and  N_4 
REMARK    3  A    between atoms: C_3  and  C_17 
REMARK       I    between atoms: N_4  and  C_5 
REMARK    4  A    between atoms: C_5  and  C_7 
REMARK    5  A    between atoms: C_7  and  C_8 
ROOT
HETATM    1  N   UNL     1     -41.990 -50.196  11.692  1.00  0.00    -0.356 N 
HETATM    2  C   UNL     1     -42.341 -51.072  12.699  1.00  0.00     0.222 C 
HETATM    3  O   UNL     1     -42.501 -50.718  13.864  1.00  0.00    -0.273 OA
HETATM    4  H   UNL     1     -41.928 -50.538  10.742  1.00  0.00     0.162 HD
ENDROOT
BRANCH   2   5
HETATM    5  C   UNL     1     -42.518 -52.521  12.287  1.00  0.00     0.145 C 
BRANCH   5   6
HETATM    6  C   UNL     1     -43.370 -53.271  13.256  1.00  0.00    -0.002 A 
HETATM    7  C   UNL     1     -42.959 -54.131  14.316  1.00  0.00     0.030 A 
HETATM    8  C   UNL     1     -41.594 -54.526  14.755  1.00  0.00     0.070 C 
HETATM    9  N   UNL     1     -44.009 -54.634  14.975  1.00  0.00    -0.303 N 
HETATM   10  N   UNL     1     -45.077 -54.123  14.347  1.00  0.00    -0.300 N 
ATOM     11  HN  UNL     1     -43.999 -55.265  15.776  1.00  0.00     0.186 HD
HETATM   12  C   UNL     1     -46.394 -54.479  14.821  1.00  0.00     0.177 C 
HETATM   13  C   UNL     1     -44.757 -53.305  13.296  1.00  0.00     0.033 A 
HETATM   14  C   UNL     1     -45.759 -52.645  12.422  1.00  0.00     0.070 C 
ENDBRANCH   5   6
ENDBRANCH   2   5
BRANCH   1  15
HETATM   15  C   UNL     1     -41.755 -48.770  11.951  1.00  0.00     0.088 C 
BRANCH  15  16
HETATM   16  C   UNL     1     -42.887 -47.936  11.308  1.00  0.00     0.021 C 
HETATM   17  C   UNL     1     -42.745 -47.771   9.800  1.00  0.00     0.007 C 
ENDBRANCH  15  16
BRANCH  15  18
HETATM   18  C   UNL     1     -40.345 -48.324  11.432  1.00  0.00     0.008 C 
HETATM   19  C   UNL     1     -39.202 -49.307  11.770  1.00  0.00     0.007 C 
HETATM   20  C   UNL     1     -38.843 -49.330  13.257  1.00  0.00     0.000 C 
HETATM   21  C   UNL     1     -38.546 -47.943  13.811  1.00  0.00     0.000 C 
HETATM   22  C   UNL     1     -39.632 -46.933  13.449  1.00  0.00     0.000 C 
HETATM   23  C   UNL     1     -39.908 -46.933  11.946  1.00  0.00     0.007 C 
ENDBRANCH  15  18
ENDBRANCH   1  15
TORSDOF 5
ENDMDL
MODEL 9
REMARK VINA RESULT:      -5.4      2.574      6.956
REMARK  5 active torsions:
REMARK  status: ('A' for Active; 'I' for Inactive)
REMARK    1  A    between atoms: C_2  and  C_3 
REMARK    2  A    between atoms: C_3  and  N_4 
REMARK    3  A    between atoms: C_3  and  C_17 
REMARK       I    between atoms: N_4  and  C_5 
REMARK    4  A    between atoms: C_5  and  C_7 
REMARK    5  A    between atoms: C_7  and  C_8 
ROOT
HETATM    1  N   UNL     1     -40.369 -51.674  11.738  1.00  0.00    -0.356 N 
HETATM    2  C   UNL     1     -40.458 -52.377  12.922  1.00  0.00     0.222 C 
HETATM    3  O   UNL     1     -40.142 -51.896  14.007  1.00  0.00    -0.273 OA
HETATM    4  H   UNL     1     -40.698 -52.105  10.884  1.00  0.00     0.162 HD
ENDROOT
BRANCH   2   5
HETATM    5  C   UNL     1     -40.970 -53.800  12.812  1.00  0.00     0.145 C 
BRANCH   5   6
HETATM    6  C   UNL     1     -42.082 -54.063  13.772  1.00  0.00    -0.002 A 
HETATM    7  C   UNL     1     -42.009 -54.616  15.083  1.00  0.00     0.030 A 
HETATM    8  C   UNL     1     -40.831 -55.086  15.860  1.00  0.00     0.070 C 
HETATM    9  N   UNL     1     -43.220 -54.708  15.645  1.00  0.00    -0.303 N 
HETATM   10  N   UNL     1     -44.060 -54.238  14.713  1.00  0.00    -0.300 N 
ATOM     11  HN  UNL     1     -43.450 -55.058  16.575  1.00  0.00     0.186 HD
HETATM   12  C   UNL     1     -45.473 -54.203  15.012  1.00  0.00     0.177 C 
HETATM   13  C   UNL     1     -43.437 -53.846  13.558  1.00  0.00     0.033 A 
HETATM   14  C   UNL     1     -44.150 -53.322  12.366  1.00  0.00     0.070 C 
ENDBRANCH   5   6
ENDBRANCH   2   5
BRANCH   1  15
HETATM   15  C   UNL     1     -39.861 -50.297  11.689  1.00  0.00     0.088 C 
BRANCH  15  16
HETATM   16  C   UNL     1     -38.414 -50.262  12.231  1.00  0.00     0.021 C 
HETATM   17  C   UNL     1     -37.370 -49.942  11.169  1.00  0.00     0.007 C 
ENDBRANCH  15  16
BRANCH  15  18
HETATM   18  C   UNL     1     -40.796 -49.319  12.481  1.00  0.00     0.008 C 
HETATM   19  C   UNL     1     -42.151 -49.038  11.793  1.00  0.00     0.007 C 
HETATM   20  C   UNL     1     -42.025 -48.180  10.533  1.00  0.00     0.000 C 
HETATM   21  C   UNL     1     -41.263 -46.884  10.780  1.00  0.00     0.000 C 
HETATM   22  C   UNL     1     -39.942 -47.121  11.506  1.00  0.00     0.000 C 
HETATM   23  C   UNL     1     -40.149 -47.947  12.775  1.00  0.00     0.007 C 
ENDBRANCH  15  18
ENDBRANCH   1  15
TORSDOF 5
ENDMDL
