MODEL 1
REMARK VINA RESULT:      -6.8      0.000      0.000
REMARK  5 active torsions:
REMARK  status: ('A' for Active; 'I' for Inactive)
REMARK    1  A    between atoms: O_1  and  C_2 
REMARK    2  A    between atoms: C_2  and  C_3 
REMARK    3  A    between atoms: C_2  and  C_16 
REMARK    4  A    between atoms: C_3  and  N_4 
REMARK    5  A    between atoms: C_8  and  C_12 
ROOT
HETATM    1  N   UNL     1     -41.434 -50.278  12.541  1.00  0.00    -0.308 N 
HETATM    2  C   UNL     1     -42.725 -49.850  12.713  1.00  0.00     0.186 A 
HETATM    3  N   UNL     1     -43.291 -48.914  12.031  1.00  0.00    -0.355 N 
ATOM      4  HN  UNL     1     -44.247 -48.618  12.224  1.00  0.00     0.166 HD
HETATM    5  C   UNL     1     -42.547 -48.334  11.036  1.00  0.00     0.019 A 
HETATM    6  C   UNL     1     -41.259 -48.614  10.804  1.00  0.00     0.100 A 
HETATM    7  C   UNL     1     -40.628 -49.681  11.596  1.00  0.00     0.250 A 
HETATM    8  O   UNL     1     -39.469 -50.022  11.369  1.00  0.00    -0.268 OA
ENDROOT
BRANCH   1   9
HETATM    9  C   UNL     1     -40.937 -51.444  13.266  1.00  0.00     0.169 C 
BRANCH   9  10
HETATM   10  C   UNL     1     -41.216 -52.788  12.543  1.00  0.00     0.169 C 
BRANCH  10  11
HETATM   11  O   UNL     1     -41.242 -52.661  11.120  1.00  0.00    -0.389 OA
HETATM   12  H   UNL     1     -40.782 -51.834  10.865  1.00  0.00     0.210 HD
ENDBRANCH  10  11
BRANCH  10  13
HETATM   13  C   UNL     1     -42.487 -53.473  13.011  1.00  0.00    -0.028 A 
HETATM   14  C   UNL     1     -42.461 -54.326  14.128  1.00  0.00     0.013 A 
HETATM   15  C   UNL     1     -43.626 -54.968  14.559  1.00  0.00     0.043 A 
HETATM   16  C   UNL     1     -44.821 -54.754  13.883  1.00  0.00     0.116 A 
HETATM   17  F   UNL     1     -45.931 -55.380  14.293  1.00  0.00    -0.206 F 
HETATM   18  C   UNL     1     -44.877 -53.903  12.788  1.00  0.00     0.043 A 
HETATM   19  C   UNL     1     -43.714 -53.265  12.353  1.00  0.00     0.013 A 
ENDBRANCH  10  13
ENDBRANCH   9  10
ENDBRANCH   1   9
BRANCH   5  20
HETATM   20  C   UNL     1     -43.243 -47.335  10.169  1.00  0.00     0.036 C 
HETATM   21  C   UNL     1     -44.788 -47.497  10.059  1.00  0.00     0.011 C 
HETATM   22  C   UNL     1     -44.665 -47.117   8.573  1.00  0.00     0.001 C 
HETATM   23  C   UNL     1     -43.204 -47.594   8.636  1.00  0.00     0.011 C 
ENDBRANCH   5  20
TORSDOF 5
ENDMDL
MODEL 2
REMARK VINA RESULT:      -6.8      1.274      1.639
REMARK  5 active torsions:
REMARK  status: ('A' for Active; 'I' for Inactive)
REMARK    1  A    between atoms: O_1  and  C_2 
REMARK    2  A    between atoms: C_2  and  C_3 
REMARK    3  A    between atoms: C_2  and  C_16 
REMARK    4  A    between atoms: C_3  and  N_4 
REMARK    5  A    between atoms: C_8  and  C_12 
ROOT
HETATM    1  N   UNL     1     -41.069 -50.776  12.520  1.00  0.00    -0.308 N 
HETATM    2  C   UNL     1     -40.360 -50.412  11.405  1.00  0.00     0.186 A 
HETATM    3  N   UNL     1     -40.656 -49.426  10.630  1.00  0.00    -0.355 N 
ATOM      4  HN  UNL     1     -40.106 -49.219   9.796  1.00  0.00     0.166 HD
HETATM    5  C   UNL     1     -41.744 -48.667  10.977  1.00  0.00     0.019 A 
HETATM    6  C   UNL     1     -42.556 -48.949  12.002  1.00  0.00     0.100 A 
HETATM    7  C   UNL     1     -42.207 -50.083  12.872  1.00  0.00     0.250 A 
HETATM    8  O   UNL     1     -42.883 -50.335  13.868  1.00  0.00    -0.268 OA
ENDROOT
BRANCH   1   9
HETATM    9  C   UNL     1     -40.566 -51.817  13.411  1.00  0.00     0.169 C 
BRANCH   9  10
HETATM   10  C   UNL     1     -40.835 -53.256  12.897  1.00  0.00     0.169 C 
BRANCH  10  11
HETATM   11  O   UNL     1     -40.632 -53.392  11.489  1.00  0.00    -0.389 OA
HETATM   12  H   UNL     1     -41.136 -54.168  11.167  1.00  0.00     0.210 HD
ENDBRANCH  10  11
BRANCH  10  13
HETATM   13  C   UNL     1     -42.213 -53.779  13.260  1.00  0.00    -0.028 A 
HETATM   14  C   UNL     1     -42.399 -54.526  14.437  1.00  0.00     0.013 A 
HETATM   15  C   UNL     1     -43.663 -55.018  14.773  1.00  0.00     0.043 A 
HETATM   16  C   UNL     1     -44.747 -54.761  13.942  1.00  0.00     0.116 A 
HETATM   17  F   UNL     1     -45.953 -55.246  14.263  1.00  0.00    -0.206 F 
HETATM   18  C   UNL     1     -44.593 -54.013  12.783  1.00  0.00     0.043 A 
HETATM   19  C   UNL     1     -43.331 -53.524  12.443  1.00  0.00     0.013 A 
ENDBRANCH  10  13
ENDBRANCH   9  10
ENDBRANCH   1   9
BRANCH   5  20
HETATM   20  C   UNL     1     -42.014 -47.454  10.147  1.00  0.00     0.036 C 
HETATM   21  C   UNL     1     -42.869 -46.346  10.830  1.00  0.00     0.011 C 
HETATM   22  C   UNL     1     -43.562 -46.122   9.474  1.00  0.00     0.001 C 
HETATM   23  C   UNL     1     -43.164 -47.563   9.106  1.00  0.00     0.011 C 
ENDBRANCH   5  20
TORSDOF 5
ENDMDL
MODEL 3
REMARK VINA RESULT:      -6.7      1.132      1.485
REMARK  5 active torsions:
REMARK  status: ('A' for Active; 'I' for Inactive)
REMARK    1  A    between atoms: O_1  and  C_2 
REMARK    2  A    between atoms: C_2  and  C_3 
REMARK    3  A    between atoms: C_2  and  C_16 
REMARK    4  A    between atoms: C_3  and  N_4 
REMARK    5  A    between atoms: C_8  and  C_12 
ROOT
HETATM    1  N   UNL     1     -40.664 -51.073  13.022  1.00  0.00    -0.308 N 
HETATM    2  C   UNL     1     -41.903 -50.488  13.014  1.00  0.00     0.186 A 
HETATM    3  N   UNL     1     -42.258 -49.518  12.242  1.00  0.00    -0.355 N 
ATOM      4  HN  UNL     1     -43.187 -49.103  12.301  1.00  0.00     0.166 HD
HETATM    5  C   UNL     1     -41.328 -49.071  11.338  1.00  0.00     0.019 A 
HETATM    6  C   UNL     1     -40.066 -49.512  11.283  1.00  0.00     0.100 A 
HETATM    7  C   UNL     1     -39.677 -50.615  12.176  1.00  0.00     0.250 A 
HETATM    8  O   UNL     1     -38.550 -51.101  12.110  1.00  0.00    -0.268 OA
ENDROOT
BRANCH   1   9
HETATM    9  C   UNL     1     -40.410 -52.260  13.832  1.00  0.00     0.169 C 
BRANCH   9  10
HETATM   10  C   UNL     1     -40.803 -53.586  13.129  1.00  0.00     0.169 C 
BRANCH  10  11
HETATM   11  O   UNL     1     -40.597 -53.550  11.716  1.00  0.00    -0.389 OA
HETATM   12  H   UNL     1     -40.152 -52.710  11.479  1.00  0.00     0.210 HD
ENDBRANCH  10  11
BRANCH  10  13
HETATM   13  C   UNL     1     -42.226 -54.026  13.419  1.00  0.00    -0.028 A 
HETATM   14  C   UNL     1     -42.521 -54.736  14.596  1.00  0.00     0.013 A 
HETATM   15  C   UNL     1     -43.828 -55.152  14.866  1.00  0.00     0.043 A 
HETATM   16  C   UNL     1     -44.846 -54.853  13.968  1.00  0.00     0.116 A 
HETATM   17  F   UNL     1     -46.094 -55.265  14.225  1.00  0.00    -0.206 F 
HETATM   18  C   UNL     1     -44.584 -54.139  12.808  1.00  0.00     0.043 A 
HETATM   19  C   UNL     1     -43.279 -53.726  12.534  1.00  0.00     0.013 A 
ENDBRANCH  10  13
ENDBRANCH   9  10
ENDBRANCH   1   9
BRANCH   5  20
HETATM   20  C   UNL     1     -41.779 -48.031  10.364  1.00  0.00     0.036 C 
HETATM   21  C   UNL     1     -41.304 -46.578  10.661  1.00  0.00     0.011 C 
HETATM   22  C   UNL     1     -42.687 -46.090  10.197  1.00  0.00     0.001 C 
HETATM   23  C   UNL     1     -43.226 -47.489  10.542  1.00  0.00     0.011 C 
ENDBRANCH   5  20
TORSDOF 5
ENDMDL
MODEL 4
REMARK VINA RESULT:      -6.4      3.818      6.870
REMARK  5 active torsions:
REMARK  status: ('A' for Active; 'I' for Inactive)
REMARK    1  A    between atoms: O_1  and  C_2 
REMARK    2  A    between atoms: C_2  and  C_3 
REMARK    3  A    between atoms: C_2  and  C_16 
REMARK    4  A    between atoms: C_3  and  N_4 
REMARK    5  A    between atoms: C_8  and  C_12 
ROOT
HETATM    1  N   UNL     1     -40.582 -51.979  12.650  1.00  0.00    -0.308 N 
HETATM    2  C   UNL     1     -41.797 -51.477  12.262  1.00  0.00     0.186 A 
HETATM    3  N   UNL     1     -42.907 -52.132  12.282  1.00  0.00    -0.355 N 
ATOM      4  HN  UNL     1     -43.778 -51.714  11.953  1.00  0.00     0.166 HD
HETATM    5  C   UNL     1     -42.864 -53.414  12.765  1.00  0.00     0.019 A 
HETATM    6  C   UNL     1     -41.737 -54.043  13.118  1.00  0.00     0.100 A 
HETATM    7  C   UNL     1     -40.478 -53.283  13.082  1.00  0.00     0.250 A 
HETATM    8  O   UNL     1     -39.429 -53.797  13.465  1.00  0.00    -0.268 OA
ENDROOT
BRANCH   1   9
HETATM    9  C   UNL     1     -39.412 -51.109  12.726  1.00  0.00     0.169 C 
BRANCH   9  10
HETATM   10  C   UNL     1     -39.461 -49.915  11.737  1.00  0.00     0.169 C 
BRANCH  10  11
HETATM   11  O   UNL     1     -38.509 -50.030  10.678  1.00  0.00    -0.389 OA
HETATM   12  H   UNL     1     -37.861 -50.729  10.904  1.00  0.00     0.210 HD
ENDBRANCH  10  11
BRANCH  10  13
HETATM   13  C   UNL     1     -39.303 -48.564  12.411  1.00  0.00    -0.028 A 
HETATM   14  C   UNL     1     -38.497 -48.435  13.556  1.00  0.00     0.013 A 
HETATM   15  C   UNL     1     -38.354 -47.196  14.187  1.00  0.00     0.043 A 
HETATM   16  C   UNL     1     -39.006 -46.082  13.675  1.00  0.00     0.116 A 
HETATM   17  F   UNL     1     -38.876 -44.900  14.291  1.00  0.00    -0.206 F 
HETATM   18  C   UNL     1     -39.795 -46.180  12.537  1.00  0.00     0.043 A 
HETATM   19  C   UNL     1     -39.942 -47.416  11.907  1.00  0.00     0.013 A 
ENDBRANCH  10  13
ENDBRANCH   9  10
ENDBRANCH   1   9
BRANCH   5  20
HETATM   20  C   UNL     1     -44.170 -54.129  12.900  1.00  0.00     0.036 C 
HETATM   21  C   UNL     1     -45.391 -53.237  13.274  1.00  0.00     0.011 C 
HETATM   22  C   UNL     1     -45.882 -54.384  14.174  1.00  0.00     0.001 C 
HETATM   23  C   UNL     1     -44.423 -54.870  14.244  1.00  0.00     0.011 C 
ENDBRANCH   5  20
TORSDOF 5
ENDMDL
MODEL 5
REMARK VINA RESULT:      -6.2      3.396      5.373
REMARK  5 active torsions:
REMARK  status: ('A' for Active; 'I' for Inactive)
REMARK    1  A    between atoms: O_1  and  C_2 
REMARK    2  A    between atoms: C_2  and  C_3 
REMARK    3  A    between atoms: C_2  and  C_16 
REMARK    4  A    between atoms: C_3  and  N_4 
REMARK    5  A    between atoms: C_8  and  C_12 
ROOT
HETATM    1  N   UNL     1     -39.745 -51.202  13.827  1.00  0.00    -0.308 N 
HETATM    2  C   UNL     1     -40.068 -50.933  15.132  1.00  0.00     0.186 A 
HETATM    3  N   UNL     1     -39.258 -50.448  16.010  1.00  0.00    -0.355 N 
ATOM      4  HN  UNL     1     -39.548 -50.296  16.976  1.00  0.00     0.166 HD
HETATM    5  C   UNL     1     -37.989 -50.148  15.585  1.00  0.00     0.019 A 
HETATM    6  C   UNL     1     -37.527 -50.417  14.358  1.00  0.00     0.100 A 
HETATM    7  C   UNL     1     -38.464 -50.976  13.372  1.00  0.00     0.250 A 
HETATM    8  O   UNL     1     -38.104 -51.172  12.213  1.00  0.00    -0.268 OA
ENDROOT
BRANCH   1   9
HETATM    9  C   UNL     1     -40.776 -51.611  12.878  1.00  0.00     0.169 C 
BRANCH   9  10
HETATM   10  C   UNL     1     -40.910 -53.150  12.734  1.00  0.00     0.169 C 
BRANCH  10  11
HETATM   11  O   UNL     1     -40.608 -53.615  11.417  1.00  0.00    -0.389 OA
HETATM   12  H   UNL     1     -39.902 -53.055  11.034  1.00  0.00     0.210 HD
ENDBRANCH  10  11
BRANCH  10  13
HETATM   13  C   UNL     1     -42.268 -53.680  13.157  1.00  0.00    -0.028 A 
HETATM   14  C   UNL     1     -42.384 -54.509  14.287  1.00  0.00     0.013 A 
HETATM   15  C   UNL     1     -43.629 -55.009  14.676  1.00  0.00     0.043 A 
HETATM   16  C   UNL     1     -44.764 -54.677  13.947  1.00  0.00     0.116 A 
HETATM   17  F   UNL     1     -45.954 -55.168  14.317  1.00  0.00    -0.206 F 
HETATM   18  C   UNL     1     -44.679 -53.847  12.837  1.00  0.00     0.043 A 
HETATM   19  C   UNL     1     -43.436 -53.350  12.444  1.00  0.00     0.013 A 
ENDBRANCH  10  13
ENDBRANCH   9  10
ENDBRANCH   1   9
BRANCH   5  20
HETATM   20  C   UNL     1     -37.089 -49.475  16.571  1.00  0.00     0.036 C 
HETATM   21  C   UNL     1     -36.861 -47.952  16.345  1.00  0.00     0.011 C 
HETATM   22  C   UNL     1     -35.395 -48.166  16.760  1.00  0.00     0.001 C 
HETATM   23  C   UNL     1     -35.560 -49.639  16.344  1.00  0.00     0.011 C 
ENDBRANCH   5  20
TORSDOF 5
ENDMDL
MODEL 6
REMARK VINA RESULT:      -6.2      3.034      6.733
REMARK  5 active torsions:
REMARK  status: ('A' for Active; 'I' for Inactive)
REMARK    1  A    between atoms: O_1  and  C_2 
REMARK    2  A    between atoms: C_2  and  C_3 
REMARK    3  A    between atoms: C_2  and  C_16 
REMARK    4  A    between atoms: C_3  and  N_4 
REMARK    5  A    between atoms: C_8  and  C_12 
ROOT
HETATM    1  N   UNL     1     -41.677 -51.384  12.591  1.00  0.00    -0.308 N 
HETATM    2  C   UNL     1     -42.964 -50.929  12.705  1.00  0.00     0.186 A 
HETATM    3  N   UNL     1     -44.006 -51.679  12.822  1.00  0.00    -0.355 N 
ATOM      4  HN  UNL     1     -44.945 -51.284  12.874  1.00  0.00     0.166 HD
HETATM    5  C   UNL     1     -43.795 -53.033  12.871  1.00  0.00     0.019 A 
HETATM    6  C   UNL     1     -42.598 -53.610  12.710  1.00  0.00     0.100 A 
HETATM    7  C   UNL     1     -41.421 -52.738  12.572  1.00  0.00     0.250 A 
HETATM    8  O   UNL     1     -40.293 -53.222  12.494  1.00  0.00    -0.268 OA
ENDROOT
BRANCH   1   9
HETATM    9  C   UNL     1     -40.556 -50.449  12.612  1.00  0.00     0.169 C 
BRANCH   9  10
HETATM   10  C   UNL     1     -40.229 -49.843  11.222  1.00  0.00     0.169 C 
BRANCH  10  11
HETATM   11  O   UNL     1     -38.846 -49.950  10.879  1.00  0.00    -0.389 OA
HETATM   12  H   UNL     1     -38.408 -50.565  11.503  1.00  0.00     0.210 HD
ENDBRANCH  10  11
BRANCH  10  13
HETATM   13  C   UNL     1     -40.674 -48.399  11.073  1.00  0.00    -0.028 A 
HETATM   14  C   UNL     1     -39.878 -47.357  11.581  1.00  0.00     0.013 A 
HETATM   15  C   UNL     1     -40.286 -46.026  11.455  1.00  0.00     0.043 A 
HETATM   16  C   UNL     1     -41.483 -45.729  10.815  1.00  0.00     0.116 A 
HETATM   17  F   UNL     1     -41.875 -44.454  10.708  1.00  0.00    -0.206 F 
HETATM   18  C   UNL     1     -42.279 -46.739  10.290  1.00  0.00     0.043 A 
HETATM   19  C   UNL     1     -41.875 -48.069  10.418  1.00  0.00     0.013 A 
ENDBRANCH  10  13
ENDBRANCH   9  10
ENDBRANCH   1   9
BRANCH   5  20
HETATM   20  C   UNL     1     -44.989 -53.894  13.127  1.00  0.00     0.036 C 
HETATM   21  C   UNL     1     -46.113 -53.248  13.990  1.00  0.00     0.011 C 
HETATM   22  C   UNL     1     -46.308 -54.618  14.663  1.00  0.00     0.001 C 
HETATM   23  C   UNL     1     -44.859 -54.949  14.263  1.00  0.00     0.011 C 
ENDBRANCH   5  20
TORSDOF 5
ENDMDL
MODEL 7
REMARK VINA RESULT:      -6.1      2.613      3.730
REMARK  5 active torsions:
REMARK  status: ('A' for Active; 'I' for Inactive)
REMARK    1  A    between atoms: O_1  and  C_2 
REMARK    2  A    between atoms: C_2  and  C_3 
REMARK    3  A    between atoms: C_2  and  C_16 
REMARK    4  A    between atoms: C_3  and  N_4 
REMARK    5  A    between atoms: C_8  and  C_12 
ROOT
HETATM    1  N   UNL     1     -42.112 -52.492  13.210  1.00  0.00    -0.308 N 
HETATM    2  C   UNL     1     -41.578 -52.531  11.949  1.00  0.00     0.186 A 
HETATM    3  N   UNL     1     -41.054 -51.525  11.337  1.00  0.00    -0.355 N 
ATOM      4  HN  UNL     1     -40.697 -51.607  10.385  1.00  0.00     0.166 HD
HETATM    5  C   UNL     1     -40.999 -50.339  12.023  1.00  0.00     0.019 A 
HETATM    6  C   UNL     1     -41.538 -50.150  13.233  1.00  0.00     0.100 A 
HETATM    7  C   UNL     1     -42.138 -51.307  13.914  1.00  0.00     0.250 A 
HETATM    8  O   UNL     1     -42.580 -51.198  15.056  1.00  0.00    -0.268 OA
ENDROOT
BRANCH   1   9
HETATM    9  C   UNL     1     -42.547 -53.720  13.869  1.00  0.00     0.169 C 
BRANCH   9  10
HETATM   10  C   UNL     1     -44.005 -54.125  13.525  1.00  0.00     0.169 C 
BRANCH  10  11
HETATM   11  O   UNL     1     -44.262 -54.142  12.120  1.00  0.00    -0.389 OA
HETATM   12  H   UNL     1     -44.491 -53.235  11.825  1.00  0.00     0.210 HD
ENDBRANCH  10  11
BRANCH  10  13
HETATM   13  C   UNL     1     -45.049 -53.267  14.217  1.00  0.00    -0.028 A 
HETATM   14  C   UNL     1     -45.348 -53.476  15.576  1.00  0.00     0.013 A 
HETATM   15  C   UNL     1     -46.315 -52.697  16.217  1.00  0.00     0.043 A 
HETATM   16  C   UNL     1     -46.979 -51.702  15.511  1.00  0.00     0.116 A 
HETATM   17  F   UNL     1     -47.913 -50.967  16.127  1.00  0.00    -0.206 F 
HETATM   18  C   UNL     1     -46.691 -51.465  14.174  1.00  0.00     0.043 A 
HETATM   19  C   UNL     1     -45.729 -52.245  13.530  1.00  0.00     0.013 A 
ENDBRANCH  10  13
ENDBRANCH   9  10
ENDBRANCH   1   9
BRANCH   5  20
HETATM   20  C   UNL     1     -40.284 -49.207  11.359  1.00  0.00     0.036 C 
HETATM   21  C   UNL     1     -39.481 -48.268  12.307  1.00  0.00     0.011 C 
HETATM   22  C   UNL     1     -39.944 -47.086  11.438  1.00  0.00     0.001 C 
HETATM   23  C   UNL     1     -41.137 -47.956  11.002  1.00  0.00     0.011 C 
ENDBRANCH   5  20
TORSDOF 5
ENDMDL
MODEL 8
REMARK VINA RESULT:      -6.0      3.600      7.143
REMARK  5 active torsions:
REMARK  status: ('A' for Active; 'I' for Inactive)
REMARK    1  A    between atoms: O_1  and  C_2 
REMARK    2  A    between atoms: C_2  and  C_3 
REMARK    3  A    between atoms: C_2  and  C_16 
REMARK    4  A    between atoms: C_3  and  N_4 
REMARK    5  A    between atoms: C_8  and  C_12 
ROOT
HETATM    1  N   UNL     1     -42.090 -50.965  12.802  1.00  0.00    -0.308 N 
HETATM    2  C   UNL     1     -42.141 -52.233  12.285  1.00  0.00     0.186 A 
HETATM    3  N   UNL     1     -43.129 -53.050  12.427  1.00  0.00    -0.355 N 
ATOM      4  HN  UNL     1     -43.099 -53.994  12.043  1.00  0.00     0.166 HD
HETATM    5  C   UNL     1     -44.221 -52.591  13.118  1.00  0.00     0.019 A 
HETATM    6  C   UNL     1     -44.276 -51.399  13.724  1.00  0.00     0.100 A 
HETATM    7  C   UNL     1     -43.137 -50.483  13.558  1.00  0.00     0.250 A 
HETATM    8  O   UNL     1     -43.173 -49.351  14.036  1.00  0.00    -0.268 OA
ENDROOT
BRANCH   1   9
HETATM    9  C   UNL     1     -40.988 -50.070  12.460  1.00  0.00     0.169 C 
BRANCH   9  10
HETATM   10  C   UNL     1     -41.200 -49.308  11.126  1.00  0.00     0.169 C 
BRANCH  10  11
HETATM   11  O   UNL     1     -40.433 -49.847  10.048  1.00  0.00    -0.389 OA
HETATM   12  H   UNL     1     -40.890 -50.639   9.695  1.00  0.00     0.210 HD
ENDBRANCH  10  11
BRANCH  10  13
HETATM   13  C   UNL     1     -40.938 -47.817  11.233  1.00  0.00    -0.028 A 
HETATM   14  C   UNL     1     -41.652 -46.913  10.427  1.00  0.00     0.013 A 
HETATM   15  C   UNL     1     -41.410 -45.539  10.514  1.00  0.00     0.043 A 
HETATM   16  C   UNL     1     -40.462 -45.062  11.411  1.00  0.00     0.116 A 
HETATM   17  F   UNL     1     -40.225 -43.746  11.481  1.00  0.00    -0.206 F 
HETATM   18  C   UNL     1     -39.755 -45.932  12.230  1.00  0.00     0.043 A 
HETATM   19  C   UNL     1     -39.992 -47.304  12.141  1.00  0.00     0.013 A 
ENDBRANCH  10  13
ENDBRANCH   9  10
ENDBRANCH   1   9
BRANCH   5  20
HETATM   20  C   UNL     1     -45.411 -53.494  13.177  1.00  0.00     0.036 C 
HETATM   21  C   UNL     1     -46.389 -53.242  14.362  1.00  0.00     0.011 C 
HETATM   22  C   UNL     1     -46.557 -54.767  14.474  1.00  0.00     0.001 C 
HETATM   23  C   UNL     1     -45.185 -54.905  13.790  1.00  0.00     0.011 C 
ENDBRANCH   5  20
TORSDOF 5
ENDMDL
MODEL 9
REMARK VINA RESULT:      -5.9      2.994      4.754
REMARK  5 active torsions:
REMARK  status: ('A' for Active; 'I' for Inactive)
REMARK    1  A    between atoms: O_1  and  C_2 
REMARK    2  A    between atoms: C_2  and  C_3 
REMARK    3  A    between atoms: C_2  and  C_16 
REMARK    4  A    between atoms: C_3  and  N_4 
REMARK    5  A    between atoms: C_8  and  C_12 
ROOT
HETATM    1  N   UNL     1     -40.382 -50.709  12.570  1.00  0.00    -0.308 N 
HETATM    2  C   UNL     1     -39.040 -50.791  12.310  1.00  0.00     0.186 A 
HETATM    3  N   UNL     1     -38.138 -50.031  12.831  1.00  0.00    -0.355 N 
ATOM      4  HN  UNL     1     -37.154 -50.120  12.578  1.00  0.00     0.166 HD
HETATM    5  C   UNL     1     -38.562 -49.099  13.742  1.00  0.00     0.019 A 
HETATM    6  C   UNL     1     -39.847 -48.874  14.040  1.00  0.00     0.100 A 
HETATM    7  C   UNL     1     -40.863 -49.745  13.430  1.00  0.00     0.250 A 
HETATM    8  O   UNL     1     -42.049 -49.623  13.729  1.00  0.00    -0.268 OA
ENDROOT
BRANCH   1   9
HETATM    9  C   UNL     1     -41.302 -51.711  12.039  1.00  0.00     0.169 C 
BRANCH   9  10
HETATM   10  C   UNL     1     -41.215 -53.079  12.765  1.00  0.00     0.169 C 
BRANCH  10  11
HETATM   11  O   UNL     1     -40.501 -54.064  12.015  1.00  0.00    -0.389 OA
HETATM   12  H   UNL     1     -39.600 -54.158  12.387  1.00  0.00     0.210 HD
ENDBRANCH  10  11
BRANCH  10  13
HETATM   13  C   UNL     1     -42.568 -53.637  13.169  1.00  0.00    -0.028 A 
HETATM   14  C   UNL     1     -43.728 -53.249  12.475  1.00  0.00     0.013 A 
HETATM   15  C   UNL     1     -44.978 -53.752  12.846  1.00  0.00     0.043 A 
HETATM   16  C   UNL     1     -45.075 -54.647  13.904  1.00  0.00     0.116 A 
HETATM   17  F   UNL     1     -46.277 -55.116  14.263  1.00  0.00    -0.206 F 
HETATM   18  C   UNL     1     -43.943 -55.058  14.594  1.00  0.00     0.043 A 
HETATM   19  C   UNL     1     -42.694 -54.555  14.228  1.00  0.00     0.013 A 
ENDBRANCH  10  13
ENDBRANCH   9  10
ENDBRANCH   1   9
BRANCH   5  20
HETATM   20  C   UNL     1     -37.504 -48.302  14.435  1.00  0.00     0.036 C 
HETATM   21  C   UNL     1     -36.713 -49.054  15.547  1.00  0.00     0.011 C 
HETATM   22  C   UNL     1     -36.733 -47.750  16.364  1.00  0.00     0.001 C 
HETATM   23  C   UNL     1     -37.980 -47.340  15.560  1.00  0.00     0.011 C 
ENDBRANCH   5  20
TORSDOF 5
ENDMDL
