MODEL 1
REMARK VINA RESULT:      -7.3      0.000      0.000
REMARK  3 active torsions:
REMARK  status: ('A' for Active; 'I' for Inactive)
REMARK    1  A    between atoms: C_2  and  C_5 
REMARK    2  A    between atoms: C_10  and  N_11 
REMARK       I    between atoms: N_11  and  C_12 
REMARK       I    between atoms: C_12  and  N_14 
REMARK    3  A    between atoms: N_14  and  C_15 
ROOT
HETATM    1  C   UNL     1     -45.199 -47.286   9.167  1.00  0.00     0.065 A 
HETATM    2  C   UNL     1     -45.236 -45.945   9.105  1.00  0.00     0.107 A 
HETATM    3  N   UNL     1     -44.106 -45.197   9.333  1.00  0.00    -0.331 N 
HETATM    4  C   UNL     1     -42.872 -45.732   9.623  1.00  0.00     0.272 A 
HETATM    5  O   UNL     1     -41.866 -45.043   9.777  1.00  0.00    -0.266 OA
HETATM    6  C   UNL     1     -42.818 -47.231   9.766  1.00  0.00     0.105 A 
HETATM    7  C   UNL     1     -43.943 -47.927   9.522  1.00  0.00     0.052 A 
HETATM    8  H   UNL     1     -44.144 -44.184   9.270  1.00  0.00     0.168 HD
ENDROOT
BRANCH   6   9
HETATM    9  N   UNL     1     -41.603 -47.783  10.112  1.00  0.00    -0.304 N 
HETATM   10  C   UNL     1     -41.094 -47.853  11.387  1.00  0.00     0.321 C 
HETATM   11  O   UNL     1     -41.578 -47.293  12.362  1.00  0.00    -0.247 OA
HETATM   12  N   UNL     1     -40.012 -48.694  11.475  1.00  0.00    -0.338 N 
HETATM   13  H   UNL     1     -39.439 -48.754  10.647  1.00  0.00     0.164 HD
HETATM   14  H   UNL     1     -40.979 -47.963   9.333  1.00  0.00     0.171 HD
BRANCH  12  15
HETATM   15  C   UNL     1     -39.369 -48.975  12.765  1.00  0.00     0.090 C 
HETATM   16  C   UNL     1     -37.872 -49.233  12.568  1.00  0.00     0.051 C 
HETATM   17  C   UNL     1     -37.639 -50.574  11.879  1.00  0.00     0.169 C 
HETATM   18  O   UNL     1     -38.259 -51.641  12.595  1.00  0.00    -0.391 OA
HETATM   19  C   UNL     1     -39.671 -51.466  12.720  1.00  0.00     0.169 C 
HETATM   20  C   UNL     1     -39.974 -50.189  13.488  1.00  0.00     0.051 C 
ENDBRANCH  12  15
ENDBRANCH   6   9
BRANCH   1  21
HETATM   21  C   UNL     1     -46.396 -48.149   8.876  1.00  0.00     0.418 C 
HETATM   22  F   UNL     1     -46.538 -49.183   9.743  1.00  0.00    -0.166 F 
HETATM   23  F   UNL     1     -46.321 -48.693   7.634  1.00  0.00    -0.166 F 
HETATM   24  F   UNL     1     -47.550 -47.435   8.921  1.00  0.00    -0.166 F 
ENDBRANCH   1  21
TORSDOF 3
ENDMDL
MODEL 2
REMARK VINA RESULT:      -6.6      4.705      5.497
REMARK  3 active torsions:
REMARK  status: ('A' for Active; 'I' for Inactive)
REMARK    1  A    between atoms: C_2  and  C_5 
REMARK    2  A    between atoms: C_10  and  N_11 
REMARK       I    between atoms: N_11  and  C_12 
REMARK       I    between atoms: C_12  and  N_14 
REMARK    3  A    between atoms: N_14  and  C_15 
ROOT
HETATM    1  C   UNL     1     -41.184 -45.735  10.567  1.00  0.00     0.065 A 
HETATM    2  C   UNL     1     -42.285 -45.170  10.044  1.00  0.00     0.107 A 
HETATM    3  N   UNL     1     -43.463 -45.872   9.952  1.00  0.00    -0.331 N 
HETATM    4  C   UNL     1     -43.624 -47.168  10.384  1.00  0.00     0.272 A 
HETATM    5  O   UNL     1     -44.701 -47.758  10.335  1.00  0.00    -0.266 OA
HETATM    6  C   UNL     1     -42.388 -47.848  10.913  1.00  0.00     0.105 A 
HETATM    7  C   UNL     1     -41.259 -47.123  10.997  1.00  0.00     0.052 A 
HETATM    8  H   UNL     1     -44.291 -45.429   9.567  1.00  0.00     0.168 HD
ENDROOT
BRANCH   6   9
HETATM    9  N   UNL     1     -42.516 -49.166  11.298  1.00  0.00    -0.304 N 
HETATM   10  C   UNL     1     -42.982 -49.597  12.517  1.00  0.00     0.321 C 
HETATM   11  O   UNL     1     -43.195 -48.870  13.479  1.00  0.00    -0.247 OA
HETATM   12  N   UNL     1     -43.267 -50.941  12.524  1.00  0.00    -0.338 N 
HETATM   13  H   UNL     1     -42.696 -51.510  11.917  1.00  0.00     0.164 HD
HETATM   14  H   UNL     1     -42.043 -49.833  10.698  1.00  0.00     0.171 HD
BRANCH  12  15
HETATM   15  C   UNL     1     -43.854 -51.588  13.704  1.00  0.00     0.090 C 
HETATM   16  C   UNL     1     -43.409 -53.051  13.785  1.00  0.00     0.051 C 
HETATM   17  C   UNL     1     -44.073 -53.882  12.691  1.00  0.00     0.169 C 
HETATM   18  O   UNL     1     -45.495 -53.770  12.744  1.00  0.00    -0.391 OA
HETATM   19  C   UNL     1     -45.942 -52.422  12.586  1.00  0.00     0.169 C 
HETATM   20  C   UNL     1     -45.392 -51.554  13.707  1.00  0.00     0.051 C 
ENDBRANCH  12  15
ENDBRANCH   6   9
BRANCH   1  21
HETATM   21  C   UNL     1     -39.887 -44.993  10.734  1.00  0.00     0.418 C 
HETATM   22  F   UNL     1     -39.286 -45.219  11.929  1.00  0.00    -0.166 F 
HETATM   23  F   UNL     1     -40.073 -43.651  10.643  1.00  0.00    -0.166 F 
HETATM   24  F   UNL     1     -38.991 -45.331   9.771  1.00  0.00    -0.166 F 
ENDBRANCH   1  21
TORSDOF 3
ENDMDL
MODEL 3
REMARK VINA RESULT:      -6.4      3.786      4.713
REMARK  3 active torsions:
REMARK  status: ('A' for Active; 'I' for Inactive)
REMARK    1  A    between atoms: C_2  and  C_5 
REMARK    2  A    between atoms: C_10  and  N_11 
REMARK       I    between atoms: N_11  and  C_12 
REMARK       I    between atoms: C_12  and  N_14 
REMARK    3  A    between atoms: N_14  and  C_15 
ROOT
HETATM    1  C   UNL     1     -42.590 -46.516   9.928  1.00  0.00     0.065 A 
HETATM    2  C   UNL     1     -41.393 -45.956  10.171  1.00  0.00     0.107 A 
HETATM    3  N   UNL     1     -40.418 -46.644  10.852  1.00  0.00    -0.331 N 
HETATM    4  C   UNL     1     -40.566 -47.929  11.321  1.00  0.00     0.272 A 
HETATM    5  O   UNL     1     -39.662 -48.540  11.887  1.00  0.00    -0.266 OA
HETATM    6  C   UNL     1     -41.922 -48.555  11.122  1.00  0.00     0.105 A 
HETATM    7  C   UNL     1     -42.844 -47.853  10.439  1.00  0.00     0.052 A 
HETATM    8  H   UNL     1     -39.513 -46.215  11.018  1.00  0.00     0.168 HD
ENDROOT
BRANCH   6   9
HETATM    9  N   UNL     1     -42.107 -49.821  11.635  1.00  0.00    -0.304 N 
HETATM   10  C   UNL     1     -42.819 -50.124  12.772  1.00  0.00     0.321 C 
HETATM   11  O   UNL     1     -43.246 -49.296  13.567  1.00  0.00    -0.247 OA
HETATM   12  N   UNL     1     -43.076 -51.468  12.888  1.00  0.00    -0.338 N 
HETATM   13  H   UNL     1     -42.377 -52.080  12.493  1.00  0.00     0.164 HD
HETATM   14  H   UNL     1     -41.505 -50.535  11.238  1.00  0.00     0.171 HD
BRANCH  12  15
HETATM   15  C   UNL     1     -43.892 -51.994  13.988  1.00  0.00     0.090 C 
HETATM   16  C   UNL     1     -43.647 -53.496  14.162  1.00  0.00     0.051 C 
HETATM   17  C   UNL     1     -44.255 -54.282  13.005  1.00  0.00     0.169 C 
HETATM   18  O   UNL     1     -45.646 -53.999  12.857  1.00  0.00    -0.391 OA
HETATM   19  C   UNL     1     -45.896 -52.615  12.610  1.00  0.00     0.169 C 
HETATM   20  C   UNL     1     -45.400 -51.776  13.777  1.00  0.00     0.051 C 
ENDBRANCH  12  15
ENDBRANCH   6   9
BRANCH   1  21
HETATM   21  C   UNL     1     -43.670 -45.823   9.144  1.00  0.00     0.418 C 
HETATM   22  F   UNL     1     -44.893 -46.393   9.289  1.00  0.00    -0.166 F 
HETATM   23  F   UNL     1     -43.396 -45.831   7.814  1.00  0.00    -0.166 F 
HETATM   24  F   UNL     1     -43.796 -44.521   9.509  1.00  0.00    -0.166 F 
ENDBRANCH   1  21
TORSDOF 3
ENDMDL
MODEL 4
REMARK VINA RESULT:      -6.2      4.146      7.396
REMARK  3 active torsions:
REMARK  status: ('A' for Active; 'I' for Inactive)
REMARK    1  A    between atoms: C_2  and  C_5 
REMARK    2  A    between atoms: C_10  and  N_11 
REMARK       I    between atoms: N_11  and  C_12 
REMARK       I    between atoms: C_12  and  N_14 
REMARK    3  A    between atoms: N_14  and  C_15 
ROOT
HETATM    1  C   UNL     1     -42.218 -53.997  14.150  1.00  0.00     0.065 A 
HETATM    2  C   UNL     1     -40.916 -54.251  14.366  1.00  0.00     0.107 A 
HETATM    3  N   UNL     1     -39.941 -53.457  13.811  1.00  0.00    -0.331 N 
HETATM    4  C   UNL     1     -40.197 -52.360  13.021  1.00  0.00     0.272 A 
HETATM    5  O   UNL     1     -39.308 -51.638  12.575  1.00  0.00    -0.266 OA
HETATM    6  C   UNL     1     -41.647 -52.093  12.708  1.00  0.00     0.105 A 
HETATM    7  C   UNL     1     -42.570 -52.885  13.281  1.00  0.00     0.052 A 
HETATM    8  H   UNL     1     -38.962 -53.652  13.992  1.00  0.00     0.168 HD
ENDROOT
BRANCH   6   9
HETATM    9  N   UNL     1     -41.920 -51.031  11.872  1.00  0.00    -0.304 N 
HETATM   10  C   UNL     1     -42.713 -49.953  12.187  1.00  0.00     0.321 C 
HETATM   11  O   UNL     1     -43.409 -49.870  13.191  1.00  0.00    -0.247 OA
HETATM   12  N   UNL     1     -42.582 -48.925  11.287  1.00  0.00    -0.338 N 
HETATM   13  H   UNL     1     -42.375 -49.201  10.338  1.00  0.00     0.164 HD
HETATM   14  H   UNL     1     -41.668 -51.177  10.901  1.00  0.00     0.171 HD
BRANCH  12  15
HETATM   15  C   UNL     1     -43.280 -47.648  11.483  1.00  0.00     0.090 C 
HETATM   16  C   UNL     1     -44.164 -47.334  10.272  1.00  0.00     0.051 C 
HETATM   17  C   UNL     1     -43.313 -46.966   9.060  1.00  0.00     0.169 C 
HETATM   18  O   UNL     1     -42.432 -45.883   9.353  1.00  0.00    -0.391 OA
HETATM   19  C   UNL     1     -41.537 -46.183  10.426  1.00  0.00     0.169 C 
HETATM   20  C   UNL     1     -42.322 -46.465  11.697  1.00  0.00     0.051 C 
ENDBRANCH  12  15
ENDBRANCH   6   9
BRANCH   1  21
HETATM   21  C   UNL     1     -43.321 -54.806  14.776  1.00  0.00     0.418 C 
HETATM   22  F   UNL     1     -43.939 -54.171  15.804  1.00  0.00    -0.166 F 
HETATM   23  F   UNL     1     -42.850 -55.979  15.273  1.00  0.00    -0.166 F 
HETATM   24  F   UNL     1     -44.283 -55.122  13.871  1.00  0.00    -0.166 F 
ENDBRANCH   1  21
TORSDOF 3
ENDMDL
MODEL 5
REMARK VINA RESULT:      -6.2      3.936      6.839
REMARK  3 active torsions:
REMARK  status: ('A' for Active; 'I' for Inactive)
REMARK    1  A    between atoms: C_2  and  C_5 
REMARK    2  A    between atoms: C_10  and  N_11 
REMARK       I    between atoms: N_11  and  C_12 
REMARK       I    between atoms: C_12  and  N_14 
REMARK    3  A    between atoms: N_14  and  C_15 
ROOT
HETATM    1  C   UNL     1     -42.857 -53.794  13.472  1.00  0.00     0.065 A 
HETATM    2  C   UNL     1     -41.634 -54.334  13.610  1.00  0.00     0.107 A 
HETATM    3  N   UNL     1     -40.511 -53.647  13.217  1.00  0.00    -0.331 N 
HETATM    4  C   UNL     1     -40.531 -52.381  12.678  1.00  0.00     0.272 A 
HETATM    5  O   UNL     1     -39.508 -51.769  12.378  1.00  0.00    -0.266 OA
HETATM    6  C   UNL     1     -41.893 -51.780  12.449  1.00  0.00     0.105 A 
HETATM    7  C   UNL     1     -42.966 -52.480  12.859  1.00  0.00     0.052 A 
HETATM    8  H   UNL     1     -39.592 -54.061  13.339  1.00  0.00     0.168 HD
ENDROOT
BRANCH   6   9
HETATM    9  N   UNL     1     -41.936 -50.536  11.857  1.00  0.00    -0.304 N 
HETATM   10  C   UNL     1     -42.033 -49.339  12.525  1.00  0.00     0.321 C 
HETATM   11  O   UNL     1     -42.255 -49.226  13.724  1.00  0.00    -0.247 OA
HETATM   12  N   UNL     1     -41.771 -48.262  11.714  1.00  0.00    -0.338 N 
HETATM   13  H   UNL     1     -42.026 -48.376  10.743  1.00  0.00     0.164 HD
HETATM   14  H   UNL     1     -42.104 -50.545  10.856  1.00  0.00     0.171 HD
BRANCH  12  15
HETATM   15  C   UNL     1     -41.741 -46.896  12.249  1.00  0.00     0.090 C 
HETATM   16  C   UNL     1     -42.775 -46.021  11.533  1.00  0.00     0.051 C 
HETATM   17  C   UNL     1     -42.342 -45.734  10.098  1.00  0.00     0.169 C 
HETATM   18  O   UNL     1     -41.044 -45.142  10.055  1.00  0.00    -0.391 OA
HETATM   19  C   UNL     1     -40.045 -45.977  10.643  1.00  0.00     0.169 C 
HETATM   20  C   UNL     1     -40.365 -46.224  12.108  1.00  0.00     0.051 C 
ENDBRANCH  12  15
ENDBRANCH   6   9
BRANCH   1  21
HETATM   21  C   UNL     1     -44.110 -54.486  13.932  1.00  0.00     0.418 C 
HETATM   22  F   UNL     1     -44.929 -54.852  12.914  1.00  0.00    -0.166 F 
HETATM   23  F   UNL     1     -44.843 -53.685  14.748  1.00  0.00    -0.166 F 
HETATM   24  F   UNL     1     -43.830 -55.612  14.638  1.00  0.00    -0.166 F 
ENDBRANCH   1  21
TORSDOF 3
ENDMDL
MODEL 6
REMARK VINA RESULT:      -6.0      1.693      2.152
REMARK  3 active torsions:
REMARK  status: ('A' for Active; 'I' for Inactive)
REMARK    1  A    between atoms: C_2  and  C_5 
REMARK    2  A    between atoms: C_10  and  N_11 
REMARK       I    between atoms: N_11  and  C_12 
REMARK       I    between atoms: C_12  and  N_14 
REMARK    3  A    between atoms: N_14  and  C_15 
ROOT
HETATM    1  C   UNL     1     -44.744 -47.351   9.419  1.00  0.00     0.065 A 
HETATM    2  C   UNL     1     -44.130 -46.417   8.673  1.00  0.00     0.107 A 
HETATM    3  N   UNL     1     -42.879 -45.958   9.007  1.00  0.00    -0.331 N 
HETATM    4  C   UNL     1     -42.157 -46.406  10.089  1.00  0.00     0.272 A 
HETATM    5  O   UNL     1     -41.019 -46.014  10.340  1.00  0.00    -0.266 OA
HETATM    6  C   UNL     1     -42.850 -47.404  10.981  1.00  0.00     0.105 A 
HETATM    7  C   UNL     1     -44.069 -47.836  10.612  1.00  0.00     0.052 A 
HETATM    8  H   UNL     1     -42.420 -45.262   8.428  1.00  0.00     0.168 HD
ENDROOT
BRANCH   6   9
HETATM    9  N   UNL     1     -42.165 -47.822  12.102  1.00  0.00    -0.304 N 
HETATM   10  C   UNL     1     -41.242 -48.839  12.138  1.00  0.00     0.321 C 
HETATM   11  O   UNL     1     -41.022 -49.614  11.215  1.00  0.00    -0.247 OA
HETATM   12  N   UNL     1     -40.519 -48.851  13.306  1.00  0.00    -0.338 N 
HETATM   13  H   UNL     1     -41.008 -48.519  14.124  1.00  0.00     0.164 HD
HETATM   14  H   UNL     1     -42.530 -47.470  12.981  1.00  0.00     0.171 HD
BRANCH  12  15
HETATM   15  C   UNL     1     -39.425 -49.807  13.513  1.00  0.00     0.090 C 
HETATM   16  C   UNL     1     -39.401 -50.281  14.970  1.00  0.00     0.051 C 
HETATM   17  C   UNL     1     -38.932 -49.163  15.896  1.00  0.00     0.169 C 
HETATM   18  O   UNL     1     -37.659 -48.656  15.496  1.00  0.00    -0.391 OA
HETATM   19  C   UNL     1     -37.675 -48.131  14.168  1.00  0.00     0.169 C 
HETATM   20  C   UNL     1     -38.043 -49.224  13.177  1.00  0.00     0.051 C 
ENDBRANCH  12  15
ENDBRANCH   6   9
BRANCH   1  21
HETATM   21  C   UNL     1     -46.091 -47.920   9.066  1.00  0.00     0.418 C 
HETATM   22  F   UNL     1     -46.486 -48.922   9.891  1.00  0.00    -0.166 F 
HETATM   23  F   UNL     1     -46.096 -48.430   7.808  1.00  0.00    -0.166 F 
HETATM   24  F   UNL     1     -47.061 -46.970   9.107  1.00  0.00    -0.166 F 
ENDBRANCH   1  21
TORSDOF 3
ENDMDL
MODEL 7
REMARK VINA RESULT:      -5.9      3.800      5.782
REMARK  3 active torsions:
REMARK  status: ('A' for Active; 'I' for Inactive)
REMARK    1  A    between atoms: C_2  and  C_5 
REMARK    2  A    between atoms: C_10  and  N_11 
REMARK       I    between atoms: N_11  and  C_12 
REMARK       I    between atoms: C_12  and  N_14 
REMARK    3  A    between atoms: N_14  and  C_15 
ROOT
HETATM    1  C   UNL     1     -44.935 -51.777  13.162  1.00  0.00     0.065 A 
HETATM    2  C   UNL     1     -44.431 -52.881  12.585  1.00  0.00     0.107 A 
HETATM    3  N   UNL     1     -43.131 -52.915  12.141  1.00  0.00    -0.331 N 
HETATM    4  C   UNL     1     -42.251 -51.863  12.254  1.00  0.00     0.272 A 
HETATM    5  O   UNL     1     -41.078 -51.934  11.891  1.00  0.00    -0.266 OA
HETATM    6  C   UNL     1     -42.810 -50.591  12.835  1.00  0.00     0.105 A 
HETATM    7  C   UNL     1     -44.083 -50.604  13.268  1.00  0.00     0.052 A 
HETATM    8  H   UNL     1     -42.759 -53.759  11.719  1.00  0.00     0.168 HD
ENDROOT
BRANCH   6   9
HETATM    9  N   UNL     1     -41.959 -49.508  12.904  1.00  0.00    -0.304 N 
HETATM   10  C   UNL     1     -41.830 -48.534  11.943  1.00  0.00     0.321 C 
HETATM   11  O   UNL     1     -42.335 -48.583  10.828  1.00  0.00    -0.247 OA
HETATM   12  N   UNL     1     -41.130 -47.441  12.393  1.00  0.00    -0.338 N 
HETATM   13  H   UNL     1     -40.421 -47.634  13.085  1.00  0.00     0.164 HD
HETATM   14  H   UNL     1     -41.253 -49.566  13.630  1.00  0.00     0.171 HD
BRANCH  12  15
HETATM   15  C   UNL     1     -40.949 -46.253  11.551  1.00  0.00     0.090 C 
HETATM   16  C   UNL     1     -39.706 -45.474  11.990  1.00  0.00     0.051 C 
HETATM   17  C   UNL     1     -39.941 -44.790  13.334  1.00  0.00     0.169 C 
HETATM   18  O   UNL     1     -41.092 -43.948  13.294  1.00  0.00    -0.391 OA
HETATM   19  C   UNL     1     -42.283 -44.668  12.969  1.00  0.00     0.169 C 
HETATM   20  C   UNL     1     -42.153 -45.297  11.591  1.00  0.00     0.051 C 
ENDBRANCH  12  15
ENDBRANCH   6   9
BRANCH   1  21
HETATM   21  C   UNL     1     -46.335 -51.709  13.707  1.00  0.00     0.418 C 
HETATM   22  F   UNL     1     -46.443 -50.938  14.818  1.00  0.00    -0.166 F 
HETATM   23  F   UNL     1     -46.791 -52.942  14.047  1.00  0.00    -0.166 F 
HETATM   24  F   UNL     1     -47.204 -51.208  12.792  1.00  0.00    -0.166 F 
ENDBRANCH   1  21
TORSDOF 3
ENDMDL
MODEL 8
REMARK VINA RESULT:      -5.9      5.415      7.084
REMARK  3 active torsions:
REMARK  status: ('A' for Active; 'I' for Inactive)
REMARK    1  A    between atoms: C_2  and  C_5 
REMARK    2  A    between atoms: C_10  and  N_11 
REMARK       I    between atoms: N_11  and  C_12 
REMARK       I    between atoms: C_12  and  N_14 
REMARK    3  A    between atoms: N_14  and  C_15 
ROOT
HETATM    1  C   UNL     1     -39.308 -49.427  11.952  1.00  0.00     0.065 A 
HETATM    2  C   UNL     1     -39.646 -48.259  11.381  1.00  0.00     0.107 A 
HETATM    3  N   UNL     1     -40.964 -47.917  11.201  1.00  0.00    -0.331 N 
HETATM    4  C   UNL     1     -42.025 -48.705  11.585  1.00  0.00     0.272 A 
HETATM    5  O   UNL     1     -43.196 -48.357  11.456  1.00  0.00    -0.266 OA
HETATM    6  C   UNL     1     -41.673 -50.051  12.166  1.00  0.00     0.105 A 
HETATM    7  C   UNL     1     -40.371 -50.341  12.337  1.00  0.00     0.052 A 
HETATM    8  H   UNL     1     -41.207 -47.026  10.780  1.00  0.00     0.168 HD
ENDROOT
BRANCH   6   9
HETATM    9  N   UNL     1     -42.722 -50.879  12.505  1.00  0.00    -0.304 N 
HETATM   10  C   UNL     1     -42.668 -52.251  12.563  1.00  0.00     0.321 C 
HETATM   11  O   UNL     1     -41.728 -52.928  12.167  1.00  0.00    -0.247 OA
HETATM   12  N   UNL     1     -43.760 -52.793  13.195  1.00  0.00    -0.338 N 
HETATM   13  H   UNL     1     -44.622 -52.277  13.094  1.00  0.00     0.164 HD
HETATM   14  H   UNL     1     -43.633 -50.431  12.516  1.00  0.00     0.171 HD
BRANCH  12  15
HETATM   15  C   UNL     1     -43.860 -54.237  13.436  1.00  0.00     0.090 C 
HETATM   16  C   UNL     1     -45.330 -54.664  13.508  1.00  0.00     0.051 C 
HETATM   17  C   UNL     1     -45.980 -54.154  14.791  1.00  0.00     0.169 C 
HETATM   18  O   UNL     1     -45.259 -54.583  15.946  1.00  0.00    -0.391 OA
HETATM   19  C   UNL     1     -43.905 -54.126  15.943  1.00  0.00     0.169 C 
HETATM   20  C   UNL     1     -43.167 -54.681  14.735  1.00  0.00     0.051 C 
ENDBRANCH  12  15
ENDBRANCH   6   9
BRANCH   1  21
HETATM   21  C   UNL     1     -37.881 -49.823  12.215  1.00  0.00     0.418 C 
HETATM   22  F   UNL     1     -37.079 -49.708  11.127  1.00  0.00    -0.166 F 
HETATM   23  F   UNL     1     -37.796 -51.116  12.622  1.00  0.00    -0.166 F 
HETATM   24  F   UNL     1     -37.325 -49.067  13.197  1.00  0.00    -0.166 F 
ENDBRANCH   1  21
TORSDOF 3
ENDMDL
MODEL 9
REMARK VINA RESULT:      -5.9      5.609      7.765
REMARK  3 active torsions:
REMARK  status: ('A' for Active; 'I' for Inactive)
REMARK    1  A    between atoms: C_2  and  C_5 
REMARK    2  A    between atoms: C_10  and  N_11 
REMARK       I    between atoms: N_11  and  C_12 
REMARK       I    between atoms: C_12  and  N_14 
REMARK    3  A    between atoms: N_14  and  C_15 
ROOT
HETATM    1  C   UNL     1     -43.314 -54.618  14.763  1.00  0.00     0.065 A 
HETATM    2  C   UNL     1     -44.535 -55.132  14.540  1.00  0.00     0.107 A 
HETATM    3  N   UNL     1     -45.387 -54.555  13.629  1.00  0.00    -0.331 N 
HETATM    4  C   UNL     1     -45.077 -53.445  12.879  1.00  0.00     0.272 A 
HETATM    5  O   UNL     1     -45.839 -52.975  12.037  1.00  0.00    -0.266 OA
HETATM    6  C   UNL     1     -43.740 -52.808  13.160  1.00  0.00     0.105 A 
HETATM    7  C   UNL     1     -42.931 -53.411  14.048  1.00  0.00     0.052 A 
HETATM    8  H   UNL     1     -46.302 -54.961  13.460  1.00  0.00     0.168 HD
ENDROOT
BRANCH   6   9
HETATM    9  N   UNL     1     -43.434 -51.661  12.458  1.00  0.00    -0.304 N 
HETATM   10  C   UNL     1     -43.484 -50.383  12.961  1.00  0.00     0.321 C 
HETATM   11  O   UNL     1     -43.960 -50.080  14.048  1.00  0.00    -0.247 OA
HETATM   12  N   UNL     1     -42.864 -49.472  12.142  1.00  0.00    -0.338 N 
HETATM   13  H   UNL     1     -42.898 -49.680  11.154  1.00  0.00     0.164 HD
HETATM   14  H   UNL     1     -43.361 -51.782  11.453  1.00  0.00     0.171 HD
BRANCH  12  15
HETATM   15  C   UNL     1     -42.732 -48.063  12.532  1.00  0.00     0.090 C 
HETATM   16  C   UNL     1     -43.154 -47.150  11.377  1.00  0.00     0.051 C 
HETATM   17  C   UNL     1     -42.126 -47.191  10.250  1.00  0.00     0.169 C 
HETATM   18  O   UNL     1     -40.821 -46.858  10.724  1.00  0.00    -0.391 OA
HETATM   19  C   UNL     1     -40.369 -47.748  11.745  1.00  0.00     0.169 C 
HETATM   20  C   UNL     1     -41.301 -47.684  12.946  1.00  0.00     0.051 C 
ENDBRANCH  12  15
ENDBRANCH   6   9
BRANCH   1  21
HETATM   21  C   UNL     1     -42.328 -55.243  15.712  1.00  0.00     0.418 C 
HETATM   22  F   UNL     1     -42.515 -56.575  15.884  1.00  0.00    -0.166 F 
HETATM   23  F   UNL     1     -42.406 -54.679  16.945  1.00  0.00    -0.166 F 
HETATM   24  F   UNL     1     -41.049 -55.076  15.285  1.00  0.00    -0.166 F 
ENDBRANCH   1  21
TORSDOF 3
ENDMDL
