MODEL 1
REMARK VINA RESULT:      -5.5      0.000      0.000
REMARK  5 active torsions:
REMARK  status: ('A' for Active; 'I' for Inactive)
REMARK    1  A    between atoms: O_2  and  C_3 
REMARK    2  A    between atoms: C_3  and  C_4 
REMARK    3  A    between atoms: C_4  and  N_6 
REMARK       I    between atoms: N_6  and  C_7 
REMARK       I    between atoms: C_7  and  N_9 
REMARK    4  A    between atoms: N_9  and  C_10 
REMARK    5  A    between atoms: C_13  and  N_17 
ROOT
HETATM    1  C   UNL     1     -40.431 -50.416  11.643  1.00  0.00     0.051 A 
HETATM    2  C   UNL     1     -39.307 -50.137  12.401  1.00  0.00     0.035 A 
HETATM    3  C   UNL     1     -38.897 -51.043  13.381  1.00  0.00     0.051 A 
HETATM    4  C   UNL     1     -39.554 -52.263  13.550  1.00  0.00     0.103 A 
HETATM    5  N   UNL     1     -40.642 -52.542  12.795  1.00  0.00    -0.350 N 
ATOM      6  HN  UNL     1     -41.134 -53.428  12.905  1.00  0.00     0.166 HD
HETATM    7  C   UNL     1     -41.071 -51.622  11.887  1.00  0.00     0.119 A 
ENDROOT
BRANCH   1   8
HETATM    8  N   UNL     1     -40.850 -49.470  10.684  1.00  0.00    -0.308 N 
HETATM    9  C   UNL     1     -41.882 -48.589  10.915  1.00  0.00     0.321 C 
HETATM   10  N   UNL     1     -42.014 -47.704   9.864  1.00  0.00    -0.337 N 
HETATM   11  O   UNL     1     -42.544 -48.516  11.944  1.00  0.00    -0.247 OA
HETATM   12  H   UNL     1     -41.936 -48.146   8.958  1.00  0.00     0.164 HD
HETATM   13  H   UNL     1     -40.133 -49.091  10.081  1.00  0.00     0.170 HD
BRANCH  10  14
HETATM   14  C   UNL     1     -42.939 -46.568   9.964  1.00  0.00     0.105 C 
HETATM   15  C   UNL     1     -43.517 -46.240   8.586  1.00  0.00     0.034 C 
BRANCH  14  16
HETATM   16  C   UNL     1     -42.245 -45.327  10.568  1.00  0.00     0.191 C 
BRANCH  16  17
HETATM   17  O   UNL     1     -41.020 -45.067   9.876  1.00  0.00    -0.394 OA
HETATM   18  C   UNL     1     -39.941 -44.866  10.782  1.00  0.00     0.201 C 
ENDBRANCH  16  17
ENDBRANCH  14  16
ENDBRANCH  10  14
ENDBRANCH   1   8
BRANCH   4  19
HETATM   19  N   UNL     1     -39.126 -53.196  14.462  1.00  0.00    -0.367 N 
HETATM   20  C   UNL     1     -38.952 -52.820  15.862  1.00  0.00     0.124 C 
HETATM   21  C   UNL     1     -38.998 -54.143  16.632  1.00  0.00     0.021 C 
HETATM   22  C   UNL     1     -39.599 -55.145  15.657  1.00  0.00     0.021 C 
HETATM   23  C   UNL     1     -39.158 -54.637  14.293  1.00  0.00     0.124 C 
ENDBRANCH   4  19
TORSDOF 5
ENDMDL
MODEL 2
REMARK VINA RESULT:      -5.5      3.457      4.367
REMARK  5 active torsions:
REMARK  status: ('A' for Active; 'I' for Inactive)
REMARK    1  A    between atoms: O_2  and  C_3 
REMARK    2  A    between atoms: C_3  and  C_4 
REMARK    3  A    between atoms: C_4  and  N_6 
REMARK       I    between atoms: N_6  and  C_7 
REMARK       I    between atoms: C_7  and  N_9 
REMARK    4  A    between atoms: N_9  and  C_10 
REMARK    5  A    between atoms: C_13  and  N_17 
ROOT
HETATM    1  C   UNL     1     -39.626 -47.671  11.901  1.00  0.00     0.051 A 
HETATM    2  C   UNL     1     -38.772 -48.759  11.854  1.00  0.00     0.035 A 
HETATM    3  C   UNL     1     -38.000 -49.076  12.973  1.00  0.00     0.051 A 
HETATM    4  C   UNL     1     -38.137 -48.362  14.165  1.00  0.00     0.103 A 
HETATM    5  N   UNL     1     -38.986 -47.309  14.215  1.00  0.00    -0.350 N 
ATOM      6  HN  UNL     1     -39.100 -46.777  15.077  1.00  0.00     0.166 HD
HETATM    7  C   UNL     1     -39.687 -46.971  13.097  1.00  0.00     0.119 A 
ENDROOT
BRANCH   1   8
HETATM    8  N   UNL     1     -40.370 -47.345  10.748  1.00  0.00    -0.308 N 
HETATM    9  C   UNL     1     -41.564 -47.957  10.441  1.00  0.00     0.321 C 
HETATM   10  N   UNL     1     -42.137 -47.379   9.325  1.00  0.00    -0.337 N 
HETATM   11  O   UNL     1     -42.114 -48.829  11.104  1.00  0.00    -0.247 OA
HETATM   12  H   UNL     1     -41.472 -47.194   8.586  1.00  0.00     0.164 HD
HETATM   13  H   UNL     1     -40.326 -46.384  10.440  1.00  0.00     0.170 HD
BRANCH  10  14
HETATM   14  C   UNL     1     -43.493 -47.755   8.909  1.00  0.00     0.105 C 
HETATM   15  C   UNL     1     -43.518 -48.057   7.410  1.00  0.00     0.034 C 
BRANCH  14  16
HETATM   16  C   UNL     1     -44.515 -46.647   9.253  1.00  0.00     0.191 C 
BRANCH  16  17
HETATM   17  O   UNL     1     -45.681 -47.226   9.849  1.00  0.00    -0.394 OA
HETATM   18  C   UNL     1     -46.821 -47.085   9.010  1.00  0.00     0.201 C 
ENDBRANCH  16  17
ENDBRANCH  14  16
ENDBRANCH  10  14
ENDBRANCH   1   8
BRANCH   4  19
HETATM   19  N   UNL     1     -37.435 -48.699  15.296  1.00  0.00    -0.367 N 
HETATM   20  C   UNL     1     -36.766 -49.993  15.381  1.00  0.00     0.124 C 
HETATM   21  C   UNL     1     -35.704 -49.814  16.470  1.00  0.00     0.021 C 
HETATM   22  C   UNL     1     -35.573 -48.309  16.649  1.00  0.00     0.021 C 
HETATM   23  C   UNL     1     -36.958 -47.779  16.314  1.00  0.00     0.124 C 
ENDBRANCH   4  19
TORSDOF 5
ENDMDL
MODEL 3
REMARK VINA RESULT:      -5.4      3.111      8.278
REMARK  5 active torsions:
REMARK  status: ('A' for Active; 'I' for Inactive)
REMARK    1  A    between atoms: O_2  and  C_3 
REMARK    2  A    between atoms: C_3  and  C_4 
REMARK    3  A    between atoms: C_4  and  N_6 
REMARK       I    between atoms: N_6  and  C_7 
REMARK       I    between atoms: C_7  and  N_9 
REMARK    4  A    between atoms: N_9  and  C_10 
REMARK    5  A    between atoms: C_13  and  N_17 
ROOT
HETATM    1  C   UNL     1     -41.908 -48.215  11.291  1.00  0.00     0.051 A 
HETATM    2  C   UNL     1     -40.662 -47.612  11.276  1.00  0.00     0.035 A 
HETATM    3  C   UNL     1     -40.573 -46.219  11.259  1.00  0.00     0.051 A 
HETATM    4  C   UNL     1     -41.718 -45.426  11.340  1.00  0.00     0.103 A 
HETATM    5  N   UNL     1     -42.936 -46.017  11.373  1.00  0.00    -0.350 N 
ATOM      6  HN  UNL     1     -43.783 -45.454  11.433  1.00  0.00     0.166 HD
HETATM    7  C   UNL     1     -43.012 -47.377  11.325  1.00  0.00     0.119 A 
ENDROOT
BRANCH   1   8
HETATM    8  N   UNL     1     -41.977 -49.624  11.271  1.00  0.00    -0.308 N 
HETATM    9  C   UNL     1     -42.329 -50.364  12.377  1.00  0.00     0.321 C 
HETATM   10  N   UNL     1     -42.427 -51.704  12.058  1.00  0.00    -0.337 N 
HETATM   11  O   UNL     1     -42.617 -49.911  13.479  1.00  0.00    -0.247 OA
HETATM   12  H   UNL     1     -41.674 -52.028  11.466  1.00  0.00     0.164 HD
HETATM   13  H   UNL     1     -42.267 -50.048  10.401  1.00  0.00     0.170 HD
BRANCH  10  14
HETATM   14  C   UNL     1     -42.952 -52.662  13.038  1.00  0.00     0.105 C 
HETATM   15  C   UNL     1     -42.063 -53.906  13.084  1.00  0.00     0.034 C 
BRANCH  14  16
HETATM   16  C   UNL     1     -44.412 -53.053  12.717  1.00  0.00     0.191 C 
BRANCH  16  17
HETATM   17  O   UNL     1     -44.547 -54.478  12.719  1.00  0.00    -0.394 OA
HETATM   18  C   UNL     1     -45.446 -54.916  13.730  1.00  0.00     0.201 C 
ENDBRANCH  16  17
ENDBRANCH  14  16
ENDBRANCH  10  14
ENDBRANCH   1   8
BRANCH   4  19
HETATM   19  N   UNL     1     -41.649 -44.055  11.391  1.00  0.00    -0.367 N 
HETATM   20  C   UNL     1     -42.675 -43.299  12.102  1.00  0.00     0.124 C 
HETATM   21  C   UNL     1     -42.027 -41.944  12.400  1.00  0.00     0.021 C 
HETATM   22  C   UNL     1     -40.537 -42.166  12.193  1.00  0.00     0.021 C 
HETATM   23  C   UNL     1     -40.474 -43.246  11.124  1.00  0.00     0.124 C 
ENDBRANCH   4  19
TORSDOF 5
ENDMDL
MODEL 4
REMARK VINA RESULT:      -5.3      2.707      3.424
REMARK  5 active torsions:
REMARK  status: ('A' for Active; 'I' for Inactive)
REMARK    1  A    between atoms: O_2  and  C_3 
REMARK    2  A    between atoms: C_3  and  C_4 
REMARK    3  A    between atoms: C_4  and  N_6 
REMARK       I    between atoms: N_6  and  C_7 
REMARK       I    between atoms: C_7  and  N_9 
REMARK    4  A    between atoms: N_9  and  C_10 
REMARK    5  A    between atoms: C_13  and  N_17 
ROOT
HETATM    1  C   UNL     1     -41.134 -49.978  12.114  1.00  0.00     0.051 A 
HETATM    2  C   UNL     1     -42.041 -49.968  13.160  1.00  0.00     0.035 A 
HETATM    3  C   UNL     1     -42.791 -51.115  13.430  1.00  0.00     0.051 A 
HETATM    4  C   UNL     1     -42.579 -52.294  12.715  1.00  0.00     0.103 A 
HETATM    5  N   UNL     1     -41.679 -52.307  11.704  1.00  0.00    -0.350 N 
ATOM      6  HN  UNL     1     -41.512 -53.161  11.172  1.00  0.00     0.166 HD
HETATM    7  C   UNL     1     -41.000 -51.164  11.409  1.00  0.00     0.119 A 
ENDROOT
BRANCH   1   8
HETATM    8  N   UNL     1     -40.414 -48.798  11.834  1.00  0.00    -0.308 N 
HETATM    9  C   UNL     1     -40.898 -47.814  11.002  1.00  0.00     0.321 C 
HETATM   10  N   UNL     1     -40.051 -46.724  10.987  1.00  0.00    -0.337 N 
HETATM   11  O   UNL     1     -41.976 -47.837  10.418  1.00  0.00    -0.247 OA
HETATM   12  H   UNL     1     -39.074 -46.979  10.935  1.00  0.00     0.164 HD
HETATM   13  H   UNL     1     -39.834 -48.436  12.579  1.00  0.00     0.170 HD
BRANCH  10  14
HETATM   14  C   UNL     1     -40.446 -45.488  10.301  1.00  0.00     0.105 C 
HETATM   15  C   UNL     1     -39.224 -44.834   9.654  1.00  0.00     0.034 C 
BRANCH  14  16
HETATM   16  C   UNL     1     -41.137 -44.502  11.270  1.00  0.00     0.191 C 
BRANCH  16  17
HETATM   17  O   UNL     1     -41.298 -43.228  10.638  1.00  0.00    -0.394 OA
HETATM   18  C   UNL     1     -41.009 -42.161  11.533  1.00  0.00     0.201 C 
ENDBRANCH  16  17
ENDBRANCH  14  16
ENDBRANCH  10  14
ENDBRANCH   1   8
BRANCH   4  19
HETATM   19  N   UNL     1     -43.259 -53.451  13.008  1.00  0.00    -0.367 N 
HETATM   20  C   UNL     1     -42.874 -54.250  14.167  1.00  0.00     0.124 C 
HETATM   21  C   UNL     1     -44.106 -55.103  14.482  1.00  0.00     0.021 C 
HETATM   22  C   UNL     1     -45.248 -54.440  13.728  1.00  0.00     0.021 C 
HETATM   23  C   UNL     1     -44.573 -53.821  12.513  1.00  0.00     0.124 C 
ENDBRANCH   4  19
TORSDOF 5
ENDMDL
MODEL 5
REMARK VINA RESULT:      -5.1      3.466      9.272
REMARK  5 active torsions:
REMARK  status: ('A' for Active; 'I' for Inactive)
REMARK    1  A    between atoms: O_2  and  C_3 
REMARK    2  A    between atoms: C_3  and  C_4 
REMARK    3  A    between atoms: C_4  and  N_6 
REMARK       I    between atoms: N_6  and  C_7 
REMARK       I    between atoms: C_7  and  N_9 
REMARK    4  A    between atoms: N_9  and  C_10 
REMARK    5  A    between atoms: C_13  and  N_17 
ROOT
HETATM    1  C   UNL     1     -40.869 -45.338  10.956  1.00  0.00     0.051 A 
HETATM    2  C   UNL     1     -40.091 -44.197  10.856  1.00  0.00     0.035 A 
HETATM    3  C   UNL     1     -40.679 -42.945  11.050  1.00  0.00     0.051 A 
HETATM    4  C   UNL     1     -42.018 -42.832  11.425  1.00  0.00     0.103 A 
HETATM    5  N   UNL     1     -42.773 -43.949  11.540  1.00  0.00    -0.350 N 
ATOM      6  HN  UNL     1     -43.753 -43.886  11.813  1.00  0.00     0.166 HD
HETATM    7  C   UNL     1     -42.204 -45.161  11.286  1.00  0.00     0.119 A 
ENDROOT
BRANCH   1   8
HETATM    8  N   UNL     1     -40.265 -46.590  10.720  1.00  0.00    -0.308 N 
HETATM    9  C   UNL     1     -39.621 -47.299  11.709  1.00  0.00     0.321 C 
HETATM   10  N   UNL     1     -39.218 -48.535  11.242  1.00  0.00    -0.337 N 
HETATM   11  O   UNL     1     -39.494 -46.947  12.876  1.00  0.00    -0.247 OA
HETATM   12  H   UNL     1     -38.814 -48.498  10.316  1.00  0.00     0.164 HD
HETATM   13  H   UNL     1     -40.710 -47.183  10.033  1.00  0.00     0.170 HD
BRANCH  10  14
HETATM   14  C   UNL     1     -38.660 -49.530  12.165  1.00  0.00     0.105 C 
HETATM   15  C   UNL     1     -37.574 -50.346  11.462  1.00  0.00     0.034 C 
BRANCH  14  16
HETATM   16  C   UNL     1     -39.760 -50.461  12.722  1.00  0.00     0.191 C 
BRANCH  16  17
HETATM   17  O   UNL     1     -39.522 -51.807  12.297  1.00  0.00    -0.394 OA
HETATM   18  C   UNL     1     -40.710 -52.588  12.348  1.00  0.00     0.201 C 
ENDBRANCH  16  17
ENDBRANCH  14  16
ENDBRANCH  10  14
ENDBRANCH   1   8
BRANCH   4  19
HETATM   19  N   UNL     1     -42.597 -41.614  11.684  1.00  0.00    -0.367 N 
HETATM   20  C   UNL     1     -42.078 -40.409  11.046  1.00  0.00     0.124 C 
HETATM   21  C   UNL     1     -43.225 -39.397  11.126  1.00  0.00     0.021 C 
HETATM   22  C   UNL     1     -44.459 -40.226  11.445  1.00  0.00     0.021 C 
HETATM   23  C   UNL     1     -43.916 -41.396  12.251  1.00  0.00     0.124 C 
ENDBRANCH   4  19
TORSDOF 5
ENDMDL
MODEL 6
REMARK VINA RESULT:      -4.9      2.479      3.552
REMARK  5 active torsions:
REMARK  status: ('A' for Active; 'I' for Inactive)
REMARK    1  A    between atoms: O_2  and  C_3 
REMARK    2  A    between atoms: C_3  and  C_4 
REMARK    3  A    between atoms: C_4  and  N_6 
REMARK       I    between atoms: N_6  and  C_7 
REMARK       I    between atoms: C_7  and  N_9 
REMARK    4  A    between atoms: N_9  and  C_10 
REMARK    5  A    between atoms: C_13  and  N_17 
ROOT
HETATM    1  C   UNL     1     -42.858 -48.269  12.253  1.00  0.00     0.051 A 
HETATM    2  C   UNL     1     -43.405 -49.013  13.284  1.00  0.00     0.035 A 
HETATM    3  C   UNL     1     -43.121 -50.377  13.373  1.00  0.00     0.051 A 
HETATM    4  C   UNL     1     -42.228 -50.982  12.488  1.00  0.00     0.103 A 
HETATM    5  N   UNL     1     -41.680 -50.250  11.491  1.00  0.00    -0.350 N 
ATOM      6  HN  UNL     1     -41.025 -50.676  10.835  1.00  0.00     0.166 HD
HETATM    7  C   UNL     1     -42.015 -48.934  11.376  1.00  0.00     0.119 A 
ENDROOT
BRANCH   1   8
HETATM    8  N   UNL     1     -43.188 -46.901  12.159  1.00  0.00    -0.308 N 
HETATM    9  C   UNL     1     -42.361 -45.906  12.632  1.00  0.00     0.321 C 
HETATM   10  N   UNL     1     -42.866 -44.660  12.316  1.00  0.00    -0.337 N 
HETATM   11  O   UNL     1     -41.276 -46.075  13.175  1.00  0.00    -0.247 OA
HETATM   12  H   UNL     1     -43.864 -44.585  12.462  1.00  0.00     0.164 HD
HETATM   13  H   UNL     1     -43.721 -46.620  11.348  1.00  0.00     0.170 HD
BRANCH  10  14
HETATM   14  C   UNL     1     -42.071 -43.453  12.572  1.00  0.00     0.105 C 
HETATM   15  C   UNL     1     -42.981 -42.316  13.041  1.00  0.00     0.034 C 
BRANCH  14  16
HETATM   16  C   UNL     1     -41.276 -43.025  11.317  1.00  0.00     0.191 C 
BRANCH  16  17
HETATM   17  O   UNL     1     -39.960 -43.586  11.359  1.00  0.00    -0.394 OA
HETATM   18  C   UNL     1     -39.777 -44.564  10.342  1.00  0.00     0.201 C 
ENDBRANCH  16  17
ENDBRANCH  14  16
ENDBRANCH  10  14
ENDBRANCH   1   8
BRANCH   4  19
HETATM   19  N   UNL     1     -41.884 -52.307  12.599  1.00  0.00    -0.367 N 
HETATM   20  C   UNL     1     -40.487 -52.685  12.786  1.00  0.00     0.124 C 
HETATM   21  C   UNL     1     -40.539 -54.096  13.380  1.00  0.00     0.021 C 
HETATM   22  C   UNL     1     -41.970 -54.266  13.866  1.00  0.00     0.021 C 
HETATM   23  C   UNL     1     -42.784 -53.402  12.916  1.00  0.00     0.124 C 
ENDBRANCH   4  19
TORSDOF 5
ENDMDL
MODEL 7
REMARK VINA RESULT:      -4.8     15.288     18.229
REMARK  5 active torsions:
REMARK  status: ('A' for Active; 'I' for Inactive)
REMARK    1  A    between atoms: O_2  and  C_3 
REMARK    2  A    between atoms: C_3  and  C_4 
REMARK    3  A    between atoms: C_4  and  N_6 
REMARK       I    between atoms: N_6  and  C_7 
REMARK       I    between atoms: C_7  and  N_9 
REMARK    4  A    between atoms: N_9  and  C_10 
REMARK    5  A    between atoms: C_13  and  N_17 
ROOT
HETATM    1  C   UNL     1     -51.046 -53.089  -1.022  1.00  0.00     0.051 A 
HETATM    2  C   UNL     1     -52.280 -53.634  -0.714  1.00  0.00     0.035 A 
HETATM    3  C   UNL     1     -52.847 -54.581  -1.569  1.00  0.00     0.051 A 
HETATM    4  C   UNL     1     -52.150 -55.046  -2.685  1.00  0.00     0.103 A 
HETATM    5  N   UNL     1     -50.935 -54.525  -2.975  1.00  0.00    -0.350 N 
ATOM      6  HN  UNL     1     -50.412 -54.854  -3.787  1.00  0.00     0.166 HD
HETATM    7  C   UNL     1     -50.421 -53.556  -2.168  1.00  0.00     0.119 A 
ENDROOT
BRANCH   1   8
HETATM    8  N   UNL     1     -50.508 -52.106  -0.165  1.00  0.00    -0.308 N 
HETATM    9  C   UNL     1     -50.655 -50.758  -0.400  1.00  0.00     0.321 C 
HETATM   10  N   UNL     1     -50.133 -50.019   0.644  1.00  0.00    -0.337 N 
HETATM   11  O   UNL     1     -51.247 -50.257  -1.349  1.00  0.00    -0.247 OA
HETATM   12  H   UNL     1     -49.244 -50.370   0.975  1.00  0.00     0.164 HD
HETATM   13  H   UNL     1     -50.476 -52.335   0.819  1.00  0.00     0.170 HD
BRANCH  10  14
HETATM   14  C   UNL     1     -50.325 -48.565   0.691  1.00  0.00     0.105 C 
HETATM   15  C   UNL     1     -49.039 -47.881   1.157  1.00  0.00     0.034 C 
BRANCH  14  16
HETATM   16  C   UNL     1     -51.505 -48.182   1.613  1.00  0.00     0.191 C 
BRANCH  16  17
HETATM   17  O   UNL     1     -51.171 -47.018   2.376  1.00  0.00    -0.394 OA
HETATM   18  C   UNL     1     -52.158 -46.003   2.238  1.00  0.00     0.201 C 
ENDBRANCH  16  17
ENDBRANCH  14  16
ENDBRANCH  10  14
ENDBRANCH   1   8
BRANCH   4  19
HETATM   19  N   UNL     1     -52.661 -56.025  -3.502  1.00  0.00    -0.367 N 
HETATM   20  C   UNL     1     -51.785 -56.729  -4.433  1.00  0.00     0.124 C 
HETATM   21  C   UNL     1     -52.524 -58.030  -4.759  1.00  0.00     0.021 C 
HETATM   22  C   UNL     1     -53.587 -58.161  -3.678  1.00  0.00     0.021 C 
HETATM   23  C   UNL     1     -53.922 -56.721  -3.320  1.00  0.00     0.124 C 
ENDBRANCH   4  19
TORSDOF 5
ENDMDL
MODEL 8
REMARK VINA RESULT:      -4.7      3.948      6.276
REMARK  5 active torsions:
REMARK  status: ('A' for Active; 'I' for Inactive)
REMARK    1  A    between atoms: O_2  and  C_3 
REMARK    2  A    between atoms: C_3  and  C_4 
REMARK    3  A    between atoms: C_4  and  N_6 
REMARK       I    between atoms: N_6  and  C_7 
REMARK       I    between atoms: C_7  and  N_9 
REMARK    4  A    between atoms: N_9  and  C_10 
REMARK    5  A    between atoms: C_13  and  N_17 
ROOT
HETATM    1  C   UNL     1     -40.142 -44.211  11.445  1.00  0.00     0.051 A 
HETATM    2  C   UNL     1     -40.261 -44.847  12.669  1.00  0.00     0.035 A 
HETATM    3  C   UNL     1     -40.218 -46.242  12.726  1.00  0.00     0.051 A 
HETATM    4  C   UNL     1     -39.973 -46.998  11.579  1.00  0.00     0.103 A 
HETATM    5  N   UNL     1     -39.838 -46.374  10.386  1.00  0.00    -0.350 N 
ATOM      6  HN  UNL     1     -39.658 -46.911   9.538  1.00  0.00     0.166 HD
HETATM    7  C   UNL     1     -39.946 -45.017  10.334  1.00  0.00     0.119 A 
ENDROOT
BRANCH   1   8
HETATM    8  N   UNL     1     -40.226 -42.804  11.405  1.00  0.00    -0.308 N 
HETATM    9  C   UNL     1     -41.376 -42.141  11.040  1.00  0.00     0.321 C 
HETATM   10  N   UNL     1     -41.223 -40.777  11.192  1.00  0.00    -0.337 N 
HETATM   11  O   UNL     1     -42.434 -42.668  10.715  1.00  0.00    -0.247 OA
HETATM   12  H   UNL     1     -40.330 -40.436  10.862  1.00  0.00     0.164 HD
HETATM   13  H   UNL     1     -39.678 -42.300  12.089  1.00  0.00     0.170 HD
BRANCH  10  14
HETATM   14  C   UNL     1     -42.372 -39.879  11.023  1.00  0.00     0.105 C 
HETATM   15  C   UNL     1     -41.955 -38.633  10.242  1.00  0.00     0.034 C 
BRANCH  14  16
HETATM   16  C   UNL     1     -42.982 -39.482  12.387  1.00  0.00     0.191 C 
BRANCH  16  17
HETATM   17  O   UNL     1     -44.106 -40.318  12.681  1.00  0.00    -0.394 OA
HETATM   18  C   UNL     1     -45.018 -40.370  11.590  1.00  0.00     0.201 C 
ENDBRANCH  16  17
ENDBRANCH  14  16
ENDBRANCH  10  14
ENDBRANCH   1   8
BRANCH   4  19
HETATM   19  N   UNL     1     -39.861 -48.366  11.624  1.00  0.00    -0.367 N 
HETATM   20  C   UNL     1     -38.918 -48.991  12.546  1.00  0.00     0.124 C 
HETATM   21  C   UNL     1     -39.421 -50.428  12.708  1.00  0.00     0.021 C 
HETATM   22  C   UNL     1     -40.848 -50.407  12.182  1.00  0.00     0.021 C 
HETATM   23  C   UNL     1     -40.828 -49.322  11.116  1.00  0.00     0.124 C 
ENDBRANCH   4  19
TORSDOF 5
ENDMDL
MODEL 9
REMARK VINA RESULT:      -4.6      1.770      2.261
REMARK  5 active torsions:
REMARK  status: ('A' for Active; 'I' for Inactive)
REMARK    1  A    between atoms: O_2  and  C_3 
REMARK    2  A    between atoms: C_3  and  C_4 
REMARK    3  A    between atoms: C_4  and  N_6 
REMARK       I    between atoms: N_6  and  C_7 
REMARK       I    between atoms: C_7  and  N_9 
REMARK    4  A    between atoms: N_9  and  C_10 
REMARK    5  A    between atoms: C_13  and  N_17 
ROOT
HETATM    1  C   UNL     1     -41.514 -51.847  12.926  1.00  0.00     0.051 A 
HETATM    2  C   UNL     1     -40.238 -51.983  13.444  1.00  0.00     0.035 A 
HETATM    3  C   UNL     1     -40.017 -52.861  14.507  1.00  0.00     0.051 A 
HETATM    4  C   UNL     1     -41.047 -53.663  15.000  1.00  0.00     0.103 A 
HETATM    5  N   UNL     1     -42.291 -53.542  14.481  1.00  0.00    -0.350 N 
ATOM      6  HN  UNL     1     -43.055 -54.121  14.828  1.00  0.00     0.166 HD
HETATM    7  C   UNL     1     -42.507 -52.636  13.487  1.00  0.00     0.119 A 
ENDROOT
BRANCH   1   8
HETATM    8  N   UNL     1     -41.723 -50.928  11.877  1.00  0.00    -0.308 N 
HETATM    9  C   UNL     1     -42.299 -49.693  12.078  1.00  0.00     0.321 C 
HETATM   10  N   UNL     1     -42.284 -48.951  10.914  1.00  0.00    -0.337 N 
HETATM   11  O   UNL     1     -42.690 -49.253  13.153  1.00  0.00    -0.247 OA
HETATM   12  H   UNL     1     -42.538 -49.488  10.096  1.00  0.00     0.164 HD
HETATM   13  H   UNL     1     -41.038 -50.929  11.134  1.00  0.00     0.170 HD
BRANCH  10  14
HETATM   14  C   UNL     1     -42.694 -47.542  10.929  1.00  0.00     0.105 C 
HETATM   15  C   UNL     1     -43.863 -47.325   9.967  1.00  0.00     0.034 C 
BRANCH  14  16
HETATM   16  C   UNL     1     -41.516 -46.609  10.565  1.00  0.00     0.191 C 
BRANCH  16  17
HETATM   17  O   UNL     1     -42.015 -45.350  10.103  1.00  0.00    -0.394 OA
HETATM   18  C   UNL     1     -41.971 -44.364  11.127  1.00  0.00     0.201 C 
ENDBRANCH  16  17
ENDBRANCH  14  16
ENDBRANCH  10  14
ENDBRANCH   1   8
BRANCH   4  19
HETATM   19  N   UNL     1     -40.836 -54.580  16.000  1.00  0.00    -0.367 N 
HETATM   20  C   UNL     1     -41.843 -55.598  16.282  1.00  0.00     0.124 C 
HETATM   21  C   UNL     1     -41.088 -56.702  17.027  1.00  0.00     0.021 C 
HETATM   22  C   UNL     1     -39.617 -56.419  16.764  1.00  0.00     0.021 C 
HETATM   23  C   UNL     1     -39.558 -54.907  16.607  1.00  0.00     0.124 C 
ENDBRANCH   4  19
TORSDOF 5
ENDMDL
