MODEL 1
REMARK VINA RESULT:      -6.1      0.000      0.000
REMARK  4 active torsions:
REMARK  status: ('A' for Active; 'I' for Inactive)
REMARK    1  A    between atoms: C_2  and  C_3 
REMARK    2  A    between atoms: C_2  and  N_10 
REMARK    3  A    between atoms: C_3  and  N_4 
REMARK       I    between atoms: N_10  and  C_11 
REMARK       I    between atoms: C_11  and  N_13 
REMARK    4  A    between atoms: C_17  and  N_19 
REMARK       I    between atoms: N_19  and  C_20 
ROOT
HETATM    1  N   UNL     1     -41.582 -47.405  11.046  1.00  0.00    -0.337 N 
HETATM    2  C   UNL     1     -41.642 -48.561  11.780  1.00  0.00     0.318 C 
HETATM    3  O   UNL     1     -42.704 -49.147  11.968  1.00  0.00    -0.247 OA
HETATM    4  N   UNL     1     -40.428 -49.009  12.269  1.00  0.00    -0.332 N 
HETATM    5  C   UNL     1     -39.110 -48.465  11.938  1.00  0.00     0.127 C 
HETATM    6  C   UNL     1     -38.167 -49.571  11.470  1.00  0.00     0.022 C 
HETATM    7  C   UNL     1     -38.062 -50.686  12.506  1.00  0.00     0.028 C 
HETATM    8  C   UNL     1     -39.452 -51.227  12.878  1.00  0.00     0.102 C 
HETATM    9  C   UNL     1     -40.417 -50.086  13.265  1.00  0.00     0.152 C 
HETATM   10  H   UNL     1     -40.879 -46.755  11.361  1.00  0.00     0.164 HD
ENDROOT
BRANCH   1  11
HETATM   11  C   UNL     1     -42.790 -46.805  10.458  1.00  0.00     0.102 C 
HETATM   12  C   UNL     1     -42.641 -45.281  10.479  1.00  0.00     0.034 C 
BRANCH  11  13
HETATM   13  C   UNL     1     -43.032 -47.349   9.038  1.00  0.00     0.172 C 
BRANCH  13  14
HETATM   14  N   UNL     1     -44.412 -47.720   8.786  1.00  0.00    -0.302 N 
HETATM   15  C   UNL     1     -45.481 -47.518   9.613  1.00  0.00     0.111 A 
HETATM   16  C   UNL     1     -46.569 -48.057   8.968  1.00  0.00     0.037 A 
HETATM   17  C   UNL     1     -46.055 -48.569   7.765  1.00  0.00     0.108 A 
HETATM   18  N   UNL     1     -44.738 -48.373   7.652  1.00  0.00    -0.310 N 
ATOM     19  HN  UNL     1     -44.124 -48.652   6.887  1.00  0.00     0.186 HD
ENDBRANCH  13  14
ENDBRANCH  11  13
ENDBRANCH   1  11
BRANCH   8  20
HETATM   20  N   UNL     1     -39.364 -52.287  13.883  1.00  0.00    -0.355 N 
HETATM   21  C   UNL     1     -39.882 -53.549  13.705  1.00  0.00     0.213 C 
HETATM   22  O   UNL     1     -40.445 -53.919  12.680  1.00  0.00    -0.274 OA
HETATM   23  C   UNL     1     -39.702 -54.470  14.881  1.00  0.00     0.117 C 
HETATM   24  H   UNL     1     -38.931 -52.056  14.766  1.00  0.00     0.162 HD
ENDBRANCH   8  20
TORSDOF 4
ENDMDL
MODEL 2
REMARK VINA RESULT:      -6.1      2.804      3.346
REMARK  4 active torsions:
REMARK  status: ('A' for Active; 'I' for Inactive)
REMARK    1  A    between atoms: C_2  and  C_3 
REMARK    2  A    between atoms: C_2  and  N_10 
REMARK    3  A    between atoms: C_3  and  N_4 
REMARK       I    between atoms: N_10  and  C_11 
REMARK       I    between atoms: C_11  and  N_13 
REMARK    4  A    between atoms: C_17  and  N_19 
REMARK       I    between atoms: N_19  and  C_20 
ROOT
HETATM    1  N   UNL     1     -41.475 -48.581  12.402  1.00  0.00    -0.337 N 
HETATM    2  C   UNL     1     -42.435 -49.526  12.657  1.00  0.00     0.318 C 
HETATM    3  O   UNL     1     -43.630 -49.284  12.508  1.00  0.00    -0.247 OA
HETATM    4  N   UNL     1     -41.955 -50.754  13.075  1.00  0.00    -0.332 N 
HETATM    5  C   UNL     1     -40.550 -51.167  13.104  1.00  0.00     0.127 C 
HETATM    6  C   UNL     1     -40.358 -52.491  12.369  1.00  0.00     0.022 C 
HETATM    7  C   UNL     1     -41.268 -53.578  12.935  1.00  0.00     0.028 C 
HETATM    8  C   UNL     1     -42.736 -53.124  12.938  1.00  0.00     0.102 C 
HETATM    9  C   UNL     1     -42.898 -51.742  13.609  1.00  0.00     0.152 C 
HETATM   10  H   UNL     1     -40.668 -48.644  13.003  1.00  0.00     0.164 HD
ENDROOT
BRANCH   1  11
HETATM   11  C   UNL     1     -41.830 -47.229  11.947  1.00  0.00     0.102 C 
HETATM   12  C   UNL     1     -40.885 -46.224  12.612  1.00  0.00     0.034 C 
BRANCH  11  13
HETATM   13  C   UNL     1     -41.790 -47.142  10.411  1.00  0.00     0.172 C 
BRANCH  13  14
HETATM   14  N   UNL     1     -43.082 -47.348   9.782  1.00  0.00    -0.302 N 
HETATM   15  C   UNL     1     -43.316 -47.690   8.480  1.00  0.00     0.111 A 
HETATM   16  C   UNL     1     -44.683 -47.744   8.340  1.00  0.00     0.037 A 
HETATM   17  C   UNL     1     -45.186 -47.409   9.609  1.00  0.00     0.108 A 
HETATM   18  N   UNL     1     -44.213 -47.159  10.490  1.00  0.00    -0.310 N 
ATOM     19  HN  UNL     1     -44.305 -46.888  11.469  1.00  0.00     0.186 HD
ENDBRANCH  13  14
ENDBRANCH  11  13
ENDBRANCH   1  11
BRANCH   8  20
HETATM   20  N   UNL     1     -43.615 -54.152  13.495  1.00  0.00    -0.355 N 
HETATM   21  C   UNL     1     -44.952 -54.257  13.188  1.00  0.00     0.213 C 
HETATM   22  O   UNL     1     -45.533 -53.517  12.402  1.00  0.00    -0.274 OA
HETATM   23  C   UNL     1     -45.671 -55.373  13.898  1.00  0.00     0.117 C 
HETATM   24  H   UNL     1     -43.216 -54.791  14.169  1.00  0.00     0.162 HD
ENDBRANCH   8  20
TORSDOF 4
ENDMDL
MODEL 3
REMARK VINA RESULT:      -5.9      2.532      6.911
REMARK  4 active torsions:
REMARK  status: ('A' for Active; 'I' for Inactive)
REMARK    1  A    between atoms: C_2  and  C_3 
REMARK    2  A    between atoms: C_2  and  N_10 
REMARK    3  A    between atoms: C_3  and  N_4 
REMARK       I    between atoms: N_10  and  C_11 
REMARK       I    between atoms: C_11  and  N_13 
REMARK    4  A    between atoms: C_17  and  N_19 
REMARK       I    between atoms: N_19  and  C_20 
ROOT
HETATM    1  N   UNL     1     -40.074 -52.395  13.262  1.00  0.00    -0.337 N 
HETATM    2  C   UNL     1     -40.786 -51.693  12.325  1.00  0.00     0.318 C 
HETATM    3  O   UNL     1     -41.820 -52.141  11.837  1.00  0.00    -0.247 OA
HETATM    4  N   UNL     1     -40.262 -50.457  11.993  1.00  0.00    -0.332 N 
HETATM    5  C   UNL     1     -39.143 -49.787  12.659  1.00  0.00     0.127 C 
HETATM    6  C   UNL     1     -39.528 -48.370  13.075  1.00  0.00     0.022 C 
HETATM    7  C   UNL     1     -40.031 -47.559  11.885  1.00  0.00     0.028 C 
HETATM    8  C   UNL     1     -41.181 -48.285  11.167  1.00  0.00     0.102 C 
HETATM    9  C   UNL     1     -40.803 -49.744  10.831  1.00  0.00     0.152 C 
HETATM   10  H   UNL     1     -39.077 -52.253  13.211  1.00  0.00     0.164 HD
ENDROOT
BRANCH   1  11
HETATM   11  C   UNL     1     -40.507 -53.724  13.720  1.00  0.00     0.102 C 
HETATM   12  C   UNL     1     -39.267 -54.588  13.963  1.00  0.00     0.034 C 
BRANCH  11  13
HETATM   13  C   UNL     1     -41.393 -53.606  14.974  1.00  0.00     0.172 C 
BRANCH  13  14
HETATM   14  N   UNL     1     -42.795 -53.888  14.723  1.00  0.00    -0.302 N 
HETATM   15  C   UNL     1     -43.801 -53.931  15.647  1.00  0.00     0.111 A 
HETATM   16  C   UNL     1     -44.942 -54.260  14.952  1.00  0.00     0.037 A 
HETATM   17  C   UNL     1     -44.520 -54.405  13.620  1.00  0.00     0.108 A 
HETATM   18  N   UNL     1     -43.210 -54.186  13.476  1.00  0.00    -0.310 N 
ATOM     19  HN  UNL     1     -42.654 -54.234  12.622  1.00  0.00     0.186 HD
ENDBRANCH  13  14
ENDBRANCH  11  13
ENDBRANCH   1  11
BRANCH   8  20
HETATM   20  N   UNL     1     -41.660 -47.523  10.014  1.00  0.00    -0.355 N 
HETATM   21  C   UNL     1     -42.991 -47.280   9.763  1.00  0.00     0.213 C 
HETATM   22  O   UNL     1     -43.903 -47.654  10.492  1.00  0.00    -0.274 OA
HETATM   23  C   UNL     1     -43.257 -46.499   8.505  1.00  0.00     0.117 C 
HETATM   24  H   UNL     1     -40.969 -47.195   9.353  1.00  0.00     0.162 HD
ENDBRANCH   8  20
TORSDOF 4
ENDMDL
MODEL 4
REMARK VINA RESULT:      -5.8      2.791      4.764
REMARK  4 active torsions:
REMARK  status: ('A' for Active; 'I' for Inactive)
REMARK    1  A    between atoms: C_2  and  C_3 
REMARK    2  A    between atoms: C_2  and  N_10 
REMARK    3  A    between atoms: C_3  and  N_4 
REMARK       I    between atoms: N_10  and  C_11 
REMARK       I    between atoms: C_11  and  N_13 
REMARK    4  A    between atoms: C_17  and  N_19 
REMARK       I    between atoms: N_19  and  C_20 
ROOT
HETATM    1  N   UNL     1     -39.447 -49.968  13.777  1.00  0.00    -0.337 N 
HETATM    2  C   UNL     1     -40.740 -50.404  13.911  1.00  0.00     0.318 C 
HETATM    3  O   UNL     1     -41.693 -49.670  13.662  1.00  0.00    -0.247 OA
HETATM    4  N   UNL     1     -40.878 -51.716  14.326  1.00  0.00    -0.332 N 
HETATM    5  C   UNL     1     -39.798 -52.695  14.467  1.00  0.00     0.127 C 
HETATM    6  C   UNL     1     -40.124 -53.977  13.707  1.00  0.00     0.022 C 
HETATM    7  C   UNL     1     -41.464 -54.560  14.149  1.00  0.00     0.028 C 
HETATM    8  C   UNL     1     -42.586 -53.516  14.035  1.00  0.00     0.102 C 
HETATM    9  C   UNL     1     -42.202 -52.195  14.737  1.00  0.00     0.152 C 
HETATM   10  H   UNL     1     -38.808 -50.370  14.446  1.00  0.00     0.164 HD
ENDROOT
BRANCH   1  11
HETATM   11  C   UNL     1     -39.138 -48.598  13.340  1.00  0.00     0.102 C 
HETATM   12  C   UNL     1     -37.845 -48.145  14.023  1.00  0.00     0.034 C 
BRANCH  11  13
HETATM   13  C   UNL     1     -39.047 -48.523  11.805  1.00  0.00     0.172 C 
BRANCH  13  14
HETATM   14  N   UNL     1     -40.239 -47.984  11.178  1.00  0.00    -0.302 N 
HETATM   15  C   UNL     1     -40.614 -46.671  11.120  1.00  0.00     0.111 A 
HETATM   16  C   UNL     1     -41.818 -46.648  10.456  1.00  0.00     0.037 A 
HETATM   17  C   UNL     1     -42.092 -47.995  10.163  1.00  0.00     0.108 A 
HETATM   18  N   UNL     1     -41.135 -48.815  10.608  1.00  0.00    -0.310 N 
ATOM     19  HN  UNL     1     -41.093 -49.831  10.534  1.00  0.00     0.186 HD
ENDBRANCH  13  14
ENDBRANCH  11  13
ENDBRANCH   1  11
BRANCH   8  20
HETATM   20  N   UNL     1     -43.872 -54.060  14.473  1.00  0.00    -0.355 N 
HETATM   21  C   UNL     1     -44.896 -54.377  13.611  1.00  0.00     0.213 C 
HETATM   22  O   UNL     1     -44.826 -54.259  12.393  1.00  0.00    -0.274 OA
HETATM   23  C   UNL     1     -46.139 -54.896  14.282  1.00  0.00     0.117 C 
HETATM   24  H   UNL     1     -44.017 -54.169  15.467  1.00  0.00     0.162 HD
ENDBRANCH   8  20
TORSDOF 4
ENDMDL
MODEL 5
REMARK VINA RESULT:      -5.6      9.187     11.650
REMARK  4 active torsions:
REMARK  status: ('A' for Active; 'I' for Inactive)
REMARK    1  A    between atoms: C_2  and  C_3 
REMARK    2  A    between atoms: C_2  and  N_10 
REMARK    3  A    between atoms: C_3  and  N_4 
REMARK       I    between atoms: N_10  and  C_11 
REMARK       I    between atoms: C_11  and  N_13 
REMARK    4  A    between atoms: C_17  and  N_19 
REMARK       I    between atoms: N_19  and  C_20 
ROOT
HETATM    1  N   UNL     1     -47.395 -53.629  19.999  1.00  0.00    -0.337 N 
HETATM    2  C   UNL     1     -46.725 -54.004  18.864  1.00  0.00     0.318 C 
HETATM    3  O   UNL     1     -46.359 -55.163  18.688  1.00  0.00    -0.247 OA
HETATM    4  N   UNL     1     -46.513 -52.992  17.945  1.00  0.00    -0.332 N 
HETATM    5  C   UNL     1     -47.072 -51.640  18.006  1.00  0.00     0.127 C 
HETATM    6  C   UNL     1     -47.776 -51.284  16.699  1.00  0.00     0.022 C 
HETATM    7  C   UNL     1     -46.840 -51.444  15.503  1.00  0.00     0.028 C 
HETATM    8  C   UNL     1     -46.227 -52.853  15.467  1.00  0.00     0.102 C 
HETATM    9  C   UNL     1     -45.595 -53.229  16.826  1.00  0.00     0.152 C 
HETATM   10  H   UNL     1     -47.194 -52.688  20.302  1.00  0.00     0.164 HD
ENDROOT
BRANCH   1  11
HETATM   11  C   UNL     1     -47.699 -54.594  21.067  1.00  0.00     0.102 C 
HETATM   12  C   UNL     1     -47.278 -53.989  22.409  1.00  0.00     0.034 C 
BRANCH  11  13
HETATM   13  C   UNL     1     -49.188 -54.984  21.041  1.00  0.00     0.172 C 
BRANCH  13  14
HETATM   14  N   UNL     1     -49.431 -56.314  20.514  1.00  0.00    -0.302 N 
HETATM   15  C   UNL     1     -50.622 -56.985  20.496  1.00  0.00     0.111 A 
HETATM   16  C   UNL     1     -50.360 -58.210  19.930  1.00  0.00     0.037 A 
HETATM   17  C   UNL     1     -48.983 -58.189  19.650  1.00  0.00     0.108 A 
HETATM   18  N   UNL     1     -48.410 -57.037  20.012  1.00  0.00    -0.310 N 
ATOM     19  HN  UNL     1     -47.430 -56.768  19.927  1.00  0.00     0.186 HD
ENDBRANCH  13  14
ENDBRANCH  11  13
ENDBRANCH   1  11
BRANCH   8  20
HETATM   20  N   UNL     1     -45.316 -53.013  14.334  1.00  0.00    -0.355 N 
HETATM   21  C   UNL     1     -45.065 -54.221  13.724  1.00  0.00     0.213 C 
HETATM   22  O   UNL     1     -45.596 -55.275  14.052  1.00  0.00    -0.274 OA
HETATM   23  C   UNL     1     -44.072 -54.156  12.595  1.00  0.00     0.117 C 
HETATM   24  H   UNL     1     -44.821 -52.191  14.014  1.00  0.00     0.162 HD
ENDBRANCH   8  20
TORSDOF 4
ENDMDL
MODEL 6
REMARK VINA RESULT:      -5.6      2.527      7.337
REMARK  4 active torsions:
REMARK  status: ('A' for Active; 'I' for Inactive)
REMARK    1  A    between atoms: C_2  and  C_3 
REMARK    2  A    between atoms: C_2  and  N_10 
REMARK    3  A    between atoms: C_3  and  N_4 
REMARK       I    between atoms: N_10  and  C_11 
REMARK       I    between atoms: C_11  and  N_13 
REMARK    4  A    between atoms: C_17  and  N_19 
REMARK       I    between atoms: N_19  and  C_20 
ROOT
HETATM    1  N   UNL     1     -42.657 -49.859  12.002  1.00  0.00    -0.337 N 
HETATM    2  C   UNL     1     -42.212 -48.587  12.251  1.00  0.00     0.318 C 
HETATM    3  O   UNL     1     -41.282 -48.372  13.025  1.00  0.00    -0.247 OA
HETATM    4  N   UNL     1     -42.874 -47.587  11.562  1.00  0.00    -0.332 N 
HETATM    5  C   UNL     1     -43.862 -47.780  10.499  1.00  0.00     0.127 C 
HETATM    6  C   UNL     1     -43.487 -46.976   9.257  1.00  0.00     0.022 C 
HETATM    7  C   UNL     1     -43.307 -45.496   9.585  1.00  0.00     0.028 C 
HETATM    8  C   UNL     1     -42.297 -45.303  10.728  1.00  0.00     0.102 C 
HETATM    9  C   UNL     1     -42.645 -46.189  11.945  1.00  0.00     0.152 C 
HETATM   10  H   UNL     1     -43.648 -49.919  11.827  1.00  0.00     0.164 HD
ENDROOT
BRANCH   1  11
HETATM   11  C   UNL     1     -42.050 -51.028  12.656  1.00  0.00     0.102 C 
HETATM   12  C   UNL     1     -43.150 -52.053  12.946  1.00  0.00     0.034 C 
BRANCH  11  13
HETATM   13  C   UNL     1     -40.919 -51.611  11.791  1.00  0.00     0.172 C 
BRANCH  13  14
HETATM   14  N   UNL     1     -39.637 -50.962  11.995  1.00  0.00    -0.302 N 
HETATM   15  C   UNL     1     -38.796 -51.122  13.060  1.00  0.00     0.111 A 
HETATM   16  C   UNL     1     -37.726 -50.289  12.829  1.00  0.00     0.037 A 
HETATM   17  C   UNL     1     -38.018 -49.662  11.606  1.00  0.00     0.108 A 
HETATM   18  N   UNL     1     -39.186 -50.063  11.097  1.00  0.00    -0.310 N 
ATOM     19  HN  UNL     1     -39.633 -49.760  10.232  1.00  0.00     0.186 HD
ENDBRANCH  13  14
ENDBRANCH  11  13
ENDBRANCH   1  11
BRANCH   8  20
HETATM   20  N   UNL     1     -42.130 -43.889  11.063  1.00  0.00    -0.355 N 
HETATM   21  C   UNL     1     -40.921 -43.325  11.401  1.00  0.00     0.213 C 
HETATM   22  O   UNL     1     -39.863 -43.944  11.432  1.00  0.00    -0.274 OA
HETATM   23  C   UNL     1     -40.986 -41.859  11.734  1.00  0.00     0.117 C 
HETATM   24  H   UNL     1     -42.960 -43.312  11.079  1.00  0.00     0.162 HD
ENDBRANCH   8  20
TORSDOF 4
ENDMDL
MODEL 7
REMARK VINA RESULT:      -5.5      3.740      6.347
REMARK  4 active torsions:
REMARK  status: ('A' for Active; 'I' for Inactive)
REMARK    1  A    between atoms: C_2  and  C_3 
REMARK    2  A    between atoms: C_2  and  N_10 
REMARK    3  A    between atoms: C_3  and  N_4 
REMARK       I    between atoms: N_10  and  C_11 
REMARK       I    between atoms: C_11  and  N_13 
REMARK    4  A    between atoms: C_17  and  N_19 
REMARK       I    between atoms: N_19  and  C_20 
ROOT
HETATM    1  N   UNL     1     -41.810 -52.482  13.605  1.00  0.00    -0.337 N 
HETATM    2  C   UNL     1     -41.877 -51.304  12.907  1.00  0.00     0.318 C 
HETATM    3  O   UNL     1     -42.952 -50.756  12.676  1.00  0.00    -0.247 OA
HETATM    4  N   UNL     1     -40.658 -50.788  12.507  1.00  0.00    -0.332 N 
HETATM    5  C   UNL     1     -39.338 -51.289  12.898  1.00  0.00     0.127 C 
HETATM    6  C   UNL     1     -38.474 -50.162  13.458  1.00  0.00     0.022 C 
HETATM    7  C   UNL     1     -38.358 -49.006  12.467  1.00  0.00     0.028 C 
HETATM    8  C   UNL     1     -39.746 -48.511  12.031  1.00  0.00     0.102 C 
HETATM    9  C   UNL     1     -40.636 -49.678  11.549  1.00  0.00     0.152 C 
HETATM   10  H   UNL     1     -41.062 -53.091  13.312  1.00  0.00     0.164 HD
ENDROOT
BRANCH   1  11
HETATM   11  C   UNL     1     -43.022 -53.152  14.100  1.00  0.00     0.102 C 
HETATM   12  C   UNL     1     -42.693 -54.622  14.375  1.00  0.00     0.034 C 
BRANCH  11  13
HETATM   13  C   UNL     1     -43.572 -52.433  15.346  1.00  0.00     0.172 C 
BRANCH  13  14
HETATM   14  N   UNL     1     -44.952 -52.005  15.208  1.00  0.00    -0.302 N 
HETATM   15  C   UNL     1     -45.875 -51.875  16.207  1.00  0.00     0.111 A 
HETATM   16  C   UNL     1     -47.041 -51.474  15.599  1.00  0.00     0.037 A 
HETATM   17  C   UNL     1     -46.725 -51.399  14.232  1.00  0.00     0.108 A 
HETATM   18  N   UNL     1     -45.454 -51.730  13.987  1.00  0.00    -0.310 N 
ATOM     19  HN  UNL     1     -44.975 -51.766  13.087  1.00  0.00     0.186 HD
ENDBRANCH  13  14
ENDBRANCH  11  13
ENDBRANCH   1  11
BRANCH   8  20
HETATM   20  N   UNL     1     -39.647 -47.414  11.068  1.00  0.00    -0.355 N 
HETATM   21  C   UNL     1     -39.974 -46.110  11.364  1.00  0.00     0.213 C 
HETATM   22  O   UNL     1     -40.356 -45.735  12.467  1.00  0.00    -0.274 OA
HETATM   23  C   UNL     1     -39.821 -45.152  10.214  1.00  0.00     0.117 C 
HETATM   24  H   UNL     1     -39.356 -47.645  10.128  1.00  0.00     0.162 HD
ENDBRANCH   8  20
TORSDOF 4
ENDMDL
MODEL 8
REMARK VINA RESULT:      -5.4     13.412     14.922
REMARK  4 active torsions:
REMARK  status: ('A' for Active; 'I' for Inactive)
REMARK    1  A    between atoms: C_2  and  C_3 
REMARK    2  A    between atoms: C_2  and  N_10 
REMARK    3  A    between atoms: C_3  and  N_4 
REMARK       I    between atoms: N_10  and  C_11 
REMARK       I    between atoms: C_11  and  N_13 
REMARK    4  A    between atoms: C_17  and  N_19 
REMARK       I    between atoms: N_19  and  C_20 
ROOT
HETATM    1  N   UNL     1     -46.347 -47.642  -1.646  1.00  0.00    -0.337 N 
HETATM    2  C   UNL     1     -47.131 -48.760  -1.772  1.00  0.00     0.318 C 
HETATM    3  O   UNL     1     -46.787 -49.709  -2.472  1.00  0.00    -0.247 OA
HETATM    4  N   UNL     1     -48.310 -48.735  -1.049  1.00  0.00    -0.332 N 
HETATM    5  C   UNL     1     -48.697 -47.724  -0.063  1.00  0.00     0.127 C 
HETATM    6  C   UNL     1     -49.099 -48.378   1.256  1.00  0.00     0.022 C 
HETATM    7  C   UNL     1     -50.208 -49.407   1.051  1.00  0.00     0.028 C 
HETATM    8  C   UNL     1     -49.811 -50.443  -0.013  1.00  0.00     0.102 C 
HETATM    9  C   UNL     1     -49.325 -49.761  -1.311  1.00  0.00     0.152 C 
HETATM   10  H   UNL     1     -46.869 -46.786  -1.534  1.00  0.00     0.164 HD
ENDROOT
BRANCH   1  11
HETATM   11  C   UNL     1     -45.062 -47.521  -2.350  1.00  0.00     0.102 C 
HETATM   12  C   UNL     1     -45.210 -46.482  -3.466  1.00  0.00     0.034 C 
BRANCH  11  13
HETATM   13  C   UNL     1     -43.932 -47.167  -1.366  1.00  0.00     0.172 C 
BRANCH  13  14
HETATM   14  N   UNL     1     -42.621 -47.108  -1.985  1.00  0.00    -0.302 N 
HETATM   15  C   UNL     1     -41.763 -46.043  -1.991  1.00  0.00     0.111 A 
HETATM   16  C   UNL     1     -40.665 -46.443  -2.717  1.00  0.00     0.037 A 
HETATM   17  C   UNL     1     -40.958 -47.758  -3.114  1.00  0.00     0.108 A 
HETATM   18  N   UNL     1     -42.153 -48.166  -2.677  1.00  0.00    -0.310 N 
ATOM     19  HN  UNL     1     -42.605 -49.067  -2.830  1.00  0.00     0.186 HD
ENDBRANCH  13  14
ENDBRANCH  11  13
ENDBRANCH   1  11
BRANCH   8  20
HETATM   20  N   UNL     1     -50.874 -51.425  -0.229  1.00  0.00    -0.355 N 
HETATM   21  C   UNL     1     -50.647 -52.705  -0.678  1.00  0.00     0.213 C 
HETATM   22  O   UNL     1     -49.533 -53.158  -0.917  1.00  0.00    -0.274 OA
HETATM   23  C   UNL     1     -51.890 -53.535  -0.855  1.00  0.00     0.117 C 
HETATM   24  H   UNL     1     -51.826 -51.122  -0.073  1.00  0.00     0.162 HD
ENDBRANCH   8  20
TORSDOF 4
ENDMDL
MODEL 9
REMARK VINA RESULT:      -5.3      5.335      7.882
REMARK  4 active torsions:
REMARK  status: ('A' for Active; 'I' for Inactive)
REMARK    1  A    between atoms: C_2  and  C_3 
REMARK    2  A    between atoms: C_2  and  N_10 
REMARK    3  A    between atoms: C_3  and  N_4 
REMARK       I    between atoms: N_10  and  C_11 
REMARK       I    between atoms: C_11  and  N_13 
REMARK    4  A    between atoms: C_17  and  N_19 
REMARK       I    between atoms: N_19  and  C_20 
ROOT
HETATM    1  N   UNL     1     -42.641 -52.634  13.406  1.00  0.00    -0.337 N 
HETATM    2  C   UNL     1     -43.141 -52.637  14.682  1.00  0.00     0.318 C 
HETATM    3  O   UNL     1     -42.400 -52.603  15.661  1.00  0.00    -0.247 OA
HETATM    4  N   UNL     1     -44.520 -52.665  14.773  1.00  0.00    -0.332 N 
HETATM    5  C   UNL     1     -45.462 -52.527  13.660  1.00  0.00     0.127 C 
HETATM    6  C   UNL     1     -46.489 -51.435  13.949  1.00  0.00     0.022 C 
HETATM    7  C   UNL     1     -47.218 -51.693  15.265  1.00  0.00     0.028 C 
HETATM    8  C   UNL     1     -46.223 -51.875  16.422  1.00  0.00     0.102 C 
HETATM    9  C   UNL     1     -45.142 -52.922  16.077  1.00  0.00     0.152 C 
HETATM   10  H   UNL     1     -43.193 -53.164  12.749  1.00  0.00     0.164 HD
ENDROOT
BRANCH   1  11
HETATM   11  C   UNL     1     -41.194 -52.602  13.147  1.00  0.00     0.102 C 
HETATM   12  C   UNL     1     -40.704 -54.035  12.921  1.00  0.00     0.034 C 
BRANCH  11  13
HETATM   13  C   UNL     1     -40.873 -51.680  11.956  1.00  0.00     0.172 C 
BRANCH  13  14
HETATM   14  N   UNL     1     -39.641 -50.930  12.117  1.00  0.00    -0.302 N 
HETATM   15  C   UNL     1     -38.871 -50.849  13.244  1.00  0.00     0.111 A 
HETATM   16  C   UNL     1     -37.828 -50.009  12.932  1.00  0.00     0.037 A 
HETATM   17  C   UNL     1     -38.061 -49.627  11.600  1.00  0.00     0.108 A 
HETATM   18  N   UNL     1     -39.170 -50.180  11.101  1.00  0.00    -0.310 N 
ATOM     19  HN  UNL     1     -39.567 -50.063  10.169  1.00  0.00     0.186 HD
ENDBRANCH  13  14
ENDBRANCH  11  13
ENDBRANCH   1  11
BRANCH   8  20
HETATM   20  N   UNL     1     -46.912 -52.140  17.686  1.00  0.00    -0.355 N 
HETATM   21  C   UNL     1     -47.556 -51.169  18.419  1.00  0.00     0.213 C 
HETATM   22  O   UNL     1     -47.638 -49.995  18.075  1.00  0.00    -0.274 OA
HETATM   23  C   UNL     1     -48.173 -51.660  19.700  1.00  0.00     0.117 C 
HETATM   24  H   UNL     1     -46.874 -53.083  18.048  1.00  0.00     0.162 HD
ENDBRANCH   8  20
TORSDOF 4
ENDMDL
