MODEL 1
REMARK VINA RESULT:      -5.8      0.000      0.000
REMARK  3 active torsions:
REMARK  status: ('A' for Active; 'I' for Inactive)
REMARK       I    between atoms: C_2  and  N_4 
REMARK       I    between atoms: N_7  and  C_10 
REMARK       I    between atoms: C_10  and  N_12 
REMARK    1  A    between atoms: N_12  and  C_13 
REMARK    2  A    between atoms: C_13  and  C_14 
REMARK    3  A    between atoms: C_14  and  N_15 
ROOT
HETATM    1  C   UNL     1     -45.278 -54.823  14.061  1.00  0.00     0.117 C 
HETATM    2  C   UNL     1     -43.847 -55.040  14.477  1.00  0.00     0.215 C 
HETATM    3  O   UNL     1     -43.544 -56.012  15.169  1.00  0.00    -0.274 OA
HETATM    4  N   UNL     1     -42.915 -54.119  14.031  1.00  0.00    -0.349 N 
HETATM    5  C   UNL     1     -43.225 -52.902  13.272  1.00  0.00     0.145 C 
HETATM    6  C   UNL     1     -42.225 -52.682  12.124  1.00  0.00     0.147 C 
HETATM    7  N   UNL     1     -40.838 -52.771  12.593  1.00  0.00    -0.331 N 
HETATM    8  C   UNL     1     -40.531 -53.995  13.349  1.00  0.00     0.147 C 
HETATM    9  C   UNL     1     -41.525 -54.214  14.497  1.00  0.00     0.145 C 
HETATM   10  C   UNL     1     -39.855 -51.814  12.454  1.00  0.00     0.318 C 
HETATM   11  O   UNL     1     -38.753 -51.905  12.984  1.00  0.00    -0.247 OA
HETATM   12  N   UNL     1     -40.194 -50.730  11.678  1.00  0.00    -0.341 N 
HETATM   13  H   UNL     1     -40.760 -50.977  10.881  1.00  0.00     0.164 HD
ENDROOT
BRANCH  12  14
HETATM   14  C   UNL     1     -39.185 -49.707  11.445  1.00  0.00     0.144 C 
BRANCH  14  15
HETATM   15  C   UNL     1     -39.471 -48.418  12.205  1.00  0.00     0.149 C 
BRANCH  15  16
HETATM   16  N   UNL     1     -40.267 -47.493  11.427  1.00  0.00    -0.350 N 
HETATM   17  C   UNL     1     -40.068 -46.147  11.320  1.00  0.00     0.108 A 
HETATM   18  C   UNL     1     -41.062 -45.710  10.474  1.00  0.00     0.106 A 
HETATM   19  N   UNL     1     -41.846 -46.758  10.063  1.00  0.00    -0.361 N 
HETATM   20  C   UNL     1     -41.344 -47.819  10.653  1.00  0.00     0.182 A 
ATOM     21  HN  UNL     1     -42.648 -46.722   9.432  1.00  0.00     0.166 HD
ENDBRANCH  15  16
ENDBRANCH  14  15
ENDBRANCH  12  14
TORSDOF 3
ENDMDL
MODEL 2
REMARK VINA RESULT:      -5.5      2.921      7.946
REMARK  3 active torsions:
REMARK  status: ('A' for Active; 'I' for Inactive)
REMARK       I    between atoms: C_2  and  N_4 
REMARK       I    between atoms: N_7  and  C_10 
REMARK       I    between atoms: C_10  and  N_12 
REMARK    1  A    between atoms: N_12  and  C_13 
REMARK    2  A    between atoms: C_13  and  C_14 
REMARK    3  A    between atoms: C_14  and  N_15 
ROOT
HETATM    1  C   UNL     1     -39.523 -44.987  10.106  1.00  0.00     0.117 C 
HETATM    2  C   UNL     1     -40.917 -45.102  10.667  1.00  0.00     0.215 C 
HETATM    3  O   UNL     1     -41.696 -44.153  10.585  1.00  0.00    -0.274 OA
HETATM    4  N   UNL     1     -41.266 -46.310  11.243  1.00  0.00    -0.349 N 
HETATM    5  C   UNL     1     -40.359 -47.447  11.439  1.00  0.00     0.145 C 
HETATM    6  C   UNL     1     -41.040 -48.780  11.087  1.00  0.00     0.147 C 
HETATM    7  N   UNL     1     -42.339 -48.915  11.755  1.00  0.00    -0.331 N 
HETATM    8  C   UNL     1     -43.246 -47.775  11.553  1.00  0.00     0.147 C 
HETATM    9  C   UNL     1     -42.570 -46.444  11.908  1.00  0.00     0.145 C 
HETATM   10  C   UNL     1     -42.741 -49.943  12.583  1.00  0.00     0.318 C 
HETATM   11  O   UNL     1     -43.795 -49.924  13.210  1.00  0.00    -0.247 OA
HETATM   12  N   UNL     1     -41.870 -51.003  12.670  1.00  0.00    -0.341 N 
HETATM   13  H   UNL     1     -41.424 -51.221  11.792  1.00  0.00     0.164 HD
ENDROOT
BRANCH  12  14
HETATM   14  C   UNL     1     -42.256 -52.147  13.484  1.00  0.00     0.144 C 
BRANCH  14  15
HETATM   15  C   UNL     1     -42.884 -53.266  12.663  1.00  0.00     0.149 C 
BRANCH  15  16
HETATM   16  N   UNL     1     -44.173 -53.667  13.186  1.00  0.00    -0.350 N 
HETATM   17  C   UNL     1     -44.401 -54.640  14.115  1.00  0.00     0.108 A 
HETATM   18  C   UNL     1     -45.766 -54.645  14.292  1.00  0.00     0.106 A 
HETATM   19  N   UNL     1     -46.362 -53.695  13.502  1.00  0.00    -0.361 N 
HETATM   20  C   UNL     1     -45.378 -53.122  12.846  1.00  0.00     0.182 A 
ATOM     21  HN  UNL     1     -47.357 -53.479  13.438  1.00  0.00     0.166 HD
ENDBRANCH  15  16
ENDBRANCH  14  15
ENDBRANCH  12  14
TORSDOF 3
ENDMDL
MODEL 3
REMARK VINA RESULT:      -5.5      2.394      4.054
REMARK  3 active torsions:
REMARK  status: ('A' for Active; 'I' for Inactive)
REMARK       I    between atoms: C_2  and  N_4 
REMARK       I    between atoms: N_7  and  C_10 
REMARK       I    between atoms: C_10  and  N_12 
REMARK    1  A    between atoms: N_12  and  C_13 
REMARK    2  A    between atoms: C_13  and  C_14 
REMARK    3  A    between atoms: C_14  and  N_15 
ROOT
HETATM    1  C   UNL     1     -40.830 -54.058  12.953  1.00  0.00     0.117 C 
HETATM    2  C   UNL     1     -40.023 -53.016  13.683  1.00  0.00     0.215 C 
HETATM    3  O   UNL     1     -39.302 -53.342  14.626  1.00  0.00    -0.274 OA
HETATM    4  N   UNL     1     -40.120 -51.713  13.229  1.00  0.00    -0.349 N 
HETATM    5  C   UNL     1     -41.018 -51.253  12.164  1.00  0.00     0.145 C 
HETATM    6  C   UNL     1     -40.313 -50.267  11.217  1.00  0.00     0.147 C 
HETATM    7  N   UNL     1     -39.646 -49.192  11.958  1.00  0.00    -0.331 N 
HETATM    8  C   UNL     1     -38.743 -49.657  13.022  1.00  0.00     0.147 C 
HETATM    9  C   UNL     1     -39.446 -50.638  13.970  1.00  0.00     0.145 C 
HETATM   10  C   UNL     1     -39.838 -47.835  11.799  1.00  0.00     0.318 C 
HETATM   11  O   UNL     1     -39.340 -46.997  12.543  1.00  0.00    -0.247 OA
HETATM   12  N   UNL     1     -40.641 -47.474  10.743  1.00  0.00    -0.341 N 
HETATM   13  H   UNL     1     -40.506 -48.053   9.929  1.00  0.00     0.164 HD
ENDROOT
BRANCH  12  14
HETATM   14  C   UNL     1     -40.843 -46.055  10.484  1.00  0.00     0.144 C 
BRANCH  14  15
HETATM   15  C   UNL     1     -42.277 -45.610  10.744  1.00  0.00     0.149 C 
BRANCH  15  16
HETATM   16  N   UNL     1     -43.231 -46.364   9.960  1.00  0.00    -0.350 N 
HETATM   17  C   UNL     1     -44.102 -47.304  10.430  1.00  0.00     0.108 A 
HETATM   18  C   UNL     1     -44.799 -47.726   9.321  1.00  0.00     0.106 A 
HETATM   19  N   UNL     1     -44.377 -47.057   8.199  1.00  0.00    -0.361 N 
HETATM   20  C   UNL     1     -43.432 -46.244   8.614  1.00  0.00     0.182 A 
ATOM     21  HN  UNL     1     -44.724 -47.169   7.246  1.00  0.00     0.166 HD
ENDBRANCH  15  16
ENDBRANCH  14  15
ENDBRANCH  12  14
TORSDOF 3
ENDMDL
MODEL 4
REMARK VINA RESULT:      -5.4      3.360      8.496
REMARK  3 active torsions:
REMARK  status: ('A' for Active; 'I' for Inactive)
REMARK       I    between atoms: C_2  and  N_4 
REMARK       I    between atoms: N_7  and  C_10 
REMARK       I    between atoms: C_10  and  N_12 
REMARK    1  A    between atoms: N_12  and  C_13 
REMARK    2  A    between atoms: C_13  and  C_14 
REMARK    3  A    between atoms: C_14  and  N_15 
ROOT
HETATM    1  C   UNL     1     -40.387 -41.648  12.068  1.00  0.00     0.117 C 
HETATM    2  C   UNL     1     -41.567 -42.405  11.515  1.00  0.00     0.215 C 
HETATM    3  O   UNL     1     -42.560 -41.797  11.116  1.00  0.00    -0.274 OA
HETATM    4  N   UNL     1     -41.462 -43.785  11.465  1.00  0.00    -0.349 N 
HETATM    5  C   UNL     1     -40.341 -44.568  11.995  1.00  0.00     0.145 C 
HETATM    6  C   UNL     1     -39.933 -45.695  11.032  1.00  0.00     0.147 C 
HETATM    7  N   UNL     1     -41.092 -46.494  10.616  1.00  0.00    -0.331 N 
HETATM    8  C   UNL     1     -42.212 -45.705  10.081  1.00  0.00     0.147 C 
HETATM    9  C   UNL     1     -42.622 -44.582  11.043  1.00  0.00     0.145 C 
HETATM   10  C   UNL     1     -41.244 -47.859  10.745  1.00  0.00     0.318 C 
HETATM   11  O   UNL     1     -42.294 -48.441  10.492  1.00  0.00    -0.247 OA
HETATM   12  N   UNL     1     -40.133 -48.536  11.188  1.00  0.00    -0.341 N 
HETATM   13  H   UNL     1     -39.272 -48.168  10.816  1.00  0.00     0.164 HD
ENDROOT
BRANCH  12  14
HETATM   14  C   UNL     1     -40.208 -49.986  11.296  1.00  0.00     0.144 C 
BRANCH  14  15
HETATM   15  C   UNL     1     -40.080 -50.475  12.733  1.00  0.00     0.149 C 
BRANCH  15  16
HETATM   16  N   UNL     1     -40.247 -51.908  12.838  1.00  0.00    -0.350 N 
HETATM   17  C   UNL     1     -39.757 -52.710  13.828  1.00  0.00     0.108 A 
HETATM   18  C   UNL     1     -40.181 -53.977  13.499  1.00  0.00     0.106 A 
HETATM   19  N   UNL     1     -40.921 -53.957  12.344  1.00  0.00    -0.361 N 
HETATM   20  C   UNL     1     -40.943 -52.698  11.968  1.00  0.00     0.182 A 
ATOM     21  HN  UNL     1     -41.360 -54.750  11.876  1.00  0.00     0.166 HD
ENDBRANCH  15  16
ENDBRANCH  14  15
ENDBRANCH  12  14
TORSDOF 3
ENDMDL
MODEL 5
REMARK VINA RESULT:      -5.4      1.698      1.940
REMARK  3 active torsions:
REMARK  status: ('A' for Active; 'I' for Inactive)
REMARK       I    between atoms: C_2  and  N_4 
REMARK       I    between atoms: N_7  and  C_10 
REMARK       I    between atoms: C_10  and  N_12 
REMARK    1  A    between atoms: N_12  and  C_13 
REMARK    2  A    between atoms: C_13  and  C_14 
REMARK    3  A    between atoms: C_14  and  N_15 
ROOT
HETATM    1  C   UNL     1     -46.913 -52.501  15.865  1.00  0.00     0.117 C 
HETATM    2  C   UNL     1     -45.774 -53.438  15.558  1.00  0.00     0.215 C 
HETATM    3  O   UNL     1     -45.808 -54.604  15.951  1.00  0.00    -0.274 OA
HETATM    4  N   UNL     1     -44.726 -52.931  14.809  1.00  0.00    -0.349 N 
HETATM    5  C   UNL     1     -44.592 -51.534  14.379  1.00  0.00     0.145 C 
HETATM    6  C   UNL     1     -44.110 -51.435  12.922  1.00  0.00     0.147 C 
HETATM    7  N   UNL     1     -42.920 -52.261  12.691  1.00  0.00    -0.331 N 
HETATM    8  C   UNL     1     -43.060 -53.661  13.119  1.00  0.00     0.147 C 
HETATM    9  C   UNL     1     -43.537 -53.761  14.574  1.00  0.00     0.145 C 
HETATM   10  C   UNL     1     -41.704 -51.839  12.193  1.00  0.00     0.318 C 
HETATM   11  O   UNL     1     -40.713 -52.560  12.148  1.00  0.00    -0.247 OA
HETATM   12  N   UNL     1     -41.670 -50.537  11.751  1.00  0.00    -0.341 N 
HETATM   13  H   UNL     1     -42.518 -50.255  11.287  1.00  0.00     0.164 HD
ENDROOT
BRANCH  12  14
HETATM   14  C   UNL     1     -40.432 -50.042  11.164  1.00  0.00     0.144 C 
BRANCH  14  15
HETATM   15  C   UNL     1     -39.941 -48.761  11.826  1.00  0.00     0.149 C 
BRANCH  15  16
HETATM   16  N   UNL     1     -40.483 -47.578  11.191  1.00  0.00    -0.350 N 
HETATM   17  C   UNL     1     -39.958 -46.319  11.245  1.00  0.00     0.108 A 
HETATM   18  C   UNL     1     -40.812 -45.549  10.488  1.00  0.00     0.106 A 
HETATM   19  N   UNL     1     -41.829 -46.313   9.974  1.00  0.00    -0.361 N 
HETATM   20  C   UNL     1     -41.606 -47.531  10.415  1.00  0.00     0.182 A 
ATOM     21  HN  UNL     1     -42.596 -46.002   9.377  1.00  0.00     0.166 HD
ENDBRANCH  15  16
ENDBRANCH  14  15
ENDBRANCH  12  14
TORSDOF 3
ENDMDL
MODEL 6
REMARK VINA RESULT:      -5.4      1.700      2.644
REMARK  3 active torsions:
REMARK  status: ('A' for Active; 'I' for Inactive)
REMARK       I    between atoms: C_2  and  N_4 
REMARK       I    between atoms: N_7  and  C_10 
REMARK       I    between atoms: C_10  and  N_12 
REMARK    1  A    between atoms: N_12  and  C_13 
REMARK    2  A    between atoms: C_13  and  C_14 
REMARK    3  A    between atoms: C_14  and  N_15 
ROOT
HETATM    1  C   UNL     1     -45.304 -54.758  14.075  1.00  0.00     0.117 C 
HETATM    2  C   UNL     1     -43.874 -54.977  14.492  1.00  0.00     0.215 C 
HETATM    3  O   UNL     1     -43.573 -55.953  15.180  1.00  0.00    -0.274 OA
HETATM    4  N   UNL     1     -42.940 -54.056  14.051  1.00  0.00    -0.349 N 
HETATM    5  C   UNL     1     -43.248 -52.836  13.296  1.00  0.00     0.145 C 
HETATM    6  C   UNL     1     -42.247 -52.613  12.151  1.00  0.00     0.147 C 
HETATM    7  N   UNL     1     -40.861 -52.705  12.621  1.00  0.00    -0.331 N 
HETATM    8  C   UNL     1     -40.555 -53.931  13.373  1.00  0.00     0.147 C 
HETATM    9  C   UNL     1     -41.551 -54.154  14.519  1.00  0.00     0.145 C 
HETATM   10  C   UNL     1     -39.876 -51.748  12.487  1.00  0.00     0.318 C 
HETATM   11  O   UNL     1     -38.775 -51.841  13.018  1.00  0.00    -0.247 OA
HETATM   12  N   UNL     1     -40.213 -50.661  11.715  1.00  0.00    -0.341 N 
HETATM   13  H   UNL     1     -40.778 -50.903  10.916  1.00  0.00     0.164 HD
ENDROOT
BRANCH  12  14
HETATM   14  C   UNL     1     -39.203 -49.637  11.488  1.00  0.00     0.144 C 
BRANCH  14  15
HETATM   15  C   UNL     1     -39.489 -48.351  12.252  1.00  0.00     0.149 C 
BRANCH  15  16
HETATM   16  N   UNL     1     -38.966 -48.391  13.601  1.00  0.00    -0.350 N 
HETATM   17  C   UNL     1     -37.668 -48.612  13.959  1.00  0.00     0.108 A 
HETATM   18  C   UNL     1     -37.665 -48.547  15.334  1.00  0.00     0.106 A 
HETATM   19  N   UNL     1     -38.924 -48.283  15.810  1.00  0.00    -0.361 N 
HETATM   20  C   UNL     1     -39.687 -48.195  14.744  1.00  0.00     0.182 A 
ATOM     21  HN  UNL     1     -39.208 -48.178  16.785  1.00  0.00     0.166 HD
ENDBRANCH  15  16
ENDBRANCH  14  15
ENDBRANCH  12  14
TORSDOF 3
ENDMDL
MODEL 7
REMARK VINA RESULT:      -5.3      2.365      3.490
REMARK  3 active torsions:
REMARK  status: ('A' for Active; 'I' for Inactive)
REMARK       I    between atoms: C_2  and  N_4 
REMARK       I    between atoms: N_7  and  C_10 
REMARK       I    between atoms: C_10  and  N_12 
REMARK    1  A    between atoms: N_12  and  C_13 
REMARK    2  A    between atoms: C_13  and  C_14 
REMARK    3  A    between atoms: C_14  and  N_15 
ROOT
HETATM    1  C   UNL     1     -46.640 -52.419  16.443  1.00  0.00     0.117 C 
HETATM    2  C   UNL     1     -45.629 -53.383  15.879  1.00  0.00     0.215 C 
HETATM    3  O   UNL     1     -45.698 -54.582  16.153  1.00  0.00    -0.274 OA
HETATM    4  N   UNL     1     -44.659 -52.861  15.041  1.00  0.00    -0.349 N 
HETATM    5  C   UNL     1     -44.480 -51.436  14.740  1.00  0.00     0.145 C 
HETATM    6  C   UNL     1     -44.198 -51.205  13.247  1.00  0.00     0.147 C 
HETATM    7  N   UNL     1     -43.117 -52.071  12.763  1.00  0.00    -0.331 N 
HETATM    8  C   UNL     1     -43.303 -53.499  13.063  1.00  0.00     0.147 C 
HETATM    9  C   UNL     1     -43.581 -53.731  14.553  1.00  0.00     0.145 C 
HETATM   10  C   UNL     1     -41.953 -51.671  12.139  1.00  0.00     0.318 C 
HETATM   11  O   UNL     1     -41.035 -52.441  11.877  1.00  0.00    -0.247 OA
HETATM   12  N   UNL     1     -41.880 -50.333  11.831  1.00  0.00    -0.341 N 
HETATM   13  H   UNL     1     -42.761 -49.949  11.526  1.00  0.00     0.164 HD
ENDROOT
BRANCH  12  14
HETATM   14  C   UNL     1     -40.702 -49.852  11.124  1.00  0.00     0.144 C 
BRANCH  14  15
HETATM   15  C   UNL     1     -39.849 -48.917  11.973  1.00  0.00     0.149 C 
BRANCH  15  16
HETATM   16  N   UNL     1     -38.815 -49.628  12.693  1.00  0.00    -0.350 N 
HETATM   17  C   UNL     1     -38.500 -49.479  14.013  1.00  0.00     0.108 A 
HETATM   18  C   UNL     1     -37.470 -50.365  14.233  1.00  0.00     0.106 A 
HETATM   19  N   UNL     1     -37.164 -51.049  13.083  1.00  0.00    -0.361 N 
HETATM   20  C   UNL     1     -37.989 -50.583  12.172  1.00  0.00     0.182 A 
ATOM     21  HN  UNL     1     -36.448 -51.766  12.961  1.00  0.00     0.166 HD
ENDBRANCH  15  16
ENDBRANCH  14  15
ENDBRANCH  12  14
TORSDOF 3
ENDMDL
MODEL 8
REMARK VINA RESULT:      -5.2      2.982      7.806
REMARK  3 active torsions:
REMARK  status: ('A' for Active; 'I' for Inactive)
REMARK       I    between atoms: C_2  and  N_4 
REMARK       I    between atoms: N_7  and  C_10 
REMARK       I    between atoms: C_10  and  N_12 
REMARK    1  A    between atoms: N_12  and  C_13 
REMARK    2  A    between atoms: C_13  and  C_14 
REMARK    3  A    between atoms: C_14  and  N_15 
ROOT
HETATM    1  C   UNL     1     -39.545 -44.923  10.178  1.00  0.00     0.117 C 
HETATM    2  C   UNL     1     -40.943 -45.087  10.715  1.00  0.00     0.215 C 
HETATM    3  O   UNL     1     -41.749 -44.160  10.633  1.00  0.00    -0.274 OA
HETATM    4  N   UNL     1     -41.265 -46.313  11.270  1.00  0.00    -0.349 N 
HETATM    5  C   UNL     1     -40.327 -47.425  11.465  1.00  0.00     0.145 C 
HETATM    6  C   UNL     1     -40.962 -48.773  11.085  1.00  0.00     0.147 C 
HETATM    7  N   UNL     1     -42.267 -48.955  11.731  1.00  0.00    -0.331 N 
HETATM    8  C   UNL     1     -43.205 -47.840  11.529  1.00  0.00     0.147 C 
HETATM    9  C   UNL     1     -42.574 -46.494  11.911  1.00  0.00     0.145 C 
HETATM   10  C   UNL     1     -42.651 -50.005  12.538  1.00  0.00     0.318 C 
HETATM   11  O   UNL     1     -43.715 -50.026  13.148  1.00  0.00    -0.247 OA
HETATM   12  N   UNL     1     -41.750 -51.040  12.626  1.00  0.00    -0.341 N 
HETATM   13  H   UNL     1     -41.284 -51.233  11.753  1.00  0.00     0.164 HD
ENDROOT
BRANCH  12  14
HETATM   14  C   UNL     1     -42.114 -52.205  13.419  1.00  0.00     0.144 C 
BRANCH  14  15
HETATM   15  C   UNL     1     -41.304 -52.316  14.705  1.00  0.00     0.149 C 
BRANCH  15  16
HETATM   16  N   UNL     1     -40.337 -53.392  14.648  1.00  0.00    -0.350 N 
HETATM   17  C   UNL     1     -39.760 -54.018  15.715  1.00  0.00     0.108 A 
HETATM   18  C   UNL     1     -38.929 -54.965  15.161  1.00  0.00     0.106 A 
HETATM   19  N   UNL     1     -38.999 -54.930  13.791  1.00  0.00    -0.361 N 
HETATM   20  C   UNL     1     -39.854 -53.973  13.510  1.00  0.00     0.182 A 
ATOM     21  HN  UNL     1     -38.494 -55.523  13.131  1.00  0.00     0.166 HD
ENDBRANCH  15  16
ENDBRANCH  14  15
ENDBRANCH  12  14
TORSDOF 3
ENDMDL
MODEL 9
REMARK VINA RESULT:      -5.1      1.687      2.065
REMARK  3 active torsions:
REMARK  status: ('A' for Active; 'I' for Inactive)
REMARK       I    between atoms: C_2  and  N_4 
REMARK       I    between atoms: N_7  and  C_10 
REMARK       I    between atoms: C_10  and  N_12 
REMARK    1  A    between atoms: N_12  and  C_13 
REMARK    2  A    between atoms: C_13  and  C_14 
REMARK    3  A    between atoms: C_14  and  N_15 
ROOT
HETATM    1  C   UNL     1     -46.528 -52.757  14.398  1.00  0.00     0.117 C 
HETATM    2  C   UNL     1     -45.428 -53.781  14.514  1.00  0.00     0.215 C 
HETATM    3  O   UNL     1     -45.695 -54.941  14.826  1.00  0.00    -0.274 OA
HETATM    4  N   UNL     1     -44.141 -53.356  14.236  1.00  0.00    -0.349 N 
HETATM    5  C   UNL     1     -43.752 -51.974  13.936  1.00  0.00     0.145 C 
HETATM    6  C   UNL     1     -42.746 -51.909  12.776  1.00  0.00     0.147 C 
HETATM    7  N   UNL     1     -41.620 -52.826  12.987  1.00  0.00    -0.331 N 
HETATM    8  C   UNL     1     -42.014 -54.212  13.283  1.00  0.00     0.147 C 
HETATM    9  C   UNL     1     -43.016 -54.278  14.443  1.00  0.00     0.145 C 
HETATM   10  C   UNL     1     -40.280 -52.501  13.001  1.00  0.00     0.318 C 
HETATM   11  O   UNL     1     -39.401 -53.298  13.312  1.00  0.00    -0.247 OA
HETATM   12  N   UNL     1     -39.985 -51.205  12.650  1.00  0.00    -0.341 N 
HETATM   13  H   UNL     1     -40.569 -50.854  11.908  1.00  0.00     0.164 HD
ENDROOT
BRANCH  12  14
HETATM   14  C   UNL     1     -38.585 -50.808  12.593  1.00  0.00     0.144 C 
BRANCH  14  15
HETATM   15  C   UNL     1     -38.355 -49.592  11.704  1.00  0.00     0.149 C 
BRANCH  15  16
HETATM   16  N   UNL     1     -38.974 -48.400  12.243  1.00  0.00    -0.350 N 
HETATM   17  C   UNL     1     -39.864 -47.589  11.598  1.00  0.00     0.108 A 
HETATM   18  C   UNL     1     -40.170 -46.606  12.511  1.00  0.00     0.106 A 
HETATM   19  N   UNL     1     -39.496 -46.810  13.689  1.00  0.00    -0.361 N 
HETATM   20  C   UNL     1     -38.784 -47.897  13.498  1.00  0.00     0.182 A 
ATOM     21  HN  UNL     1     -39.540 -46.238  14.533  1.00  0.00     0.166 HD
ENDBRANCH  15  16
ENDBRANCH  14  15
ENDBRANCH  12  14
TORSDOF 3
ENDMDL
