MODEL 1
REMARK VINA RESULT:      -5.8      0.000      0.000
REMARK  4 active torsions:
REMARK  status: ('A' for Active; 'I' for Inactive)
REMARK    1  A    between atoms: C_4  and  N_5 
REMARK       I    between atoms: N_5  and  C_6 
REMARK       I    between atoms: C_6  and  N_8 
REMARK    2  A    between atoms: N_8  and  C_9 
REMARK    3  A    between atoms: C_9  and  C_10 
REMARK    4  A    between atoms: C_9  and  C_13 
ROOT
HETATM    1  N   UNL     1     -41.545 -48.029  10.138  1.00  0.00    -0.293 N 
HETATM    2  C   UNL     1     -41.295 -48.862  11.194  1.00  0.00     0.322 C 
HETATM    3  O   UNL     1     -40.160 -48.932  11.660  1.00  0.00    -0.247 OA
HETATM    4  N   UNL     1     -42.371 -49.500  11.721  1.00  0.00    -0.337 N 
HETATM    5  H   UNL     1     -40.764 -47.449   9.871  1.00  0.00     0.172 HD
HETATM    6  H   UNL     1     -43.213 -49.504  11.157  1.00  0.00     0.164 HD
ENDROOT
BRANCH   1   7
HETATM    7  C   UNL     1     -42.756 -47.837   9.503  1.00  0.00     0.132 A 
HETATM    8  C   UNL     1     -43.900 -47.250  10.090  1.00  0.00     0.084 A 
HETATM    9  C   UNL     1     -44.871 -47.338   9.121  1.00  0.00     0.076 A 
HETATM   10  C   UNL     1     -46.302 -47.011   9.042  1.00  0.00     0.079 C 
HETATM   11  O   UNL     1     -44.330 -47.888   8.003  1.00  0.00    -0.241 OA
HETATM   12  N   UNL     1     -43.014 -48.204   8.240  1.00  0.00    -0.245 N 
ATOM     13  HN  UNL     1     -42.361 -48.633   7.584  1.00  0.00     0.196 HD
ENDBRANCH   1   7
BRANCH   4  14
HETATM   14  C   UNL     1     -42.354 -50.346  12.883  1.00  0.00     0.094 C 
BRANCH  14  15
HETATM   15  C   UNL     1     -43.587 -50.025  13.697  1.00  0.00     0.009 A 
HETATM   16  C   UNL     1     -43.494 -49.777  15.186  1.00  0.00     0.007 A 
HETATM   17  C   UNL     1     -44.141 -51.031  14.673  1.00  0.00     0.007 A 
ENDBRANCH  14  15
BRANCH  14  18
HETATM   18  C   UNL     1     -42.371 -51.781  12.423  1.00  0.00     0.009 A 
HETATM   19  C   UNL     1     -41.538 -52.824  13.125  1.00  0.00     0.007 A 
HETATM   20  C   UNL     1     -41.168 -52.378  11.738  1.00  0.00     0.007 A 
ENDBRANCH  14  18
ENDBRANCH   4  14
TORSDOF 4
ENDMDL
MODEL 2
REMARK VINA RESULT:      -5.7      1.689      2.149
REMARK  4 active torsions:
REMARK  status: ('A' for Active; 'I' for Inactive)
REMARK    1  A    between atoms: C_4  and  N_5 
REMARK       I    between atoms: N_5  and  C_6 
REMARK       I    between atoms: C_6  and  N_8 
REMARK    2  A    between atoms: N_8  and  C_9 
REMARK    3  A    between atoms: C_9  and  C_10 
REMARK    4  A    between atoms: C_9  and  C_13 
ROOT
HETATM    1  N   UNL     1     -41.701 -48.766  12.309  1.00  0.00    -0.293 N 
HETATM    2  C   UNL     1     -42.124 -49.835  13.051  1.00  0.00     0.322 C 
HETATM    3  O   UNL     1     -41.504 -50.160  14.061  1.00  0.00    -0.247 OA
HETATM    4  N   UNL     1     -43.283 -50.418  12.653  1.00  0.00    -0.337 N 
HETATM    5  H   UNL     1     -40.931 -48.255  12.715  1.00  0.00     0.172 HD
HETATM    6  H   UNL     1     -43.610 -50.183  11.723  1.00  0.00     0.164 HD
ENDROOT
BRANCH   1   7
HETATM    7  C   UNL     1     -42.281 -48.276  11.155  1.00  0.00     0.132 A 
HETATM    8  C   UNL     1     -43.487 -47.541  11.100  1.00  0.00     0.084 A 
HETATM    9  C   UNL     1     -43.707 -47.337   9.758  1.00  0.00     0.076 A 
HETATM   10  C   UNL     1     -44.778 -46.729   8.954  1.00  0.00     0.079 C 
HETATM   11  O   UNL     1     -42.669 -47.862   9.056  1.00  0.00    -0.241 OA
HETATM   12  N   UNL     1     -41.783 -48.452   9.925  1.00  0.00    -0.245 N 
ATOM     13  HN  UNL     1     -40.916 -48.930   9.680  1.00  0.00     0.196 HD
ENDBRANCH   1   7
BRANCH   4  14
HETATM   14  C   UNL     1     -43.956 -51.490  13.335  1.00  0.00     0.094 C 
BRANCH  14  15
HETATM   15  C   UNL     1     -45.441 -51.226  13.243  1.00  0.00     0.009 A 
HETATM   16  C   UNL     1     -46.348 -51.454  14.433  1.00  0.00     0.007 A 
HETATM   17  C   UNL     1     -46.422 -52.371  13.246  1.00  0.00     0.007 A 
ENDBRANCH  14  15
BRANCH  14  18
HETATM   18  C   UNL     1     -43.595 -52.784  12.652  1.00  0.00     0.009 A 
HETATM   19  C   UNL     1     -43.278 -54.018  13.459  1.00  0.00     0.007 A 
HETATM   20  C   UNL     1     -42.184 -53.311  12.710  1.00  0.00     0.007 A 
ENDBRANCH  14  18
ENDBRANCH   4  14
TORSDOF 4
ENDMDL
MODEL 3
REMARK VINA RESULT:      -5.6      3.883      5.780
REMARK  4 active torsions:
REMARK  status: ('A' for Active; 'I' for Inactive)
REMARK    1  A    between atoms: C_4  and  N_5 
REMARK       I    between atoms: N_5  and  C_6 
REMARK       I    between atoms: C_6  and  N_8 
REMARK    2  A    between atoms: N_8  and  C_9 
REMARK    3  A    between atoms: C_9  and  C_10 
REMARK    4  A    between atoms: C_9  and  C_13 
ROOT
HETATM    1  N   UNL     1     -43.046 -53.049  11.893  1.00  0.00    -0.293 N 
HETATM    2  C   UNL     1     -44.055 -53.272  12.790  1.00  0.00     0.322 C 
HETATM    3  O   UNL     1     -44.968 -54.042  12.501  1.00  0.00    -0.247 OA
HETATM    4  N   UNL     1     -43.920 -52.676  14.002  1.00  0.00    -0.337 N 
HETATM    5  H   UNL     1     -43.088 -53.626  11.066  1.00  0.00     0.172 HD
HETATM    6  H   UNL     1     -43.231 -51.937  14.067  1.00  0.00     0.164 HD
ENDROOT
BRANCH   1   7
HETATM    7  C   UNL     1     -41.955 -52.218  12.062  1.00  0.00     0.132 A 
HETATM    8  C   UNL     1     -40.695 -52.620  12.562  1.00  0.00     0.084 A 
HETATM    9  C   UNL     1     -39.961 -51.459  12.624  1.00  0.00     0.076 A 
HETATM   10  C   UNL     1     -38.620 -51.094  13.103  1.00  0.00     0.079 C 
HETATM   11  O   UNL     1     -40.711 -50.436  12.137  1.00  0.00    -0.241 OA
HETATM   12  N   UNL     1     -41.955 -50.906  11.791  1.00  0.00    -0.245 N 
ATOM     13  HN  UNL     1     -42.727 -50.363  11.405  1.00  0.00     0.196 HD
ENDBRANCH   1   7
BRANCH   4  14
HETATM   14  C   UNL     1     -44.810 -52.847  15.119  1.00  0.00     0.094 C 
BRANCH  14  15
HETATM   15  C   UNL     1     -43.958 -52.981  16.361  1.00  0.00     0.009 A 
HETATM   16  C   UNL     1     -44.046 -54.212  17.235  1.00  0.00     0.007 A 
HETATM   17  C   UNL     1     -44.586 -52.901  17.729  1.00  0.00     0.007 A 
ENDBRANCH  14  15
BRANCH  14  18
HETATM   18  C   UNL     1     -45.698 -51.633  15.204  1.00  0.00     0.009 A 
HETATM   19  C   UNL     1     -47.171 -51.776  15.493  1.00  0.00     0.007 A 
HETATM   20  C   UNL     1     -46.713 -51.352  14.126  1.00  0.00     0.007 A 
ENDBRANCH  14  18
ENDBRANCH   4  14
TORSDOF 4
ENDMDL
MODEL 4
REMARK VINA RESULT:      -5.3      3.245      6.039
REMARK  4 active torsions:
REMARK  status: ('A' for Active; 'I' for Inactive)
REMARK    1  A    between atoms: C_4  and  N_5 
REMARK       I    between atoms: N_5  and  C_6 
REMARK       I    between atoms: C_6  and  N_8 
REMARK    2  A    between atoms: N_8  and  C_9 
REMARK    3  A    between atoms: C_9  and  C_10 
REMARK    4  A    between atoms: C_9  and  C_13 
ROOT
HETATM    1  N   UNL     1     -41.087 -49.337  10.427  1.00  0.00    -0.293 N 
HETATM    2  C   UNL     1     -41.513 -48.042  10.544  1.00  0.00     0.322 C 
HETATM    3  O   UNL     1     -42.381 -47.614   9.787  1.00  0.00    -0.247 OA
HETATM    4  N   UNL     1     -40.993 -47.333  11.579  1.00  0.00    -0.337 N 
HETATM    5  H   UNL     1     -41.603 -49.886   9.755  1.00  0.00     0.172 HD
HETATM    6  H   UNL     1     -40.172 -47.723  12.025  1.00  0.00     0.164 HD
ENDROOT
BRANCH   1   7
HETATM    7  C   UNL     1     -40.127 -49.966  11.193  1.00  0.00     0.132 A 
HETATM    8  C   UNL     1     -40.382 -50.716  12.365  1.00  0.00     0.084 A 
HETATM    9  C   UNL     1     -39.138 -51.080  12.821  1.00  0.00     0.076 A 
HETATM   10  C   UNL     1     -38.623 -51.790  14.001  1.00  0.00     0.079 C 
HETATM   11  O   UNL     1     -38.198 -50.630  11.949  1.00  0.00    -0.241 OA
HETATM   12  N   UNL     1     -38.812 -49.932  10.937  1.00  0.00    -0.245 N 
ATOM     13  HN  UNL     1     -38.357 -49.476  10.146  1.00  0.00     0.196 HD
ENDBRANCH   1   7
BRANCH   4  14
HETATM   14  C   UNL     1     -41.366 -45.993  11.944  1.00  0.00     0.094 C 
BRANCH  14  15
HETATM   15  C   UNL     1     -41.739 -46.008  13.408  1.00  0.00     0.009 A 
HETATM   16  C   UNL     1     -43.166 -45.766  13.850  1.00  0.00     0.007 A 
HETATM   17  C   UNL     1     -42.112 -44.729  14.114  1.00  0.00     0.007 A 
ENDBRANCH  14  15
BRANCH  14  18
HETATM   18  C   UNL     1     -40.184 -45.091  11.698  1.00  0.00     0.009 A 
HETATM   19  C   UNL     1     -40.355 -43.778  10.976  1.00  0.00     0.007 A 
HETATM   20  C   UNL     1     -39.635 -44.913  10.306  1.00  0.00     0.007 A 
ENDBRANCH  14  18
ENDBRANCH   4  14
TORSDOF 4
ENDMDL
MODEL 5
REMARK VINA RESULT:      -5.2      3.953      5.418
REMARK  4 active torsions:
REMARK  status: ('A' for Active; 'I' for Inactive)
REMARK    1  A    between atoms: C_4  and  N_5 
REMARK       I    between atoms: N_5  and  C_6 
REMARK       I    between atoms: C_6  and  N_8 
REMARK    2  A    between atoms: N_8  and  C_9 
REMARK    3  A    between atoms: C_9  and  C_10 
REMARK    4  A    between atoms: C_9  and  C_13 
ROOT
HETATM    1  N   UNL     1     -42.407 -52.753  11.641  1.00  0.00    -0.293 N 
HETATM    2  C   UNL     1     -43.486 -52.895  12.470  1.00  0.00     0.322 C 
HETATM    3  O   UNL     1     -44.433 -53.598  12.124  1.00  0.00    -0.247 OA
HETATM    4  N   UNL     1     -43.385 -52.305  13.688  1.00  0.00    -0.337 N 
HETATM    5  H   UNL     1     -42.438 -53.330  10.813  1.00  0.00     0.172 HD
HETATM    6  H   UNL     1     -42.648 -51.618  13.797  1.00  0.00     0.164 HD
ENDROOT
BRANCH   1   7
HETATM    7  C   UNL     1     -41.271 -52.005  11.879  1.00  0.00     0.132 A 
HETATM    8  C   UNL     1     -40.285 -52.307  12.847  1.00  0.00     0.084 A 
HETATM    9  C   UNL     1     -39.399 -51.258  12.776  1.00  0.00     0.076 A 
HETATM   10  C   UNL     1     -38.192 -50.857  13.515  1.00  0.00     0.079 C 
HETATM   11  O   UNL     1     -39.792 -50.412  11.789  1.00  0.00    -0.241 OA
HETATM   12  N   UNL     1     -40.961 -50.873  11.232  1.00  0.00    -0.245 N 
ATOM     13  HN  UNL     1     -41.490 -50.439  10.476  1.00  0.00     0.196 HD
ENDBRANCH   1   7
BRANCH   4  14
HETATM   14  C   UNL     1     -44.355 -52.402  14.746  1.00  0.00     0.094 C 
BRANCH  14  15
HETATM   15  C   UNL     1     -45.697 -52.017  14.167  1.00  0.00     0.009 A 
HETATM   16  C   UNL     1     -46.755 -51.359  15.026  1.00  0.00     0.007 A 
HETATM   17  C   UNL     1     -46.942 -52.773  14.557  1.00  0.00     0.007 A 
ENDBRANCH  14  15
BRANCH  14  18
HETATM   18  C   UNL     1     -44.370 -53.824  15.243  1.00  0.00     0.009 A 
HETATM   19  C   UNL     1     -44.148 -54.131  16.703  1.00  0.00     0.007 A 
HETATM   20  C   UNL     1     -43.095 -54.490  15.693  1.00  0.00     0.007 A 
ENDBRANCH  14  18
ENDBRANCH   4  14
TORSDOF 4
ENDMDL
MODEL 6
REMARK VINA RESULT:      -5.1      3.340      4.417
REMARK  4 active torsions:
REMARK  status: ('A' for Active; 'I' for Inactive)
REMARK    1  A    between atoms: C_4  and  N_5 
REMARK       I    between atoms: N_5  and  C_6 
REMARK       I    between atoms: C_6  and  N_8 
REMARK    2  A    between atoms: N_8  and  C_9 
REMARK    3  A    between atoms: C_9  and  C_10 
REMARK    4  A    between atoms: C_9  and  C_13 
ROOT
HETATM    1  N   UNL     1     -38.196 -50.220  11.389  1.00  0.00    -0.293 N 
HETATM    2  C   UNL     1     -37.927 -51.120  12.383  1.00  0.00     0.322 C 
HETATM    3  O   UNL     1     -36.841 -51.694  12.408  1.00  0.00    -0.247 OA
HETATM    4  N   UNL     1     -38.874 -51.248  13.347  1.00  0.00    -0.337 N 
HETATM    5  H   UNL     1     -37.416 -50.026  10.779  1.00  0.00     0.172 HD
HETATM    6  H   UNL     1     -39.787 -50.864  13.136  1.00  0.00     0.164 HD
ENDROOT
BRANCH   1   7
HETATM    7  C   UNL     1     -39.360 -49.496  11.218  1.00  0.00     0.132 A 
HETATM    8  C   UNL     1     -39.644 -48.254  11.831  1.00  0.00     0.084 A 
HETATM    9  C   UNL     1     -40.927 -47.958  11.436  1.00  0.00     0.076 A 
HETATM   10  C   UNL     1     -41.892 -46.889  11.732  1.00  0.00     0.079 C 
HETATM   11  O   UNL     1     -41.364 -48.929  10.592  1.00  0.00    -0.241 OA
HETATM   12  N   UNL     1     -40.391 -49.890  10.460  1.00  0.00    -0.245 N 
ATOM     13  HN  UNL     1     -40.444 -50.738   9.895  1.00  0.00     0.196 HD
ENDBRANCH   1   7
BRANCH   4  14
HETATM   14  C   UNL     1     -38.761 -52.063  14.527  1.00  0.00     0.094 C 
BRANCH  14  15
HETATM   15  C   UNL     1     -38.784 -51.137  15.722  1.00  0.00     0.009 A 
HETATM   16  C   UNL     1     -37.789 -51.299  16.850  1.00  0.00     0.007 A 
HETATM   17  C   UNL     1     -39.235 -51.641  17.068  1.00  0.00     0.007 A 
ENDBRANCH  14  15
BRANCH  14  18
HETATM   18  C   UNL     1     -39.930 -53.013  14.558  1.00  0.00     0.009 A 
HETATM   19  C   UNL     1     -39.710 -54.505  14.547  1.00  0.00     0.007 A 
HETATM   20  C   UNL     1     -40.288 -53.824  13.339  1.00  0.00     0.007 A 
ENDBRANCH  14  18
ENDBRANCH   4  14
TORSDOF 4
ENDMDL
MODEL 7
REMARK VINA RESULT:      -5.1      4.885      6.655
REMARK  4 active torsions:
REMARK  status: ('A' for Active; 'I' for Inactive)
REMARK    1  A    between atoms: C_4  and  N_5 
REMARK       I    between atoms: N_5  and  C_6 
REMARK       I    between atoms: C_6  and  N_8 
REMARK    2  A    between atoms: N_8  and  C_9 
REMARK    3  A    between atoms: C_9  and  C_10 
REMARK    4  A    between atoms: C_9  and  C_13 
ROOT
HETATM    1  N   UNL     1     -42.583 -54.758  14.403  1.00  0.00    -0.293 N 
HETATM    2  C   UNL     1     -43.765 -54.250  14.870  1.00  0.00     0.322 C 
HETATM    3  O   UNL     1     -44.624 -55.010  15.311  1.00  0.00    -0.247 OA
HETATM    4  N   UNL     1     -43.866 -52.896  14.895  1.00  0.00    -0.337 N 
HETATM    5  H   UNL     1     -42.471 -55.751  14.544  1.00  0.00     0.172 HD
HETATM    6  H   UNL     1     -43.180 -52.383  14.354  1.00  0.00     0.164 HD
ENDROOT
BRANCH   1   7
HETATM    7  C   UNL     1     -41.524 -54.044  13.878  1.00  0.00     0.132 A 
HETATM    8  C   UNL     1     -40.506 -53.421  14.637  1.00  0.00     0.084 A 
HETATM    9  C   UNL     1     -39.727 -52.776  13.706  1.00  0.00     0.076 A 
HETATM   10  C   UNL     1     -38.560 -51.882  13.758  1.00  0.00     0.079 C 
HETATM   11  O   UNL     1     -40.209 -53.043  12.465  1.00  0.00    -0.241 OA
HETATM   12  N   UNL     1     -41.331 -53.828  12.570  1.00  0.00    -0.245 N 
ATOM     13  HN  UNL     1     -41.905 -54.179  11.803  1.00  0.00     0.196 HD
ENDBRANCH   1   7
BRANCH   4  14
HETATM   14  C   UNL     1     -44.975 -52.152  15.427  1.00  0.00     0.094 C 
BRANCH  14  15
HETATM   15  C   UNL     1     -44.453 -51.319  16.575  1.00  0.00     0.009 A 
HETATM   16  C   UNL     1     -45.155 -51.313  17.915  1.00  0.00     0.007 A 
HETATM   17  C   UNL     1     -45.205 -50.097  17.036  1.00  0.00     0.007 A 
ENDBRANCH  14  15
BRANCH  14  18
HETATM   18  C   UNL     1     -45.524 -51.275  14.332  1.00  0.00     0.009 A 
HETATM   19  C   UNL     1     -46.952 -51.422  13.871  1.00  0.00     0.007 A 
HETATM   20  C   UNL     1     -45.827 -51.850  12.972  1.00  0.00     0.007 A 
ENDBRANCH  14  18
ENDBRANCH   4  14
TORSDOF 4
ENDMDL
MODEL 8
REMARK VINA RESULT:      -4.9      3.054      5.400
REMARK  4 active torsions:
REMARK  status: ('A' for Active; 'I' for Inactive)
REMARK    1  A    between atoms: C_4  and  N_5 
REMARK       I    between atoms: N_5  and  C_6 
REMARK       I    between atoms: C_6  and  N_8 
REMARK    2  A    between atoms: N_8  and  C_9 
REMARK    3  A    between atoms: C_9  and  C_10 
REMARK    4  A    between atoms: C_9  and  C_13 
ROOT
HETATM    1  N   UNL     1     -40.975 -51.787  11.463  1.00  0.00    -0.293 N 
HETATM    2  C   UNL     1     -40.673 -50.480  11.734  1.00  0.00     0.322 C 
HETATM    3  O   UNL     1     -39.858 -49.885  11.033  1.00  0.00    -0.247 OA
HETATM    4  N   UNL     1     -41.384 -49.896  12.731  1.00  0.00    -0.337 N 
HETATM    5  H   UNL     1     -40.552 -52.147  10.621  1.00  0.00     0.172 HD
HETATM    6  H   UNL     1     -41.895 -50.519  13.346  1.00  0.00     0.164 HD
ENDROOT
BRANCH   1   7
HETATM    7  C   UNL     1     -41.862 -52.592  12.151  1.00  0.00     0.132 A 
HETATM    8  C   UNL     1     -41.584 -53.256  13.368  1.00  0.00     0.084 A 
HETATM    9  C   UNL     1     -42.717 -53.988  13.630  1.00  0.00     0.076 A 
HETATM   10  C   UNL     1     -43.122 -54.958  14.658  1.00  0.00     0.079 C 
HETATM   11  O   UNL     1     -43.640 -53.735  12.665  1.00  0.00    -0.241 OA
HETATM   12  N   UNL     1     -43.106 -52.870  11.740  1.00  0.00    -0.245 N 
ATOM     13  HN  UNL     1     -43.567 -52.509  10.904  1.00  0.00     0.196 HD
ENDBRANCH   1   7
BRANCH   4  14
HETATM   14  C   UNL     1     -41.297 -48.515  13.121  1.00  0.00     0.094 C 
BRANCH  14  15
HETATM   15  C   UNL     1     -42.690 -47.933  13.049  1.00  0.00     0.009 A 
HETATM   16  C   UNL     1     -42.968 -46.673  12.259  1.00  0.00     0.007 A 
HETATM   17  C   UNL     1     -43.017 -46.645  13.760  1.00  0.00     0.007 A 
ENDBRANCH  14  15
BRANCH  14  18
HETATM   18  C   UNL     1     -40.760 -48.454  14.528  1.00  0.00     0.009 A 
HETATM   19  C   UNL     1     -39.557 -47.606  14.856  1.00  0.00     0.007 A 
HETATM   20  C   UNL     1     -39.444 -49.104  14.872  1.00  0.00     0.007 A 
ENDBRANCH  14  18
ENDBRANCH   4  14
TORSDOF 4
ENDMDL
MODEL 9
REMARK VINA RESULT:      -4.7     14.243     16.555
REMARK  4 active torsions:
REMARK  status: ('A' for Active; 'I' for Inactive)
REMARK    1  A    between atoms: C_4  and  N_5 
REMARK       I    between atoms: N_5  and  C_6 
REMARK       I    between atoms: C_6  and  N_8 
REMARK    2  A    between atoms: N_8  and  C_9 
REMARK    3  A    between atoms: C_9  and  C_10 
REMARK    4  A    between atoms: C_9  and  C_13 
ROOT
HETATM    1  N   UNL     1     -48.222 -54.225  -2.306  1.00  0.00    -0.293 N 
HETATM    2  C   UNL     1     -48.907 -53.539  -1.340  1.00  0.00     0.322 C 
HETATM    3  O   UNL     1     -48.290 -52.957  -0.451  1.00  0.00    -0.247 OA
HETATM    4  N   UNL     1     -50.255 -53.477  -1.493  1.00  0.00    -0.337 N 
HETATM    5  H   UNL     1     -47.219 -54.121  -2.259  1.00  0.00     0.172 HD
HETATM    6  H   UNL     1     -50.664 -54.129  -2.152  1.00  0.00     0.164 HD
ENDROOT
BRANCH   1   7
HETATM    7  C   UNL     1     -48.762 -54.927  -3.365  1.00  0.00     0.132 A 
HETATM    8  C   UNL     1     -49.233 -56.259  -3.303  1.00  0.00     0.084 A 
HETATM    9  C   UNL     1     -49.602 -56.556  -4.594  1.00  0.00     0.076 A 
HETATM   10  C   UNL     1     -50.099 -57.752  -5.291  1.00  0.00     0.079 C 
HETATM   11  O   UNL     1     -49.421 -55.456  -5.369  1.00  0.00    -0.241 OA
HETATM   12  N   UNL     1     -48.893 -54.442  -4.606  1.00  0.00    -0.245 N 
ATOM     13  HN  UNL     1     -48.649 -53.504  -4.923  1.00  0.00     0.196 HD
ENDBRANCH   1   7
BRANCH   4  14
HETATM   14  C   UNL     1     -51.157 -52.738  -0.652  1.00  0.00     0.094 C 
BRANCH  14  15
HETATM   15  C   UNL     1     -50.949 -51.269  -0.945  1.00  0.00     0.009 A 
HETATM   16  C   UNL     1     -50.583 -50.301   0.158  1.00  0.00     0.007 A 
HETATM   17  C   UNL     1     -51.948 -50.247  -0.466  1.00  0.00     0.007 A 
ENDBRANCH  14  15
BRANCH  14  18
HETATM   18  C   UNL     1     -52.565 -53.159  -0.985  1.00  0.00     0.009 A 
HETATM   19  C   UNL     1     -53.187 -54.360  -0.317  1.00  0.00     0.007 A 
HETATM   20  C   UNL     1     -52.819 -54.419  -1.772  1.00  0.00     0.007 A 
ENDBRANCH  14  18
ENDBRANCH   4  14
TORSDOF 4
ENDMDL
