MODEL 1
REMARK VINA RESULT:      -5.3      0.000      0.000
REMARK  5 active torsions:
REMARK  status: ('A' for Active; 'I' for Inactive)
REMARK    1  A    between atoms: N_4  and  C_5 
REMARK    2  A    between atoms: C_5  and  C_6 
REMARK    3  A    between atoms: C_6  and  O_7 
REMARK    4  A    between atoms: O_7  and  C_8 
REMARK    5  A    between atoms: C_8  and  C_9 
ROOT
HETATM    1 CL   UNL     1     -46.224 -51.383  13.770  1.00  0.00    -0.077 Cl
HETATM    2  C   UNL     1     -44.648 -51.828  13.262  1.00  0.00     0.117 A 
HETATM    3  C   UNL     1     -43.612 -50.985  13.332  1.00  0.00     0.125 A 
HETATM    4  N   UNL     1     -42.340 -51.333  12.913  1.00  0.00    -0.306 N 
HETATM    5  C   UNL     1     -42.065 -52.600  12.397  1.00  0.00     0.329 A 
HETATM    6  O   UNL     1     -40.981 -52.953  11.943  1.00  0.00    -0.246 OA
HETATM    7  N   UNL     1     -43.125 -53.473  12.378  1.00  0.00    -0.274 N 
HETATM    8  C   UNL     1     -44.425 -53.180  12.693  1.00  0.00     0.272 A 
HETATM    9  O   UNL     1     -45.330 -53.983  12.493  1.00  0.00    -0.266 OA
HETATM   10  H   UNL     1     -42.950 -54.373  11.961  1.00  0.00     0.173 HD
ENDROOT
BRANCH   4  11
HETATM   11  C   UNL     1     -41.268 -50.325  12.913  1.00  0.00     0.159 C 
BRANCH  11  12
HETATM   12  C   UNL     1     -41.081 -49.567  11.594  1.00  0.00     0.188 C 
BRANCH  12  13
HETATM   13  O   UNL     1     -41.802 -48.337  11.624  1.00  0.00    -0.387 OA
BRANCH  13  14
HETATM   14  C   UNL     1     -41.473 -47.502  10.511  1.00  0.00     0.199 C 
BRANCH  14  15
HETATM   15  C   UNL     1     -42.755 -47.070   9.808  1.00  0.00     0.145 C 
HETATM   16  C   UNL     1     -44.005 -47.272  10.651  1.00  0.00     0.036 C 
HETATM   17  C   UNL     1     -45.081 -47.631   9.647  1.00  0.00     0.029 C 
HETATM   18  C   UNL     1     -44.367 -47.672   8.310  1.00  0.00     0.168 C 
HETATM   19  O   UNL     1     -42.977 -47.832   8.613  1.00  0.00    -0.384 OA
ENDBRANCH  14  15
ENDBRANCH  13  14
ENDBRANCH  12  13
ENDBRANCH  11  12
ENDBRANCH   4  11
TORSDOF 5
ENDMDL
MODEL 2
REMARK VINA RESULT:      -5.2      4.863      6.481
REMARK  5 active torsions:
REMARK  status: ('A' for Active; 'I' for Inactive)
REMARK    1  A    between atoms: N_4  and  C_5 
REMARK    2  A    between atoms: C_5  and  C_6 
REMARK    3  A    between atoms: C_6  and  O_7 
REMARK    4  A    between atoms: O_7  and  C_8 
REMARK    5  A    between atoms: C_8  and  C_9 
ROOT
HETATM    1 CL   UNL     1     -40.922 -55.841  17.262  1.00  0.00    -0.077 Cl
HETATM    2  C   UNL     1     -40.810 -54.997  15.773  1.00  0.00     0.117 A 
HETATM    3  C   UNL     1     -41.855 -54.358  15.236  1.00  0.00     0.125 A 
HETATM    4  N   UNL     1     -41.775 -53.686  14.029  1.00  0.00    -0.306 N 
HETATM    5  C   UNL     1     -40.584 -53.629  13.305  1.00  0.00     0.329 A 
HETATM    6  O   UNL     1     -40.459 -53.111  12.199  1.00  0.00    -0.246 OA
HETATM    7  N   UNL     1     -39.506 -54.244  13.891  1.00  0.00    -0.274 N 
HETATM    8  C   UNL     1     -39.523 -54.999  15.034  1.00  0.00     0.272 A 
HETATM    9  O   UNL     1     -38.542 -55.640  15.394  1.00  0.00    -0.266 OA
HETATM   10  H   UNL     1     -38.655 -54.253  13.354  1.00  0.00     0.173 HD
ENDROOT
BRANCH   4  11
HETATM   11  C   UNL     1     -42.987 -53.097  13.438  1.00  0.00     0.159 C 
BRANCH  11  12
HETATM   12  C   UNL     1     -43.791 -54.031  12.526  1.00  0.00     0.188 C 
BRANCH  12  13
HETATM   13  O   UNL     1     -45.189 -53.867  12.758  1.00  0.00    -0.387 OA
BRANCH  13  14
HETATM   14  C   UNL     1     -45.633 -54.634  13.879  1.00  0.00     0.199 C 
BRANCH  14  15
HETATM   15  C   UNL     1     -46.425 -53.736  14.823  1.00  0.00     0.145 C 
HETATM   16  C   UNL     1     -46.749 -52.372  14.231  1.00  0.00     0.036 C 
HETATM   17  C   UNL     1     -46.704 -51.428  15.416  1.00  0.00     0.029 C 
HETATM   18  C   UNL     1     -46.299 -52.297  16.590  1.00  0.00     0.168 C 
HETATM   19  O   UNL     1     -45.688 -53.461  16.023  1.00  0.00    -0.384 OA
ENDBRANCH  14  15
ENDBRANCH  13  14
ENDBRANCH  12  13
ENDBRANCH  11  12
ENDBRANCH   4  11
TORSDOF 5
ENDMDL
MODEL 3
REMARK VINA RESULT:      -5.1      2.662      5.873
REMARK  5 active torsions:
REMARK  status: ('A' for Active; 'I' for Inactive)
REMARK    1  A    between atoms: N_4  and  C_5 
REMARK    2  A    between atoms: C_5  and  C_6 
REMARK    3  A    between atoms: C_6  and  O_7 
REMARK    4  A    between atoms: O_7  and  C_8 
REMARK    5  A    between atoms: C_8  and  C_9 
ROOT
HETATM    1 CL   UNL     1     -45.212 -47.443   9.680  1.00  0.00    -0.077 Cl
HETATM    2  C   UNL     1     -43.566 -47.284  10.133  1.00  0.00     0.117 A 
HETATM    3  C   UNL     1     -42.950 -48.185  10.905  1.00  0.00     0.125 A 
HETATM    4  N   UNL     1     -41.625 -48.057  11.285  1.00  0.00    -0.306 N 
HETATM    5  C   UNL     1     -40.850 -46.974  10.870  1.00  0.00     0.329 A 
HETATM    6  O   UNL     1     -39.694 -46.762  11.223  1.00  0.00    -0.246 OA
HETATM    7  N   UNL     1     -41.478 -46.084  10.035  1.00  0.00    -0.274 N 
HETATM    8  C   UNL     1     -42.802 -46.093   9.685  1.00  0.00     0.272 A 
HETATM    9  O   UNL     1     -43.308 -45.166   9.063  1.00  0.00    -0.266 OA
HETATM   10  H   UNL     1     -40.945 -45.272   9.770  1.00  0.00     0.173 HD
ENDROOT
BRANCH   4  11
HETATM   11  C   UNL     1     -41.037 -49.024  12.226  1.00  0.00     0.159 C 
BRANCH  11  12
HETATM   12  C   UNL     1     -41.751 -50.379  12.303  1.00  0.00     0.188 C 
BRANCH  12  13
HETATM   13  O   UNL     1     -42.018 -50.720  13.662  1.00  0.00    -0.387 OA
BRANCH  13  14
HETATM   14  C   UNL     1     -42.901 -51.840  13.763  1.00  0.00     0.199 C 
BRANCH  14  15
HETATM   15  C   UNL     1     -44.310 -51.409  13.371  1.00  0.00     0.145 C 
HETATM   16  C   UNL     1     -45.184 -51.041  14.561  1.00  0.00     0.036 C 
HETATM   17  C   UNL     1     -46.575 -51.481  14.155  1.00  0.00     0.029 C 
HETATM   18  C   UNL     1     -46.398 -52.125  12.794  1.00  0.00     0.168 C 
HETATM   19  O   UNL     1     -45.011 -52.466  12.700  1.00  0.00    -0.384 OA
ENDBRANCH  14  15
ENDBRANCH  13  14
ENDBRANCH  12  13
ENDBRANCH  11  12
ENDBRANCH   4  11
TORSDOF 5
ENDMDL
MODEL 4
REMARK VINA RESULT:      -5.1      2.684      6.243
REMARK  5 active torsions:
REMARK  status: ('A' for Active; 'I' for Inactive)
REMARK    1  A    between atoms: N_4  and  C_5 
REMARK    2  A    between atoms: C_5  and  C_6 
REMARK    3  A    between atoms: C_6  and  O_7 
REMARK    4  A    between atoms: O_7  and  C_8 
REMARK    5  A    between atoms: C_8  and  C_9 
ROOT
HETATM    1 CL   UNL     1     -45.368 -47.519   9.527  1.00  0.00    -0.077 Cl
HETATM    2  C   UNL     1     -43.730 -47.300   9.985  1.00  0.00     0.117 A 
HETATM    3  C   UNL     1     -43.080 -48.183  10.751  1.00  0.00     0.125 A 
HETATM    4  N   UNL     1     -41.762 -48.007  11.135  1.00  0.00    -0.306 N 
HETATM    5  C   UNL     1     -41.029 -46.891  10.730  1.00  0.00     0.329 A 
HETATM    6  O   UNL     1     -39.883 -46.637  11.088  1.00  0.00    -0.246 OA
HETATM    7  N   UNL     1     -41.691 -46.019   9.902  1.00  0.00    -0.274 N 
HETATM    8  C   UNL     1     -43.013 -46.077   9.548  1.00  0.00     0.272 A 
HETATM    9  O   UNL     1     -43.553 -45.164   8.933  1.00  0.00    -0.266 OA
HETATM   10  H   UNL     1     -41.189 -45.185   9.644  1.00  0.00     0.173 HD
ENDROOT
BRANCH   4  11
HETATM   11  C   UNL     1     -41.139 -48.958  12.068  1.00  0.00     0.159 C 
BRANCH  11  12
HETATM   12  C   UNL     1     -40.240 -50.018  11.420  1.00  0.00     0.188 C 
BRANCH  12  13
HETATM   13  O   UNL     1     -40.589 -51.318  11.892  1.00  0.00    -0.387 OA
BRANCH  13  14
HETATM   14  C   UNL     1     -41.936 -51.364  12.367  1.00  0.00     0.199 C 
BRANCH  14  15
HETATM   15  C   UNL     1     -42.336 -52.815  12.611  1.00  0.00     0.145 C 
HETATM   16  C   UNL     1     -43.825 -53.071  12.433  1.00  0.00     0.036 C 
HETATM   17  C   UNL     1     -44.147 -54.140  13.457  1.00  0.00     0.029 C 
HETATM   18  C   UNL     1     -42.843 -54.381  14.191  1.00  0.00     0.168 C 
HETATM   19  O   UNL     1     -42.041 -53.219  13.956  1.00  0.00    -0.384 OA
ENDBRANCH  14  15
ENDBRANCH  13  14
ENDBRANCH  12  13
ENDBRANCH  11  12
ENDBRANCH   4  11
TORSDOF 5
ENDMDL
MODEL 5
REMARK VINA RESULT:      -5.0      4.355      5.992
REMARK  5 active torsions:
REMARK  status: ('A' for Active; 'I' for Inactive)
REMARK    1  A    between atoms: N_4  and  C_5 
REMARK    2  A    between atoms: C_5  and  C_6 
REMARK    3  A    between atoms: C_6  and  O_7 
REMARK    4  A    between atoms: O_7  and  C_8 
REMARK    5  A    between atoms: C_8  and  C_9 
ROOT
HETATM    1 CL   UNL     1     -40.351 -54.062  14.477  1.00  0.00    -0.077 Cl
HETATM    2  C   UNL     1     -41.888 -53.777  13.771  1.00  0.00     0.117 A 
HETATM    3  C   UNL     1     -43.020 -54.227  14.324  1.00  0.00     0.125 A 
HETATM    4  N   UNL     1     -44.263 -54.011  13.754  1.00  0.00    -0.306 N 
HETATM    5  C   UNL     1     -44.404 -53.298  12.563  1.00  0.00     0.329 A 
HETATM    6  O   UNL     1     -45.463 -53.129  11.967  1.00  0.00    -0.246 OA
HETATM    7  N   UNL     1     -43.240 -52.797  12.033  1.00  0.00    -0.274 N 
HETATM    8  C   UNL     1     -41.970 -53.037  12.488  1.00  0.00     0.272 A 
HETATM    9  O   UNL     1     -40.984 -52.678  11.855  1.00  0.00    -0.266 OA
HETATM   10  H   UNL     1     -43.323 -52.324  11.148  1.00  0.00     0.173 HD
ENDROOT
BRANCH   4  11
HETATM   11  C   UNL     1     -45.458 -54.626  14.352  1.00  0.00     0.159 C 
BRANCH  11  12
HETATM   12  C   UNL     1     -46.153 -53.789  15.433  1.00  0.00     0.188 C 
BRANCH  12  13
HETATM   13  O   UNL     1     -47.213 -53.025  14.861  1.00  0.00    -0.387 OA
BRANCH  13  14
HETATM   14  C   UNL     1     -46.914 -51.627  14.855  1.00  0.00     0.199 C 
BRANCH  14  15
HETATM   15  C   UNL     1     -45.675 -51.371  15.706  1.00  0.00     0.145 C 
HETATM   16  C   UNL     1     -45.951 -50.512  16.932  1.00  0.00     0.036 C 
HETATM   17  C   UNL     1     -44.684 -49.701  17.113  1.00  0.00     0.029 C 
HETATM   18  C   UNL     1     -43.797 -50.100  15.951  1.00  0.00     0.168 C 
HETATM   19  O   UNL     1     -44.670 -50.663  14.966  1.00  0.00    -0.384 OA
ENDBRANCH  14  15
ENDBRANCH  13  14
ENDBRANCH  12  13
ENDBRANCH  11  12
ENDBRANCH   4  11
TORSDOF 5
ENDMDL
MODEL 6
REMARK VINA RESULT:      -5.0      3.818      7.069
REMARK  5 active torsions:
REMARK  status: ('A' for Active; 'I' for Inactive)
REMARK    1  A    between atoms: N_4  and  C_5 
REMARK    2  A    between atoms: C_5  and  C_6 
REMARK    3  A    between atoms: C_6  and  O_7 
REMARK    4  A    between atoms: O_7  and  C_8 
REMARK    5  A    between atoms: C_8  and  C_9 
ROOT
HETATM    1 CL   UNL     1     -38.923 -44.311  12.837  1.00  0.00    -0.077 Cl
HETATM    2  C   UNL     1     -39.902 -45.444  12.001  1.00  0.00     0.117 A 
HETATM    3  C   UNL     1     -40.320 -46.580  12.570  1.00  0.00     0.125 A 
HETATM    4  N   UNL     1     -41.100 -47.505  11.899  1.00  0.00    -0.306 N 
HETATM    5  C   UNL     1     -41.504 -47.296  10.580  1.00  0.00     0.329 A 
HETATM    6  O   UNL     1     -42.135 -48.101   9.903  1.00  0.00    -0.246 OA
HETATM    7  N   UNL     1     -41.112 -46.103  10.024  1.00  0.00    -0.274 N 
HETATM    8  C   UNL     1     -40.274 -45.179  10.590  1.00  0.00     0.272 A 
HETATM    9  O   UNL     1     -39.854 -44.219   9.953  1.00  0.00    -0.266 OA
HETATM   10  H   UNL     1     -41.355 -45.963   9.057  1.00  0.00     0.173 HD
ENDROOT
BRANCH   4  11
HETATM   11  C   UNL     1     -41.434 -48.785  12.543  1.00  0.00     0.159 C 
BRANCH  11  12
HETATM   12  C   UNL     1     -40.281 -49.461  13.295  1.00  0.00     0.188 C 
BRANCH  12  13
HETATM   13  O   UNL     1     -39.821 -50.601  12.571  1.00  0.00    -0.387 OA
BRANCH  13  14
HETATM   14  C   UNL     1     -40.886 -51.251  11.874  1.00  0.00     0.199 C 
BRANCH  14  15
HETATM   15  C   UNL     1     -40.891 -52.734  12.229  1.00  0.00     0.145 C 
HETATM   16  C   UNL     1     -42.122 -53.164  13.013  1.00  0.00     0.036 C 
HETATM   17  C   UNL     1     -41.613 -54.244  13.946  1.00  0.00     0.029 C 
HETATM   18  C   UNL     1     -40.123 -54.318  13.680  1.00  0.00     0.168 C 
HETATM   19  O   UNL     1     -39.774 -53.075  13.061  1.00  0.00    -0.384 OA
ENDBRANCH  14  15
ENDBRANCH  13  14
ENDBRANCH  12  13
ENDBRANCH  11  12
ENDBRANCH   4  11
TORSDOF 5
ENDMDL
MODEL 7
REMARK VINA RESULT:      -5.0      1.742      2.518
REMARK  5 active torsions:
REMARK  status: ('A' for Active; 'I' for Inactive)
REMARK    1  A    between atoms: N_4  and  C_5 
REMARK    2  A    between atoms: C_5  and  C_6 
REMARK    3  A    between atoms: C_6  and  O_7 
REMARK    4  A    between atoms: O_7  and  C_8 
REMARK    5  A    between atoms: C_8  and  C_9 
ROOT
HETATM    1 CL   UNL     1     -46.500 -51.663  13.824  1.00  0.00    -0.077 Cl
HETATM    2  C   UNL     1     -44.908 -51.870  13.220  1.00  0.00     0.117 A 
HETATM    3  C   UNL     1     -44.023 -50.868  13.189  1.00  0.00     0.125 A 
HETATM    4  N   UNL     1     -42.741 -51.024  12.692  1.00  0.00    -0.306 N 
HETATM    5  C   UNL     1     -42.295 -52.251  12.201  1.00  0.00     0.329 A 
HETATM    6  O   UNL     1     -41.199 -52.443  11.684  1.00  0.00    -0.246 OA
HETATM    7  N   UNL     1     -43.195 -53.284  12.286  1.00  0.00    -0.274 N 
HETATM    8  C   UNL     1     -44.503 -53.192  12.683  1.00  0.00     0.272 A 
HETATM    9  O   UNL     1     -45.274 -54.138  12.574  1.00  0.00    -0.266 OA
HETATM   10  H   UNL     1     -42.902 -54.161  11.888  1.00  0.00     0.173 HD
ENDROOT
BRANCH   4  11
HETATM   11  C   UNL     1     -41.852 -49.856  12.584  1.00  0.00     0.159 C 
BRANCH  11  12
HETATM   12  C   UNL     1     -42.521 -48.498  12.827  1.00  0.00     0.188 C 
BRANCH  12  13
HETATM   13  O   UNL     1     -42.688 -47.802  11.593  1.00  0.00    -0.387 OA
BRANCH  13  14
HETATM   14  C   UNL     1     -41.436 -47.553  10.952  1.00  0.00     0.199 C 
BRANCH  14  15
HETATM   15  C   UNL     1     -41.366 -46.089  10.532  1.00  0.00     0.145 C 
HETATM   16  C   UNL     1     -39.962 -45.504  10.607  1.00  0.00     0.036 C 
HETATM   17  C   UNL     1     -40.179 -44.060  11.011  1.00  0.00     0.029 C 
HETATM   18  C   UNL     1     -41.677 -43.929  11.199  1.00  0.00     0.168 C 
HETATM   19  O   UNL     1     -42.166 -45.261  11.388  1.00  0.00    -0.384 OA
ENDBRANCH  14  15
ENDBRANCH  13  14
ENDBRANCH  12  13
ENDBRANCH  11  12
ENDBRANCH   4  11
TORSDOF 5
ENDMDL
MODEL 8
REMARK VINA RESULT:      -4.9      4.240      5.873
REMARK  5 active torsions:
REMARK  status: ('A' for Active; 'I' for Inactive)
REMARK    1  A    between atoms: N_4  and  C_5 
REMARK    2  A    between atoms: C_5  and  C_6 
REMARK    3  A    between atoms: C_6  and  O_7 
REMARK    4  A    between atoms: O_7  and  C_8 
REMARK    5  A    between atoms: C_8  and  C_9 
ROOT
HETATM    1 CL   UNL     1     -37.090 -50.231  14.498  1.00  0.00    -0.077 Cl
HETATM    2  C   UNL     1     -38.402 -50.945  13.657  1.00  0.00     0.117 A 
HETATM    3  C   UNL     1     -39.001 -52.061  14.086  1.00  0.00     0.125 A 
HETATM    4  N   UNL     1     -40.053 -52.650  13.405  1.00  0.00    -0.306 N 
HETATM    5  C   UNL     1     -40.557 -52.099  12.227  1.00  0.00     0.329 A 
HETATM    6  O   UNL     1     -41.437 -52.603  11.537  1.00  0.00    -0.246 OA
HETATM    7  N   UNL     1     -39.968 -50.926  11.825  1.00  0.00    -0.274 N 
HETATM    8  C   UNL     1     -38.874 -50.329  12.392  1.00  0.00     0.272 A 
HETATM    9  O   UNL     1     -38.323 -49.368  11.867  1.00  0.00    -0.266 OA
HETATM   10  H   UNL     1     -40.289 -50.546  10.950  1.00  0.00     0.173 HD
ENDROOT
BRANCH   4  11
HETATM   11  C   UNL     1     -40.595 -53.937  13.870  1.00  0.00     0.159 C 
BRANCH  11  12
HETATM   12  C   UNL     1     -41.569 -53.849  15.051  1.00  0.00     0.188 C 
BRANCH  12  13
HETATM   13  O   UNL     1     -42.650 -52.974  14.735  1.00  0.00    -0.387 OA
BRANCH  13  14
HETATM   14  C   UNL     1     -43.669 -53.639  13.984  1.00  0.00     0.199 C 
BRANCH  14  15
HETATM   15  C   UNL     1     -44.549 -52.601  13.297  1.00  0.00     0.145 C 
HETATM   16  C   UNL     1     -45.347 -51.744  14.270  1.00  0.00     0.036 C 
HETATM   17  C   UNL     1     -46.648 -51.468  13.546  1.00  0.00     0.029 C 
HETATM   18  C   UNL     1     -46.537 -52.231  12.241  1.00  0.00     0.168 C 
HETATM   19  O   UNL     1     -45.527 -53.223  12.452  1.00  0.00    -0.384 OA
ENDBRANCH  14  15
ENDBRANCH  13  14
ENDBRANCH  12  13
ENDBRANCH  11  12
ENDBRANCH   4  11
TORSDOF 5
ENDMDL
MODEL 9
REMARK VINA RESULT:      -4.9      3.835      4.961
REMARK  5 active torsions:
REMARK  status: ('A' for Active; 'I' for Inactive)
REMARK    1  A    between atoms: N_4  and  C_5 
REMARK    2  A    between atoms: C_5  and  C_6 
REMARK    3  A    between atoms: C_6  and  O_7 
REMARK    4  A    between atoms: O_7  and  C_8 
REMARK    5  A    between atoms: C_8  and  C_9 
ROOT
HETATM    1 CL   UNL     1     -45.318 -50.329  16.502  1.00  0.00    -0.077 Cl
HETATM    2  C   UNL     1     -45.233 -51.616  15.373  1.00  0.00     0.117 A 
HETATM    3  C   UNL     1     -44.175 -51.794  14.574  1.00  0.00     0.125 A 
HETATM    4  N   UNL     1     -44.105 -52.824  13.652  1.00  0.00    -0.306 N 
HETATM    5  C   UNL     1     -45.140 -53.748  13.512  1.00  0.00     0.329 A 
HETATM    6  O   UNL     1     -45.175 -54.641  12.671  1.00  0.00    -0.246 OA
HETATM    7  N   UNL     1     -46.197 -53.585  14.373  1.00  0.00    -0.274 N 
HETATM    8  C   UNL     1     -46.380 -52.549  15.249  1.00  0.00     0.272 A 
HETATM    9  O   UNL     1     -47.432 -52.406  15.863  1.00  0.00    -0.266 OA
HETATM   10  H   UNL     1     -46.972 -54.215  14.247  1.00  0.00     0.173 HD
ENDROOT
BRANCH   4  11
HETATM   11  C   UNL     1     -42.963 -52.900  12.726  1.00  0.00     0.159 C 
BRANCH  11  12
HETATM   12  C   UNL     1     -41.751 -53.682  13.245  1.00  0.00     0.188 C 
BRANCH  12  13
HETATM   13  O   UNL     1     -40.559 -53.227  12.607  1.00  0.00    -0.387 OA
BRANCH  13  14
HETATM   14  C   UNL     1     -40.699 -51.893  12.113  1.00  0.00     0.199 C 
BRANCH  14  15
HETATM   15  C   UNL     1     -39.522 -51.051  12.592  1.00  0.00     0.145 C 
HETATM   16  C   UNL     1     -39.133 -49.947  11.619  1.00  0.00     0.036 C 
HETATM   17  C   UNL     1     -37.628 -49.838  11.758  1.00  0.00     0.029 C 
HETATM   18  C   UNL     1     -37.249 -50.921  12.749  1.00  0.00     0.168 C 
HETATM   19  O   UNL     1     -38.340 -51.849  12.751  1.00  0.00    -0.384 OA
ENDBRANCH  14  15
ENDBRANCH  13  14
ENDBRANCH  12  13
ENDBRANCH  11  12
ENDBRANCH   4  11
TORSDOF 5
ENDMDL
