MODEL 1
REMARK VINA RESULT:      -7.0      0.000      0.000
REMARK  4 active torsions:
REMARK  status: ('A' for Active; 'I' for Inactive)
REMARK    1  A    between atoms: C_4  and  N_5 
REMARK       I    between atoms: N_5  and  C_6 
REMARK       I    between atoms: C_6  and  N_8 
REMARK    2  A    between atoms: N_8  and  C_9 
REMARK    3  A    between atoms: C_9  and  C_10 
REMARK    4  A    between atoms: C_10  and  C_11 
ROOT
HETATM    1  N   UNL     1     -41.483 -47.898  10.213  1.00  0.00    -0.293 N 
HETATM    2  C   UNL     1     -41.083 -48.812  11.141  1.00  0.00     0.321 C 
HETATM    3  O   UNL     1     -39.948 -48.743  11.609  1.00  0.00    -0.247 OA
HETATM    4  N   UNL     1     -41.984 -49.763  11.511  1.00  0.00    -0.343 N 
HETATM    5  H   UNL     1     -40.782 -47.208   9.989  1.00  0.00     0.172 HD
HETATM    6  H   UNL     1     -42.858 -49.799  10.992  1.00  0.00     0.164 HD
ENDROOT
BRANCH   1   7
HETATM    7  C   UNL     1     -42.708 -47.805   9.589  1.00  0.00     0.132 A 
HETATM    8  C   UNL     1     -43.887 -47.312  10.199  1.00  0.00     0.084 A 
HETATM    9  C   UNL     1     -44.849 -47.419   9.223  1.00  0.00     0.076 A 
HETATM   10  C   UNL     1     -46.285 -47.114   9.137  1.00  0.00     0.079 C 
HETATM   11  O   UNL     1     -44.289 -47.935   8.101  1.00  0.00    -0.241 OA
HETATM   12  N   UNL     1     -42.952 -48.173   8.325  1.00  0.00    -0.245 N 
ATOM     13  HN  UNL     1     -42.280 -48.555   7.660  1.00  0.00     0.196 HD
ENDBRANCH   1   7
BRANCH   4  14
HETATM   14  C   UNL     1     -41.671 -50.796  12.469  1.00  0.00     0.128 C 
BRANCH  14  15
HETATM   15  C   UNL     1     -41.767 -52.200  11.867  1.00  0.00     0.053 C 
BRANCH  15  16
HETATM   16  C   UNL     1     -42.645 -53.095  12.713  1.00  0.00    -0.082 A 
HETATM   17  C   UNL     1     -43.948 -53.244  12.442  1.00  0.00    -0.024 A 
HETATM   18  C   UNL     1     -44.877 -54.130  13.196  1.00  0.00     0.027 A 
HETATM   19  C   UNL     1     -44.287 -54.936  14.347  1.00  0.00     0.004 A 
HETATM   20  C   UNL     1     -42.809 -54.762  14.684  1.00  0.00     0.005 A 
HETATM   21  C   UNL     1     -41.966 -53.801  13.848  1.00  0.00     0.034 A 
ENDBRANCH  15  16
ENDBRANCH  14  15
ENDBRANCH   4  14
TORSDOF 4
ENDMDL
MODEL 2
REMARK VINA RESULT:      -6.9      1.138      1.747
REMARK  4 active torsions:
REMARK  status: ('A' for Active; 'I' for Inactive)
REMARK    1  A    between atoms: C_4  and  N_5 
REMARK       I    between atoms: N_5  and  C_6 
REMARK       I    between atoms: C_6  and  N_8 
REMARK    2  A    between atoms: N_8  and  C_9 
REMARK    3  A    between atoms: C_9  and  C_10 
REMARK    4  A    between atoms: C_10  and  C_11 
ROOT
HETATM    1  N   UNL     1     -41.518 -47.590  10.244  1.00  0.00    -0.293 N 
HETATM    2  C   UNL     1     -40.942 -48.555  11.015  1.00  0.00     0.321 C 
HETATM    3  O   UNL     1     -39.852 -48.339  11.541  1.00  0.00    -0.247 OA
HETATM    4  N   UNL     1     -41.626 -49.722  11.170  1.00  0.00    -0.343 N 
HETATM    5  H   UNL     1     -40.977 -46.742  10.178  1.00  0.00     0.172 HD
HETATM    6  H   UNL     1     -42.467 -49.843  10.612  1.00  0.00     0.164 HD
ENDROOT
BRANCH   1   7
HETATM    7  C   UNL     1     -42.729 -47.641   9.588  1.00  0.00     0.132 A 
HETATM    8  C   UNL     1     -43.976 -47.312  10.173  1.00  0.00     0.084 A 
HETATM    9  C   UNL     1     -44.892 -47.520   9.170  1.00  0.00     0.076 A 
HETATM   10  C   UNL     1     -46.353 -47.398   9.050  1.00  0.00     0.079 C 
HETATM   11  O   UNL     1     -44.243 -47.941   8.056  1.00  0.00    -0.241 OA
HETATM   12  N   UNL     1     -42.893 -48.013   8.313  1.00  0.00    -0.245 N 
ATOM     13  HN  UNL     1     -42.162 -48.296   7.661  1.00  0.00     0.196 HD
ENDBRANCH   1   7
BRANCH   4  14
HETATM   14  C   UNL     1     -41.110 -50.824  11.946  1.00  0.00     0.128 C 
BRANCH  14  15
HETATM   15  C   UNL     1     -41.822 -50.975  13.292  1.00  0.00     0.053 C 
BRANCH  15  16
HETATM   16  C   UNL     1     -43.180 -51.618  13.119  1.00  0.00    -0.082 A 
HETATM   17  C   UNL     1     -43.299 -52.889  12.714  1.00  0.00    -0.024 A 
HETATM   18  C   UNL     1     -44.590 -53.613  12.552  1.00  0.00     0.027 A 
HETATM   19  C   UNL     1     -45.863 -52.847  12.895  1.00  0.00     0.004 A 
HETATM   20  C   UNL     1     -45.748 -51.391  13.338  1.00  0.00     0.005 A 
HETATM   21  C   UNL     1     -44.363 -50.755  13.439  1.00  0.00     0.034 A 
ENDBRANCH  15  16
ENDBRANCH  14  15
ENDBRANCH   4  14
TORSDOF 4
ENDMDL
MODEL 3
REMARK VINA RESULT:      -6.2      4.629      6.638
REMARK  4 active torsions:
REMARK  status: ('A' for Active; 'I' for Inactive)
REMARK    1  A    between atoms: C_4  and  N_5 
REMARK       I    between atoms: N_5  and  C_6 
REMARK       I    between atoms: C_6  and  N_8 
REMARK    2  A    between atoms: N_8  and  C_9 
REMARK    3  A    between atoms: C_9  and  C_10 
REMARK    4  A    between atoms: C_10  and  C_11 
ROOT
HETATM    1  N   UNL     1     -42.812 -54.716  14.180  1.00  0.00    -0.293 N 
HETATM    2  C   UNL     1     -44.125 -54.464  13.914  1.00  0.00     0.321 C 
HETATM    3  O   UNL     1     -44.992 -55.177  14.415  1.00  0.00    -0.247 OA
HETATM    4  N   UNL     1     -44.406 -53.410  13.100  1.00  0.00    -0.343 N 
HETATM    5  H   UNL     1     -42.663 -55.497  14.801  1.00  0.00     0.172 HD
HETATM    6  H   UNL     1     -43.618 -52.947  12.654  1.00  0.00     0.164 HD
ENDROOT
BRANCH   1   7
HETATM    7  C   UNL     1     -41.708 -54.028  13.726  1.00  0.00     0.132 A 
HETATM    8  C   UNL     1     -41.058 -52.990  14.437  1.00  0.00     0.084 A 
HETATM    9  C   UNL     1     -40.036 -52.593  13.607  1.00  0.00     0.076 A 
HETATM   10  C   UNL     1     -38.974 -51.578  13.674  1.00  0.00     0.079 C 
HETATM   11  O   UNL     1     -40.065 -53.342  12.477  1.00  0.00    -0.241 OA
HETATM   12  N   UNL     1     -41.105 -54.241  12.550  1.00  0.00    -0.245 N 
ATOM     13  HN  UNL     1     -41.365 -54.932  11.847  1.00  0.00     0.196 HD
ENDBRANCH   1   7
BRANCH   4  14
HETATM   14  C   UNL     1     -45.755 -53.056  12.729  1.00  0.00     0.128 C 
BRANCH  14  15
HETATM   15  C   UNL     1     -46.063 -51.579  12.986  1.00  0.00     0.053 C 
BRANCH  15  16
HETATM   16  C   UNL     1     -46.069 -51.276  14.468  1.00  0.00    -0.082 A 
HETATM   17  C   UNL     1     -47.144 -51.534  15.225  1.00  0.00    -0.024 A 
HETATM   18  C   UNL     1     -47.225 -51.302  16.693  1.00  0.00     0.027 A 
HETATM   19  C   UNL     1     -45.980 -50.749  17.379  1.00  0.00     0.004 A 
HETATM   20  C   UNL     1     -44.754 -50.429  16.528  1.00  0.00     0.005 A 
HETATM   21  C   UNL     1     -44.807 -50.689  15.025  1.00  0.00     0.034 A 
ENDBRANCH  15  16
ENDBRANCH  14  15
ENDBRANCH   4  14
TORSDOF 4
ENDMDL
MODEL 4
REMARK VINA RESULT:      -6.2      3.099      4.045
REMARK  4 active torsions:
REMARK  status: ('A' for Active; 'I' for Inactive)
REMARK    1  A    between atoms: C_4  and  N_5 
REMARK       I    between atoms: N_5  and  C_6 
REMARK       I    between atoms: C_6  and  N_8 
REMARK    2  A    between atoms: N_8  and  C_9 
REMARK    3  A    between atoms: C_9  and  C_10 
REMARK    4  A    between atoms: C_10  and  C_11 
ROOT
HETATM    1  N   UNL     1     -40.614 -50.553  11.096  1.00  0.00    -0.293 N 
HETATM    2  C   UNL     1     -41.384 -51.416  11.816  1.00  0.00     0.321 C 
HETATM    3  O   UNL     1     -41.104 -52.613  11.825  1.00  0.00    -0.247 OA
HETATM    4  N   UNL     1     -42.434 -50.892  12.504  1.00  0.00    -0.343 N 
HETATM    5  H   UNL     1     -39.841 -50.993  10.620  1.00  0.00     0.172 HD
HETATM    6  H   UNL     1     -42.644 -49.909  12.350  1.00  0.00     0.164 HD
ENDROOT
BRANCH   1   7
HETATM    7  C   UNL     1     -40.760 -49.188  10.973  1.00  0.00     0.132 A 
HETATM    8  C   UNL     1     -40.079 -48.231  11.764  1.00  0.00     0.084 A 
HETATM    9  C   UNL     1     -40.540 -47.019  11.309  1.00  0.00     0.076 A 
HETATM   10  C   UNL     1     -40.291 -45.612  11.657  1.00  0.00     0.079 C 
HETATM   11  O   UNL     1     -41.432 -47.229  10.310  1.00  0.00    -0.241 OA
HETATM   12  N   UNL     1     -41.569 -48.581  10.095  1.00  0.00    -0.245 N 
ATOM     13  HN  UNL     1     -42.168 -49.033   9.405  1.00  0.00     0.196 HD
ENDBRANCH   1   7
BRANCH   4  14
HETATM   14  C   UNL     1     -43.333 -51.707  13.286  1.00  0.00     0.128 C 
BRANCH  14  15
HETATM   15  C   UNL     1     -44.795 -51.286  13.124  1.00  0.00     0.053 C 
BRANCH  15  16
HETATM   16  C   UNL     1     -45.468 -51.135  14.470  1.00  0.00    -0.082 A 
HETATM   17  C   UNL     1     -46.745 -51.500  14.652  1.00  0.00    -0.024 A 
HETATM   18  C   UNL     1     -47.475 -51.421  15.946  1.00  0.00     0.027 A 
HETATM   19  C   UNL     1     -46.698 -50.907  17.152  1.00  0.00     0.004 A 
HETATM   20  C   UNL     1     -45.249 -50.467  16.960  1.00  0.00     0.005 A 
HETATM   21  C   UNL     1     -44.621 -50.573  15.572  1.00  0.00     0.034 A 
ENDBRANCH  15  16
ENDBRANCH  14  15
ENDBRANCH   4  14
TORSDOF 4
ENDMDL
MODEL 5
REMARK VINA RESULT:      -5.9      3.043      4.169
REMARK  4 active torsions:
REMARK  status: ('A' for Active; 'I' for Inactive)
REMARK    1  A    between atoms: C_4  and  N_5 
REMARK       I    between atoms: N_5  and  C_6 
REMARK       I    between atoms: C_6  and  N_8 
REMARK    2  A    between atoms: N_8  and  C_9 
REMARK    3  A    between atoms: C_9  and  C_10 
REMARK    4  A    between atoms: C_10  and  C_11 
ROOT
HETATM    1  N   UNL     1     -42.040 -46.804   9.929  1.00  0.00    -0.293 N 
HETATM    2  C   UNL     1     -41.094 -47.528  10.589  1.00  0.00     0.321 C 
HETATM    3  O   UNL     1     -40.160 -46.947  11.138  1.00  0.00    -0.247 OA
HETATM    4  N   UNL     1     -41.245 -48.881  10.612  1.00  0.00    -0.343 N 
HETATM    5  H   UNL     1     -41.887 -45.807   9.958  1.00  0.00     0.172 HD
HETATM    6  H   UNL     1     -41.992 -49.273  10.043  1.00  0.00     0.164 HD
ENDROOT
BRANCH   1   7
HETATM    7  C   UNL     1     -43.157 -47.271   9.269  1.00  0.00     0.132 A 
HETATM    8  C   UNL     1     -44.448 -47.370   9.843  1.00  0.00     0.084 A 
HETATM    9  C   UNL     1     -45.230 -47.892   8.841  1.00  0.00     0.076 A 
HETATM   10  C   UNL     1     -46.645 -48.271   8.713  1.00  0.00     0.079 C 
HETATM   11  O   UNL     1     -44.466 -48.089   7.738  1.00  0.00    -0.241 OA
HETATM   12  N   UNL     1     -43.173 -47.699   8.001  1.00  0.00    -0.245 N 
ATOM     13  HN  UNL     1     -42.382 -47.729   7.357  1.00  0.00     0.196 HD
ENDBRANCH   1   7
BRANCH   4  14
HETATM   14  C   UNL     1     -40.299 -49.756  11.262  1.00  0.00     0.128 C 
BRANCH  14  15
HETATM   15  C   UNL     1     -40.719 -50.116  12.688  1.00  0.00     0.053 C 
BRANCH  15  16
HETATM   16  C   UNL     1     -39.545 -50.033  13.638  1.00  0.00    -0.082 A 
HETATM   17  C   UNL     1     -39.289 -51.015  14.511  1.00  0.00    -0.024 A 
HETATM   18  C   UNL     1     -38.138 -51.035  15.456  1.00  0.00     0.027 A 
HETATM   19  C   UNL     1     -37.175 -49.854  15.401  1.00  0.00     0.004 A 
HETATM   20  C   UNL     1     -37.464 -48.715  14.427  1.00  0.00     0.005 A 
HETATM   21  C   UNL     1     -38.695 -48.803  13.528  1.00  0.00     0.034 A 
ENDBRANCH  15  16
ENDBRANCH  14  15
ENDBRANCH   4  14
TORSDOF 4
ENDMDL
MODEL 6
REMARK VINA RESULT:      -5.8      3.108      6.715
REMARK  4 active torsions:
REMARK  status: ('A' for Active; 'I' for Inactive)
REMARK    1  A    between atoms: C_4  and  N_5 
REMARK       I    between atoms: N_5  and  C_6 
REMARK       I    between atoms: C_6  and  N_8 
REMARK    2  A    between atoms: N_8  and  C_9 
REMARK    3  A    between atoms: C_9  and  C_10 
REMARK    4  A    between atoms: C_10  and  C_11 
ROOT
HETATM    1  N   UNL     1     -41.815 -52.681  12.810  1.00  0.00    -0.293 N 
HETATM    2  C   UNL     1     -40.912 -51.790  12.312  1.00  0.00     0.321 C 
HETATM    3  O   UNL     1     -39.710 -52.014  12.436  1.00  0.00    -0.247 OA
HETATM    4  N   UNL     1     -41.403 -50.686  11.685  1.00  0.00    -0.343 N 
HETATM    5  H   UNL     1     -41.396 -53.486  13.249  1.00  0.00     0.172 HD
HETATM    6  H   UNL     1     -42.409 -50.541  11.725  1.00  0.00     0.164 HD
ENDROOT
BRANCH   1   7
HETATM    7  C   UNL     1     -43.191 -52.611  12.759  1.00  0.00     0.132 A 
HETATM    8  C   UNL     1     -43.988 -51.798  13.600  1.00  0.00     0.084 A 
HETATM    9  C   UNL     1     -45.279 -52.059  13.208  1.00  0.00     0.076 A 
HETATM   10  C   UNL     1     -46.610 -51.598  13.629  1.00  0.00     0.079 C 
HETATM   11  O   UNL     1     -45.262 -52.962  12.196  1.00  0.00    -0.241 OA
HETATM   12  N   UNL     1     -43.960 -53.306  11.911  1.00  0.00    -0.245 N 
ATOM     13  HN  UNL     1     -43.643 -53.960  11.196  1.00  0.00     0.196 HD
ENDBRANCH   1   7
BRANCH   4  14
HETATM   14  C   UNL     1     -40.547 -49.663  11.134  1.00  0.00     0.128 C 
BRANCH  14  15
HETATM   15  C   UNL     1     -41.312 -48.384  10.790  1.00  0.00     0.053 C 
BRANCH  15  16
HETATM   16  C   UNL     1     -40.661 -47.175  11.424  1.00  0.00    -0.082 A 
HETATM   17  C   UNL     1     -40.056 -47.258  12.616  1.00  0.00    -0.024 A 
HETATM   18  C   UNL     1     -39.360 -46.132  13.297  1.00  0.00     0.027 A 
HETATM   19  C   UNL     1     -39.322 -44.795  12.565  1.00  0.00     0.004 A 
HETATM   20  C   UNL     1     -40.024 -44.676  11.215  1.00  0.00     0.005 A 
HETATM   21  C   UNL     1     -40.726 -45.902  10.634  1.00  0.00     0.034 A 
ENDBRANCH  15  16
ENDBRANCH  14  15
ENDBRANCH   4  14
TORSDOF 4
ENDMDL
MODEL 7
REMARK VINA RESULT:      -5.7      2.710      3.750
REMARK  4 active torsions:
REMARK  status: ('A' for Active; 'I' for Inactive)
REMARK    1  A    between atoms: C_4  and  N_5 
REMARK       I    between atoms: N_5  and  C_6 
REMARK       I    between atoms: C_6  and  N_8 
REMARK    2  A    between atoms: N_8  and  C_9 
REMARK    3  A    between atoms: C_9  and  C_10 
REMARK    4  A    between atoms: C_10  and  C_11 
ROOT
HETATM    1  N   UNL     1     -40.685 -51.053  11.359  1.00  0.00    -0.293 N 
HETATM    2  C   UNL     1     -40.901 -52.056  12.256  1.00  0.00     0.321 C 
HETATM    3  O   UNL     1     -40.533 -53.198  11.989  1.00  0.00    -0.247 OA
HETATM    4  N   UNL     1     -41.516 -51.726  13.425  1.00  0.00    -0.343 N 
HETATM    5  H   UNL     1     -40.212 -51.351  10.519  1.00  0.00     0.172 HD
HETATM    6  H   UNL     1     -41.874 -50.778  13.509  1.00  0.00     0.164 HD
ENDROOT
BRANCH   1   7
HETATM    7  C   UNL     1     -41.012 -49.720  11.483  1.00  0.00     0.132 A 
HETATM    8  C   UNL     1     -40.104 -48.701  11.862  1.00  0.00     0.084 A 
HETATM    9  C   UNL     1     -40.860 -47.554  11.869  1.00  0.00     0.076 A 
HETATM   10  C   UNL     1     -40.602 -46.137  12.169  1.00  0.00     0.079 C 
HETATM   11  O   UNL     1     -42.133 -47.858  11.515  1.00  0.00    -0.241 OA
HETATM   12  N   UNL     1     -42.230 -49.208  11.270  1.00  0.00    -0.245 N 
ATOM     13  HN  UNL     1     -43.065 -49.719  10.982  1.00  0.00     0.196 HD
ENDBRANCH   1   7
BRANCH   4  14
HETATM   14  C   UNL     1     -41.816 -52.703  14.445  1.00  0.00     0.128 C 
BRANCH  14  15
HETATM   15  C   UNL     1     -42.960 -53.636  14.042  1.00  0.00     0.053 C 
BRANCH  15  16
HETATM   16  C   UNL     1     -44.259 -52.873  13.904  1.00  0.00    -0.082 A 
HETATM   17  C   UNL     1     -44.953 -52.887  12.758  1.00  0.00    -0.024 A 
HETATM   18  C   UNL     1     -46.255 -52.199  12.544  1.00  0.00     0.027 A 
HETATM   19  C   UNL     1     -46.843 -51.442  13.730  1.00  0.00     0.004 A 
HETATM   20  C   UNL     1     -46.056 -51.397  15.037  1.00  0.00     0.005 A 
HETATM   21  C   UNL     1     -44.717 -52.125  15.120  1.00  0.00     0.034 A 
ENDBRANCH  15  16
ENDBRANCH  14  15
ENDBRANCH   4  14
TORSDOF 4
ENDMDL
MODEL 8
REMARK VINA RESULT:      -5.7      3.176      7.044
REMARK  4 active torsions:
REMARK  status: ('A' for Active; 'I' for Inactive)
REMARK    1  A    between atoms: C_4  and  N_5 
REMARK       I    between atoms: N_5  and  C_6 
REMARK       I    between atoms: C_6  and  N_8 
REMARK    2  A    between atoms: N_8  and  C_9 
REMARK    3  A    between atoms: C_9  and  C_10 
REMARK    4  A    between atoms: C_10  and  C_11 
ROOT
HETATM    1  N   UNL     1     -41.395 -53.911  13.217  1.00  0.00    -0.293 N 
HETATM    2  C   UNL     1     -40.667 -52.766  13.092  1.00  0.00     0.321 C 
HETATM    3  O   UNL     1     -39.440 -52.823  13.115  1.00  0.00    -0.247 OA
HETATM    4  N   UNL     1     -41.356 -51.602  12.937  1.00  0.00    -0.343 N 
HETATM    5  H   UNL     1     -40.834 -54.744  13.313  1.00  0.00     0.172 HD
HETATM    6  H   UNL     1     -42.367 -51.646  13.035  1.00  0.00     0.164 HD
ENDROOT
BRANCH   1   7
HETATM    7  C   UNL     1     -42.766 -54.050  13.203  1.00  0.00     0.132 A 
HETATM    8  C   UNL     1     -43.546 -54.450  14.315  1.00  0.00     0.084 A 
HETATM    9  C   UNL     1     -44.836 -54.465  13.842  1.00  0.00     0.076 A 
HETATM   10  C   UNL     1     -46.153 -54.786  14.414  1.00  0.00     0.079 C 
HETATM   11  O   UNL     1     -44.835 -54.095  12.537  1.00  0.00    -0.241 OA
HETATM   12  N   UNL     1     -43.545 -53.832  12.137  1.00  0.00    -0.245 N 
ATOM     13  HN  UNL     1     -43.243 -53.530  11.211  1.00  0.00     0.196 HD
ENDBRANCH   1   7
BRANCH   4  14
HETATM   14  C   UNL     1     -40.698 -50.323  12.815  1.00  0.00     0.128 C 
BRANCH  14  15
HETATM   15  C   UNL     1     -40.479 -49.915  11.357  1.00  0.00     0.053 C 
BRANCH  15  16
HETATM   16  C   UNL     1     -40.737 -48.437  11.162  1.00  0.00    -0.082 A 
HETATM   17  C   UNL     1     -39.877 -47.517  11.619  1.00  0.00    -0.024 A 
HETATM   18  C   UNL     1     -40.031 -46.048  11.441  1.00  0.00     0.027 A 
HETATM   19  C   UNL     1     -41.249 -45.566  10.661  1.00  0.00     0.004 A 
HETATM   20  C   UNL     1     -42.250 -46.599  10.150  1.00  0.00     0.005 A 
HETATM   21  C   UNL     1     -41.990 -48.079  10.421  1.00  0.00     0.034 A 
ENDBRANCH  15  16
ENDBRANCH  14  15
ENDBRANCH   4  14
TORSDOF 4
ENDMDL
MODEL 9
REMARK VINA RESULT:      -5.5      4.282      6.249
REMARK  4 active torsions:
REMARK  status: ('A' for Active; 'I' for Inactive)
REMARK    1  A    between atoms: C_4  and  N_5 
REMARK       I    between atoms: N_5  and  C_6 
REMARK       I    between atoms: C_6  and  N_8 
REMARK    2  A    between atoms: N_8  and  C_9 
REMARK    3  A    between atoms: C_9  and  C_10 
REMARK    4  A    between atoms: C_10  and  C_11 
ROOT
HETATM    1  N   UNL     1     -42.815 -53.282  12.215  1.00  0.00    -0.293 N 
HETATM    2  C   UNL     1     -41.578 -53.141  12.768  1.00  0.00     0.321 C 
HETATM    3  O   UNL     1     -40.579 -53.316  12.072  1.00  0.00    -0.247 OA
HETATM    4  N   UNL     1     -41.517 -52.798  14.084  1.00  0.00    -0.343 N 
HETATM    5  H   UNL     1     -42.800 -53.521  11.235  1.00  0.00     0.172 HD
HETATM    6  H   UNL     1     -42.394 -52.777  14.597  1.00  0.00     0.164 HD
ENDROOT
BRANCH   1   7
HETATM    7  C   UNL     1     -44.040 -53.116  12.824  1.00  0.00     0.132 A 
HETATM    8  C   UNL     1     -44.580 -51.869  13.220  1.00  0.00     0.084 A 
HETATM    9  C   UNL     1     -45.790 -52.183  13.789  1.00  0.00     0.076 A 
HETATM   10  C   UNL     1     -46.877 -51.417  14.418  1.00  0.00     0.079 C 
HETATM   11  O   UNL     1     -45.971 -53.526  13.736  1.00  0.00    -0.241 OA
HETATM   12  N   UNL     1     -44.882 -54.111  13.131  1.00  0.00    -0.245 N 
ATOM     13  HN  UNL     1     -44.743 -55.105  12.952  1.00  0.00     0.196 HD
ENDBRANCH   1   7
BRANCH   4  14
HETATM   14  C   UNL     1     -40.266 -52.639  14.786  1.00  0.00     0.128 C 
BRANCH  14  15
HETATM   15  C   UNL     1     -39.879 -51.170  14.965  1.00  0.00     0.053 C 
BRANCH  15  16
HETATM   16  C   UNL     1     -39.082 -50.670  13.780  1.00  0.00    -0.082 A 
HETATM   17  C   UNL     1     -37.962 -51.290  13.386  1.00  0.00    -0.024 A 
HETATM   18  C   UNL     1     -37.137 -50.892  12.213  1.00  0.00     0.027 A 
HETATM   19  C   UNL     1     -37.624 -49.701  11.395  1.00  0.00     0.004 A 
HETATM   20  C   UNL     1     -38.886 -48.969  11.841  1.00  0.00     0.005 A 
HETATM   21  C   UNL     1     -39.630 -49.462  13.080  1.00  0.00     0.034 A 
ENDBRANCH  15  16
ENDBRANCH  14  15
ENDBRANCH   4  14
TORSDOF 4
ENDMDL
