MODEL 1
REMARK VINA RESULT:      -5.8      0.000      0.000
REMARK  3 active torsions:
REMARK  status: ('A' for Active; 'I' for Inactive)
REMARK       I    between atoms: N_7  and  C_8 
REMARK       I    between atoms: C_8  and  N_10 
REMARK    1  A    between atoms: N_10  and  C_11 
REMARK    2  A    between atoms: C_11  and  C_12 
REMARK    3  A    between atoms: C_12  and  C_13 
ROOT
HETATM    1  C   UNL     1     -45.213 -51.214  14.723  1.00  0.00     0.034 C 
HETATM    2  C   UNL     1     -44.735 -51.455  13.287  1.00  0.00     0.108 C 
HETATM    3  C   UNL     1     -45.723 -52.364  12.523  1.00  0.00     0.192 C 
HETATM    4  O   UNL     1     -45.726 -53.703  13.043  1.00  0.00    -0.388 OA
HETATM    5  C   UNL     1     -44.418 -54.291  12.925  1.00  0.00     0.187 C 
HETATM    6  C   UNL     1     -43.375 -53.479  13.697  1.00  0.00     0.154 C 
HETATM    7  N   UNL     1     -43.389 -52.072  13.273  1.00  0.00    -0.326 N 
HETATM    8  C   UNL     1     -42.276 -51.580  12.617  1.00  0.00     0.318 C 
HETATM    9  O   UNL     1     -41.297 -52.275  12.353  1.00  0.00    -0.247 OA
HETATM   10  N   UNL     1     -42.329 -50.254  12.269  1.00  0.00    -0.343 N 
HETATM   11  H   UNL     1     -42.863 -49.669  12.891  1.00  0.00     0.164 HD
ENDROOT
BRANCH  10  12
HETATM   12  C   UNL     1     -41.184 -49.619  11.620  1.00  0.00     0.130 C 
BRANCH  12  13
HETATM   13  C   UNL     1     -41.267 -48.091  11.659  1.00  0.00     0.077 C 
BRANCH  13  14
HETATM   14  C   UNL     1     -42.158 -47.529  10.593  1.00  0.00     0.018 A 
HETATM   15  C   UNL     1     -42.748 -46.280  10.602  1.00  0.00     0.076 A 
HETATM   16  S   UNL     1     -43.629 -46.034   9.152  1.00  0.00    -0.087 SA
HETATM   17  C   UNL     1     -43.162 -47.597   8.616  1.00  0.00     0.046 A 
HETATM   18  C   UNL     1     -43.597 -48.098   7.283  1.00  0.00     0.076 C 
HETATM   19  N   UNL     1     -42.413 -48.282   9.456  1.00  0.00    -0.357 N 
ATOM     20  HN  UNL     1     -42.070 -49.229   9.294  1.00  0.00     0.166 HD
ENDBRANCH  13  14
ENDBRANCH  12  13
ENDBRANCH  10  12
TORSDOF 3
ENDMDL
MODEL 2
REMARK VINA RESULT:      -5.5      1.749      2.213
REMARK  3 active torsions:
REMARK  status: ('A' for Active; 'I' for Inactive)
REMARK       I    between atoms: N_7  and  C_8 
REMARK       I    between atoms: C_8  and  N_10 
REMARK    1  A    between atoms: N_10  and  C_11 
REMARK    2  A    between atoms: C_11  and  C_12 
REMARK    3  A    between atoms: C_12  and  C_13 
ROOT
HETATM    1  C   UNL     1     -46.046 -51.377  14.671  1.00  0.00     0.034 C 
HETATM    2  C   UNL     1     -45.376 -51.538  13.303  1.00  0.00     0.108 C 
HETATM    3  C   UNL     1     -46.004 -52.710  12.516  1.00  0.00     0.192 C 
HETATM    4  O   UNL     1     -45.706 -53.978  13.122  1.00  0.00    -0.388 OA
HETATM    5  C   UNL     1     -44.284 -54.196  13.160  1.00  0.00     0.187 C 
HETATM    6  C   UNL     1     -43.579 -53.101  13.965  1.00  0.00     0.154 C 
HETATM    7  N   UNL     1     -43.921 -51.768  13.449  1.00  0.00    -0.326 N 
HETATM    8  C   UNL     1     -42.916 -51.022  12.862  1.00  0.00     0.318 C 
HETATM    9  O   UNL     1     -41.767 -51.436  12.733  1.00  0.00    -0.247 OA
HETATM   10  N   UNL     1     -43.282 -49.775  12.423  1.00  0.00    -0.343 N 
HETATM   11  H   UNL     1     -44.013 -49.331  12.955  1.00  0.00     0.164 HD
ENDROOT
BRANCH  10  12
HETATM   12  C   UNL     1     -42.285 -48.880  11.837  1.00  0.00     0.130 C 
BRANCH  12  13
HETATM   13  C   UNL     1     -42.924 -47.748  11.029  1.00  0.00     0.077 C 
BRANCH  13  14
HETATM   14  C   UNL     1     -42.102 -46.495  11.032  1.00  0.00     0.018 A 
HETATM   15  C   UNL     1     -42.314 -45.385  11.824  1.00  0.00     0.076 A 
HETATM   16  S   UNL     1     -41.095 -44.215  11.541  1.00  0.00    -0.087 SA
HETATM   17  C   UNL     1     -40.370 -45.265  10.391  1.00  0.00     0.046 A 
HETATM   18  C   UNL     1     -39.123 -44.864   9.683  1.00  0.00     0.076 C 
HETATM   19  N   UNL     1     -40.993 -46.411  10.202  1.00  0.00    -0.357 N 
ATOM     20  HN  UNL     1     -40.701 -47.132   9.542  1.00  0.00     0.166 HD
ENDBRANCH  13  14
ENDBRANCH  12  13
ENDBRANCH  10  12
TORSDOF 3
ENDMDL
MODEL 3
REMARK VINA RESULT:      -5.4      1.439      1.469
REMARK  3 active torsions:
REMARK  status: ('A' for Active; 'I' for Inactive)
REMARK       I    between atoms: N_7  and  C_8 
REMARK       I    between atoms: C_8  and  N_10 
REMARK    1  A    between atoms: N_10  and  C_11 
REMARK    2  A    between atoms: C_11  and  C_12 
REMARK    3  A    between atoms: C_12  and  C_13 
ROOT
HETATM    1  C   UNL     1     -46.300 -51.641  14.422  1.00  0.00     0.034 C 
HETATM    2  C   UNL     1     -45.205 -52.110  13.458  1.00  0.00     0.108 C 
HETATM    3  C   UNL     1     -45.430 -53.581  13.044  1.00  0.00     0.192 C 
HETATM    4  O   UNL     1     -45.233 -54.480  14.146  1.00  0.00    -0.388 OA
HETATM    5  C   UNL     1     -43.889 -54.374  14.650  1.00  0.00     0.187 C 
HETATM    6  C   UNL     1     -43.591 -52.951  15.132  1.00  0.00     0.154 C 
HETATM    7  N   UNL     1     -43.864 -51.971  14.071  1.00  0.00    -0.326 N 
HETATM    8  C   UNL     1     -42.795 -51.274  13.540  1.00  0.00     0.318 C 
HETATM    9  O   UNL     1     -41.634 -51.461  13.897  1.00  0.00    -0.247 OA
HETATM   10  N   UNL     1     -43.108 -50.352  12.574  1.00  0.00    -0.343 N 
HETATM   11  H   UNL     1     -44.011 -49.917  12.674  1.00  0.00     0.164 HD
ENDROOT
BRANCH  10  12
HETATM   12  C   UNL     1     -42.060 -49.521  11.984  1.00  0.00     0.130 C 
BRANCH  12  13
HETATM   13  C   UNL     1     -42.381 -48.028  12.077  1.00  0.00     0.077 C 
BRANCH  13  14
HETATM   14  C   UNL     1     -43.091 -47.508  10.864  1.00  0.00     0.018 A 
HETATM   15  C   UNL     1     -42.592 -46.593   9.958  1.00  0.00     0.076 A 
HETATM   16  S   UNL     1     -43.719 -46.338   8.693  1.00  0.00    -0.087 SA
HETATM   17  C   UNL     1     -44.787 -47.461   9.434  1.00  0.00     0.046 A 
HETATM   18  C   UNL     1     -46.097 -47.784   8.804  1.00  0.00     0.076 C 
HETATM   19  N   UNL     1     -44.358 -47.989  10.562  1.00  0.00    -0.357 N 
ATOM     20  HN  UNL     1     -44.880 -48.655  11.131  1.00  0.00     0.166 HD
ENDBRANCH  13  14
ENDBRANCH  12  13
ENDBRANCH  10  12
TORSDOF 3
ENDMDL
MODEL 4
REMARK VINA RESULT:      -5.4      2.551      3.433
REMARK  3 active torsions:
REMARK  status: ('A' for Active; 'I' for Inactive)
REMARK       I    between atoms: N_7  and  C_8 
REMARK       I    between atoms: C_8  and  N_10 
REMARK    1  A    between atoms: N_10  and  C_11 
REMARK    2  A    between atoms: C_11  and  C_12 
REMARK    3  A    between atoms: C_12  and  C_13 
ROOT
HETATM    1  C   UNL     1     -45.576 -51.307  14.753  1.00  0.00     0.034 C 
HETATM    2  C   UNL     1     -45.154 -51.353  13.281  1.00  0.00     0.108 C 
HETATM    3  C   UNL     1     -45.916 -52.465  12.525  1.00  0.00     0.192 C 
HETATM    4  O   UNL     1     -45.525 -53.774  12.967  1.00  0.00    -0.388 OA
HETATM    5  C   UNL     1     -44.120 -53.983  12.741  1.00  0.00     0.187 C 
HETATM    6  C   UNL     1     -43.279 -52.951  13.496  1.00  0.00     0.154 C 
HETATM    7  N   UNL     1     -43.697 -51.584  13.154  1.00  0.00    -0.326 N 
HETATM    8  C   UNL     1     -42.804 -50.785  12.463  1.00  0.00     0.318 C 
HETATM    9  O   UNL     1     -41.697 -51.180  12.105  1.00  0.00    -0.247 OA
HETATM   10  N   UNL     1     -43.232 -49.510  12.195  1.00  0.00    -0.343 N 
HETATM   11  H   UNL     1     -43.858 -49.116  12.879  1.00  0.00     0.164 HD
ENDROOT
BRANCH  10  12
HETATM   12  C   UNL     1     -42.347 -48.565  11.518  1.00  0.00     0.130 C 
BRANCH  12  13
HETATM   13  C   UNL     1     -41.546 -47.711  12.503  1.00  0.00     0.077 C 
BRANCH  13  14
HETATM   14  C   UNL     1     -40.140 -48.197  12.687  1.00  0.00     0.018 A 
HETATM   15  C   UNL     1     -39.390 -48.100  13.842  1.00  0.00     0.076 A 
HETATM   16  S   UNL     1     -37.863 -48.846  13.619  1.00  0.00    -0.087 SA
HETATM   17  C   UNL     1     -38.307 -49.247  12.009  1.00  0.00     0.046 A 
HETATM   18  C   UNL     1     -37.368 -50.002  11.135  1.00  0.00     0.076 C 
HETATM   19  N   UNL     1     -39.505 -48.844  11.636  1.00  0.00    -0.357 N 
ATOM     20  HN  UNL     1     -39.906 -48.987  10.709  1.00  0.00     0.166 HD
ENDBRANCH  13  14
ENDBRANCH  12  13
ENDBRANCH  10  12
TORSDOF 3
ENDMDL
MODEL 5
REMARK VINA RESULT:      -5.2      2.405      2.634
REMARK  3 active torsions:
REMARK  status: ('A' for Active; 'I' for Inactive)
REMARK       I    between atoms: N_7  and  C_8 
REMARK       I    between atoms: C_8  and  N_10 
REMARK    1  A    between atoms: N_10  and  C_11 
REMARK    2  A    between atoms: C_11  and  C_12 
REMARK    3  A    between atoms: C_12  and  C_13 
ROOT
HETATM    1  C   UNL     1     -44.761 -51.188  14.651  1.00  0.00     0.034 C 
HETATM    2  C   UNL     1     -44.440 -51.463  13.178  1.00  0.00     0.108 C 
HETATM    3  C   UNL     1     -45.573 -52.274  12.511  1.00  0.00     0.192 C 
HETATM    4  O   UNL     1     -45.651 -53.610  13.032  1.00  0.00    -0.388 OA
HETATM    5  C   UNL     1     -44.419 -54.315  12.796  1.00  0.00     0.187 C 
HETATM    6  C   UNL     1     -43.240 -53.606  13.467  1.00  0.00     0.154 C 
HETATM    7  N   UNL     1     -43.163 -52.200  13.042  1.00  0.00    -0.326 N 
HETATM    8  C   UNL     1     -42.074 -51.809  12.285  1.00  0.00     0.318 C 
HETATM    9  O   UNL     1     -41.192 -52.589  11.934  1.00  0.00    -0.247 OA
HETATM   10  N   UNL     1     -42.037 -50.482  11.940  1.00  0.00    -0.343 N 
HETATM   11  H   UNL     1     -42.457 -49.854  12.607  1.00  0.00     0.164 HD
ENDROOT
BRANCH  10  12
HETATM   12  C   UNL     1     -40.903 -49.950  11.187  1.00  0.00     0.130 C 
BRANCH  12  13
HETATM   13  C   UNL     1     -39.811 -49.388  12.100  1.00  0.00     0.077 C 
BRANCH  13  14
HETATM   14  C   UNL     1     -39.803 -47.890  12.144  1.00  0.00     0.018 A 
HETATM   15  C   UNL     1     -39.697 -47.111  13.279  1.00  0.00     0.076 A 
HETATM   16  S   UNL     1     -39.664 -45.451  12.855  1.00  0.00    -0.087 SA
HETATM   17  C   UNL     1     -39.786 -45.884  11.197  1.00  0.00     0.046 A 
HETATM   18  C   UNL     1     -39.794 -44.834  10.142  1.00  0.00     0.076 C 
HETATM   19  N   UNL     1     -39.868 -47.177  10.956  1.00  0.00    -0.357 N 
ATOM     20  HN  UNL     1     -39.964 -47.593  10.029  1.00  0.00     0.166 HD
ENDBRANCH  13  14
ENDBRANCH  12  13
ENDBRANCH  10  12
TORSDOF 3
ENDMDL
MODEL 6
REMARK VINA RESULT:      -5.1      4.028      6.716
REMARK  3 active torsions:
REMARK  status: ('A' for Active; 'I' for Inactive)
REMARK       I    between atoms: N_7  and  C_8 
REMARK       I    between atoms: C_8  and  N_10 
REMARK    1  A    between atoms: N_10  and  C_11 
REMARK    2  A    between atoms: C_11  and  C_12 
REMARK    3  A    between atoms: C_12  and  C_13 
ROOT
HETATM    1  C   UNL     1     -38.428 -50.744  15.344  1.00  0.00     0.034 C 
HETATM    2  C   UNL     1     -38.668 -51.398  13.980  1.00  0.00     0.108 C 
HETATM    3  C   UNL     1     -37.580 -50.974  12.968  1.00  0.00     0.192 C 
HETATM    4  O   UNL     1     -37.680 -49.582  12.630  1.00  0.00    -0.388 OA
HETATM    5  C   UNL     1     -38.958 -49.299  12.034  1.00  0.00     0.187 C 
HETATM    6  C   UNL     1     -40.102 -49.643  12.990  1.00  0.00     0.154 C 
HETATM    7  N   UNL     1     -40.001 -51.037  13.447  1.00  0.00    -0.326 N 
HETATM    8  C   UNL     1     -40.986 -51.923  13.050  1.00  0.00     0.318 C 
HETATM    9  O   UNL     1     -41.917 -51.600  12.317  1.00  0.00    -0.247 OA
HETATM   10  N   UNL     1     -40.860 -53.203  13.527  1.00  0.00    -0.343 N 
HETATM   11  H   UNL     1     -40.427 -53.281  14.434  1.00  0.00     0.164 HD
ENDROOT
BRANCH  10  12
HETATM   12  C   UNL     1     -41.875 -54.207  13.215  1.00  0.00     0.130 C 
BRANCH  12  13
HETATM   13  C   UNL     1     -42.736 -54.560  14.430  1.00  0.00     0.077 C 
BRANCH  13  14
HETATM   14  C   UNL     1     -44.134 -54.030  14.326  1.00  0.00     0.018 A 
HETATM   15  C   UNL     1     -45.143 -54.209  15.252  1.00  0.00     0.076 A 
HETATM   16  S   UNL     1     -46.555 -53.375  14.756  1.00  0.00    -0.087 SA
HETATM   17  C   UNL     1     -45.729 -52.835  13.350  1.00  0.00     0.046 A 
HETATM   18  C   UNL     1     -46.413 -51.953  12.365  1.00  0.00     0.076 C 
HETATM   19  N   UNL     1     -44.485 -53.253  13.231  1.00  0.00    -0.357 N 
ATOM     20  HN  UNL     1     -43.869 -53.036  12.447  1.00  0.00     0.166 HD
ENDBRANCH  13  14
ENDBRANCH  12  13
ENDBRANCH  10  12
TORSDOF 3
ENDMDL
MODEL 7
REMARK VINA RESULT:      -5.0      3.932      6.908
REMARK  3 active torsions:
REMARK  status: ('A' for Active; 'I' for Inactive)
REMARK       I    between atoms: N_7  and  C_8 
REMARK       I    between atoms: C_8  and  N_10 
REMARK    1  A    between atoms: N_10  and  C_11 
REMARK    2  A    between atoms: C_11  and  C_12 
REMARK    3  A    between atoms: C_12  and  C_13 
ROOT
HETATM    1  C   UNL     1     -40.412 -45.347  12.818  1.00  0.00     0.034 C 
HETATM    2  C   UNL     1     -40.061 -46.129  11.549  1.00  0.00     0.108 C 
HETATM    3  C   UNL     1     -40.423 -45.318  10.285  1.00  0.00     0.192 C 
HETATM    4  O   UNL     1     -41.844 -45.169  10.136  1.00  0.00    -0.388 OA
HETATM    5  C   UNL     1     -42.475 -46.456  10.018  1.00  0.00     0.187 C 
HETATM    6  C   UNL     1     -42.210 -47.317  11.256  1.00  0.00     0.154 C 
HETATM    7  N   UNL     1     -40.768 -47.430  11.516  1.00  0.00    -0.326 N 
HETATM    8  C   UNL     1     -40.178 -48.673  11.376  1.00  0.00     0.318 C 
HETATM    9  O   UNL     1     -40.802 -49.670  11.020  1.00  0.00    -0.247 OA
HETATM   10  N   UNL     1     -38.837 -48.729  11.659  1.00  0.00    -0.343 N 
HETATM   11  H   UNL     1     -38.520 -48.081  12.363  1.00  0.00     0.164 HD
ENDROOT
BRANCH  10  12
HETATM   12  C   UNL     1     -38.125 -50.004  11.596  1.00  0.00     0.130 C 
BRANCH  12  13
HETATM   13  C   UNL     1     -37.705 -50.503  12.980  1.00  0.00     0.077 C 
BRANCH  13  14
HETATM   14  C   UNL     1     -38.720 -51.411  13.606  1.00  0.00     0.018 A 
HETATM   15  C   UNL     1     -38.769 -51.782  14.935  1.00  0.00     0.076 A 
HETATM   16  S   UNL     1     -40.135 -52.778  15.219  1.00  0.00    -0.087 SA
HETATM   17  C   UNL     1     -40.565 -52.642  13.561  1.00  0.00     0.046 A 
HETATM   18  C   UNL     1     -41.789 -53.311  13.043  1.00  0.00     0.076 C 
HETATM   19  N   UNL     1     -39.746 -51.921  12.823  1.00  0.00    -0.357 N 
ATOM     20  HN  UNL     1     -39.851 -51.761  11.821  1.00  0.00     0.166 HD
ENDBRANCH  13  14
ENDBRANCH  12  13
ENDBRANCH  10  12
TORSDOF 3
ENDMDL
MODEL 8
REMARK VINA RESULT:      -5.0      3.853      6.582
REMARK  3 active torsions:
REMARK  status: ('A' for Active; 'I' for Inactive)
REMARK       I    between atoms: N_7  and  C_8 
REMARK       I    between atoms: C_8  and  N_10 
REMARK    1  A    between atoms: N_10  and  C_11 
REMARK    2  A    between atoms: C_11  and  C_12 
REMARK    3  A    between atoms: C_12  and  C_13 
ROOT
HETATM    1  C   UNL     1     -40.182 -49.230  14.876  1.00  0.00     0.034 C 
HETATM    2  C   UNL     1     -39.450 -50.509  14.456  1.00  0.00     0.108 C 
HETATM    3  C   UNL     1     -37.939 -50.244  14.275  1.00  0.00     0.192 C 
HETATM    4  O   UNL     1     -37.678 -49.393  13.148  1.00  0.00    -0.388 OA
HETATM    5  C   UNL     1     -38.158 -50.001  11.936  1.00  0.00     0.187 C 
HETATM    6  C   UNL     1     -39.666 -50.257  12.005  1.00  0.00     0.154 C 
HETATM    7  N   UNL     1     -40.008 -51.049  13.195  1.00  0.00    -0.326 N 
HETATM    8  C   UNL     1     -40.499 -52.328  13.004  1.00  0.00     0.318 C 
HETATM    9  O   UNL     1     -40.632 -52.831  11.892  1.00  0.00    -0.247 OA
HETATM   10  N   UNL     1     -40.830 -53.013  14.146  1.00  0.00    -0.343 N 
HETATM   11  H   UNL     1     -41.156 -52.442  14.909  1.00  0.00     0.164 HD
ENDROOT
BRANCH  10  12
HETATM   12  C   UNL     1     -41.409 -54.352  14.057  1.00  0.00     0.130 C 
BRANCH  12  13
HETATM   13  C   UNL     1     -42.725 -54.468  14.829  1.00  0.00     0.077 C 
BRANCH  13  14
HETATM   14  C   UNL     1     -43.841 -53.692  14.198  1.00  0.00     0.018 A 
HETATM   15  C   UNL     1     -44.200 -53.721  12.865  1.00  0.00     0.076 A 
HETATM   16  S   UNL     1     -45.572 -52.729  12.600  1.00  0.00    -0.087 SA
HETATM   17  C   UNL     1     -45.595 -52.335  14.272  1.00  0.00     0.046 A 
HETATM   18  C   UNL     1     -46.645 -51.433  14.820  1.00  0.00     0.076 C 
HETATM   19  N   UNL     1     -44.638 -52.883  14.995  1.00  0.00    -0.357 N 
ATOM     20  HN  UNL     1     -44.504 -52.733  15.994  1.00  0.00     0.166 HD
ENDBRANCH  13  14
ENDBRANCH  12  13
ENDBRANCH  10  12
TORSDOF 3
ENDMDL
MODEL 9
REMARK VINA RESULT:      -4.8      3.596      6.943
REMARK  3 active torsions:
REMARK  status: ('A' for Active; 'I' for Inactive)
REMARK       I    between atoms: N_7  and  C_8 
REMARK       I    between atoms: C_8  and  N_10 
REMARK    1  A    between atoms: N_10  and  C_11 
REMARK    2  A    between atoms: C_11  and  C_12 
REMARK    3  A    between atoms: C_12  and  C_13 
ROOT
HETATM    1  C   UNL     1     -39.368 -45.106  12.821  1.00  0.00     0.034 C 
HETATM    2  C   UNL     1     -39.911 -45.721  11.527  1.00  0.00     0.108 C 
HETATM    3  C   UNL     1     -40.095 -44.640  10.439  1.00  0.00     0.192 C 
HETATM    4  O   UNL     1     -41.147 -43.721  10.774  1.00  0.00    -0.388 OA
HETATM    5  C   UNL     1     -42.399 -44.417  10.907  1.00  0.00     0.187 C 
HETATM    6  C   UNL     1     -42.325 -45.482  12.004  1.00  0.00     0.154 C 
HETATM    7  N   UNL     1     -41.204 -46.402  11.767  1.00  0.00    -0.326 N 
HETATM    8  C   UNL     1     -41.497 -47.720  11.467  1.00  0.00     0.318 C 
HETATM    9  O   UNL     1     -42.647 -48.140  11.367  1.00  0.00    -0.247 OA
HETATM   10  N   UNL     1     -40.414 -48.541  11.283  1.00  0.00    -0.343 N 
HETATM   11  H   UNL     1     -39.598 -48.302  11.823  1.00  0.00     0.164 HD
ENDROOT
BRANCH  10  12
HETATM   12  C   UNL     1     -40.610 -49.965  11.016  1.00  0.00     0.130 C 
BRANCH  12  13
HETATM   13  C   UNL     1     -40.271 -50.835  12.229  1.00  0.00     0.077 C 
BRANCH  13  14
HETATM   14  C   UNL     1     -41.482 -51.446  12.865  1.00  0.00     0.018 A 
HETATM   15  C   UNL     1     -41.487 -52.480  13.779  1.00  0.00     0.076 A 
HETATM   16  S   UNL     1     -43.089 -52.812  14.288  1.00  0.00    -0.087 SA
HETATM   17  C   UNL     1     -43.662 -51.558  13.263  1.00  0.00     0.046 A 
HETATM   18  C   UNL     1     -45.114 -51.236  13.205  1.00  0.00     0.076 C 
HETATM   19  N   UNL     1     -42.736 -50.933  12.564  1.00  0.00    -0.357 N 
ATOM     20  HN  UNL     1     -42.916 -50.182  11.898  1.00  0.00     0.166 HD
ENDBRANCH  13  14
ENDBRANCH  12  13
ENDBRANCH  10  12
TORSDOF 3
ENDMDL
