MODEL 1
REMARK VINA RESULT:      -6.8      0.000      0.000
REMARK  4 active torsions:
REMARK  status: ('A' for Active; 'I' for Inactive)
REMARK    1  A    between atoms: C_5  and  N_6 
REMARK       I    between atoms: N_6  and  C_7 
REMARK       I    between atoms: C_7  and  N_9 
REMARK    2  A    between atoms: N_9  and  C_10 
REMARK    3  A    between atoms: C_12  and  C_13 
REMARK    4  A    between atoms: C_13  and  O_14 
ROOT
HETATM    1  N   UNL     1     -40.562 -52.083  12.059  1.00  0.00    -0.295 N 
HETATM    2  C   UNL     1     -40.534 -50.766  11.683  1.00  0.00     0.322 C 
HETATM    3  O   UNL     1     -39.459 -50.206  11.476  1.00  0.00    -0.247 OA
HETATM    4  N   UNL     1     -41.730 -50.134  11.633  1.00  0.00    -0.335 N 
HETATM    5  H   UNL     1     -39.643 -52.486  12.168  1.00  0.00     0.172 HD
HETATM    6  H   UNL     1     -42.540 -50.738  11.739  1.00  0.00     0.164 HD
ENDROOT
BRANCH   1   7
HETATM    7  C   UNL     1     -41.675 -52.831  12.468  1.00  0.00     0.108 A 
HETATM    8  C   UNL     1     -41.558 -53.640  13.589  1.00  0.00     0.049 A 
HETATM    9  C   UNL     1     -42.692 -54.306  14.060  1.00  0.00     0.012 A 
HETATM   10  C   UNL     1     -43.909 -54.169  13.391  1.00  0.00    -0.046 A 
HETATM   11  C   UNL     1     -45.166 -54.830  13.853  1.00  0.00     0.049 C 
HETATM   12  C   UNL     1     -43.917 -53.378  12.252  1.00  0.00     0.096 A 
HETATM   13  N   UNL     1     -42.840 -52.710  11.789  1.00  0.00    -0.352 N 
ATOM     14  HN  UNL     1     -42.902 -52.129  10.953  1.00  0.00     0.166 HD
ENDBRANCH   1   7
BRANCH   4  15
HETATM   15  C   UNL     1     -41.914 -48.715  11.568  1.00  0.00     0.109 C 
HETATM   16  C   UNL     1     -41.797 -48.146  10.152  1.00  0.00     0.040 C 
HETATM   17  C   UNL     1     -42.917 -47.098  10.031  1.00  0.00     0.034 C 
HETATM   18  C   UNL     1     -43.904 -47.563  11.065  1.00  0.00    -0.022 C 
HETATM   19  C   UNL     1     -43.343 -48.427  11.916  1.00  0.00    -0.005 C 
BRANCH  17  20
HETATM   20  C   UNL     1     -43.475 -47.024   8.611  1.00  0.00     0.172 C 
BRANCH  20  21
HETATM   21  O   UNL     1     -42.719 -46.115   7.814  1.00  0.00    -0.400 OA
HETATM   22  H   UNL     1     -42.917 -45.219   8.131  1.00  0.00     0.209 HD
ENDBRANCH  20  21
ENDBRANCH  17  20
ENDBRANCH   4  15
TORSDOF 4
ENDMDL
MODEL 2
REMARK VINA RESULT:      -6.4      2.125      2.190
REMARK  4 active torsions:
REMARK  status: ('A' for Active; 'I' for Inactive)
REMARK    1  A    between atoms: C_5  and  N_6 
REMARK       I    between atoms: N_6  and  C_7 
REMARK       I    between atoms: C_7  and  N_9 
REMARK    2  A    between atoms: N_9  and  C_10 
REMARK    3  A    between atoms: C_12  and  C_13 
REMARK    4  A    between atoms: C_13  and  O_14 
ROOT
HETATM    1  N   UNL     1     -41.770 -51.484  12.639  1.00  0.00    -0.295 N 
HETATM    2  C   UNL     1     -41.233 -50.493  11.859  1.00  0.00     0.322 C 
HETATM    3  O   UNL     1     -40.049 -50.539  11.532  1.00  0.00    -0.247 OA
HETATM    4  N   UNL     1     -42.056 -49.464  11.553  1.00  0.00    -0.335 N 
HETATM    5  H   UNL     1     -41.096 -52.183  12.914  1.00  0.00     0.172 HD
HETATM    6  H   UNL     1     -43.030 -49.599  11.811  1.00  0.00     0.164 HD
ENDROOT
BRANCH   1   7
HETATM    7  C   UNL     1     -43.047 -51.519  13.216  1.00  0.00     0.108 A 
HETATM    8  C   UNL     1     -43.237 -50.914  14.450  1.00  0.00     0.049 A 
HETATM    9  C   UNL     1     -44.528 -50.855  14.980  1.00  0.00     0.012 A 
HETATM   10  C   UNL     1     -45.594 -51.421  14.280  1.00  0.00    -0.046 A 
HETATM   11  C   UNL     1     -47.003 -51.373  14.774  1.00  0.00     0.049 C 
HETATM   12  C   UNL     1     -45.299 -52.048  13.079  1.00  0.00     0.096 A 
HETATM   13  N   UNL     1     -44.065 -52.099  12.538  1.00  0.00    -0.352 N 
ATOM     14  HN  UNL     1     -43.903 -52.562  11.643  1.00  0.00     0.166 HD
ENDBRANCH   1   7
BRANCH   4  15
HETATM   15  C   UNL     1     -41.639 -48.199  11.025  1.00  0.00     0.109 C 
HETATM   16  C   UNL     1     -42.333 -47.823   9.714  1.00  0.00     0.040 C 
HETATM   17  C   UNL     1     -42.655 -46.324   9.830  1.00  0.00     0.034 C 
HETATM   18  C   UNL     1     -42.698 -46.118  11.318  1.00  0.00    -0.022 C 
HETATM   19  C   UNL     1     -42.119 -47.134  11.963  1.00  0.00    -0.005 C 
BRANCH  17  20
HETATM   20  C   UNL     1     -43.950 -45.961   9.103  1.00  0.00     0.172 C 
BRANCH  20  21
HETATM   21  O   UNL     1     -44.252 -44.578   9.261  1.00  0.00    -0.400 OA
HETATM   22  H   UNL     1     -44.058 -44.343  10.183  1.00  0.00     0.209 HD
ENDBRANCH  20  21
ENDBRANCH  17  20
ENDBRANCH   4  15
TORSDOF 4
ENDMDL
MODEL 3
REMARK VINA RESULT:      -6.1      4.537      6.546
REMARK  4 active torsions:
REMARK  status: ('A' for Active; 'I' for Inactive)
REMARK    1  A    between atoms: C_5  and  N_6 
REMARK       I    between atoms: N_6  and  C_7 
REMARK       I    between atoms: C_7  and  N_9 
REMARK    2  A    between atoms: N_9  and  C_10 
REMARK    3  A    between atoms: C_12  and  C_13 
REMARK    4  A    between atoms: C_13  and  O_14 
ROOT
HETATM    1  N   UNL     1     -44.539 -53.084  12.186  1.00  0.00    -0.295 N 
HETATM    2  C   UNL     1     -45.564 -52.443  12.831  1.00  0.00     0.322 C 
HETATM    3  O   UNL     1     -46.593 -52.157  12.221  1.00  0.00    -0.247 OA
HETATM    4  N   UNL     1     -45.334 -52.094  14.118  1.00  0.00    -0.335 N 
HETATM    5  H   UNL     1     -44.722 -53.244  11.207  1.00  0.00     0.172 HD
HETATM    6  H   UNL     1     -44.480 -52.471  14.520  1.00  0.00     0.164 HD
ENDROOT
BRANCH   1   7
HETATM    7  C   UNL     1     -43.256 -53.356  12.682  1.00  0.00     0.108 A 
HETATM    8  C   UNL     1     -43.131 -54.189  13.784  1.00  0.00     0.049 A 
HETATM    9  C   UNL     1     -41.852 -54.546  14.218  1.00  0.00     0.012 A 
HETATM   10  C   UNL     1     -40.729 -54.046  13.558  1.00  0.00    -0.046 A 
HETATM   11  C   UNL     1     -39.333 -54.405  13.950  1.00  0.00     0.049 C 
HETATM   12  C   UNL     1     -40.952 -53.181  12.498  1.00  0.00     0.096 A 
HETATM   13  N   UNL     1     -42.177 -52.838  12.049  1.00  0.00    -0.352 N 
ATOM     14  HN  UNL     1     -42.288 -52.207  11.255  1.00  0.00     0.166 HD
ENDBRANCH   1   7
BRANCH   4  15
HETATM   15  C   UNL     1     -46.119 -51.167  14.878  1.00  0.00     0.109 C 
HETATM   16  C   UNL     1     -47.179 -51.837  15.755  1.00  0.00     0.040 C 
HETATM   17  C   UNL     1     -47.153 -51.075  17.091  1.00  0.00     0.034 C 
HETATM   18  C   UNL     1     -45.766 -50.499  17.106  1.00  0.00    -0.022 C 
HETATM   19  C   UNL     1     -45.216 -50.530  15.889  1.00  0.00    -0.005 C 
BRANCH  17  20
HETATM   20  C   UNL     1     -47.473 -51.989  18.274  1.00  0.00     0.172 C 
BRANCH  20  21
HETATM   21  O   UNL     1     -48.839 -51.864  18.659  1.00  0.00    -0.400 OA
HETATM   22  H   UNL     1     -48.854 -51.456  19.541  1.00  0.00     0.209 HD
ENDBRANCH  20  21
ENDBRANCH  17  20
ENDBRANCH   4  15
TORSDOF 4
ENDMDL
MODEL 4
REMARK VINA RESULT:      -6.1      2.577      5.861
REMARK  4 active torsions:
REMARK  status: ('A' for Active; 'I' for Inactive)
REMARK    1  A    between atoms: C_5  and  N_6 
REMARK       I    between atoms: N_6  and  C_7 
REMARK       I    between atoms: C_7  and  N_9 
REMARK    2  A    between atoms: N_9  and  C_10 
REMARK    3  A    between atoms: C_12  and  C_13 
REMARK    4  A    between atoms: C_13  and  O_14 
ROOT
HETATM    1  N   UNL     1     -39.917 -50.957  11.680  1.00  0.00    -0.295 N 
HETATM    2  C   UNL     1     -40.590 -51.905  12.404  1.00  0.00     0.322 C 
HETATM    3  O   UNL     1     -40.212 -53.075  12.392  1.00  0.00    -0.247 OA
HETATM    4  N   UNL     1     -41.704 -51.485  13.047  1.00  0.00    -0.335 N 
HETATM    5  H   UNL     1     -39.146 -51.335  11.149  1.00  0.00     0.172 HD
HETATM    6  H   UNL     1     -41.849 -50.479  13.046  1.00  0.00     0.164 HD
ENDROOT
BRANCH   1   7
HETATM    7  C   UNL     1     -40.287 -49.621  11.469  1.00  0.00     0.108 A 
HETATM    8  C   UNL     1     -39.610 -48.626  12.159  1.00  0.00     0.049 A 
HETATM    9  C   UNL     1     -39.903 -47.290  11.875  1.00  0.00     0.012 A 
HETATM   10  C   UNL     1     -40.880 -46.978  10.928  1.00  0.00    -0.046 A 
HETATM   11  C   UNL     1     -41.227 -45.574  10.556  1.00  0.00     0.049 C 
HETATM   12  C   UNL     1     -41.538 -48.040  10.327  1.00  0.00     0.096 A 
HETATM   13  N   UNL     1     -41.258 -49.337  10.570  1.00  0.00    -0.352 N 
ATOM     14  HN  UNL     1     -41.762 -50.082  10.089  1.00  0.00     0.166 HD
ENDBRANCH   1   7
BRANCH   4  15
HETATM   15  C   UNL     1     -42.715 -52.339  13.597  1.00  0.00     0.109 C 
HETATM   16  C   UNL     1     -43.944 -51.582  14.107  1.00  0.00     0.040 C 
HETATM   17  C   UNL     1     -45.158 -52.420  13.669  1.00  0.00     0.034 C 
HETATM   18  C   UNL     1     -44.615 -53.183  12.494  1.00  0.00    -0.022 C 
HETATM   19  C   UNL     1     -43.280 -53.155  12.474  1.00  0.00    -0.005 C 
BRANCH  17  20
HETATM   20  C   UNL     1     -46.369 -51.544  13.351  1.00  0.00     0.172 C 
BRANCH  20  21
HETATM   21  O   UNL     1     -46.480 -51.319  11.948  1.00  0.00    -0.400 OA
HETATM   22  H   UNL     1     -46.560 -52.189  11.522  1.00  0.00     0.209 HD
ENDBRANCH  20  21
ENDBRANCH  17  20
ENDBRANCH   4  15
TORSDOF 4
ENDMDL
MODEL 5
REMARK VINA RESULT:      -6.1      3.167      6.141
REMARK  4 active torsions:
REMARK  status: ('A' for Active; 'I' for Inactive)
REMARK    1  A    between atoms: C_5  and  N_6 
REMARK       I    between atoms: N_6  and  C_7 
REMARK       I    between atoms: C_7  and  N_9 
REMARK    2  A    between atoms: N_9  and  C_10 
REMARK    3  A    between atoms: C_12  and  C_13 
REMARK    4  A    between atoms: C_13  and  O_14 
ROOT
HETATM    1  N   UNL     1     -43.088 -50.028  12.657  1.00  0.00    -0.295 N 
HETATM    2  C   UNL     1     -41.857 -50.583  12.424  1.00  0.00     0.322 C 
HETATM    3  O   UNL     1     -41.111 -50.095  11.576  1.00  0.00    -0.247 OA
HETATM    4  N   UNL     1     -41.569 -51.708  13.118  1.00  0.00    -0.335 N 
HETATM    5  H   UNL     1     -43.293 -49.244  12.055  1.00  0.00     0.172 HD
HETATM    6  H   UNL     1     -42.235 -51.947  13.847  1.00  0.00     0.164 HD
ENDROOT
BRANCH   1   7
HETATM    7  C   UNL     1     -44.110 -50.530  13.475  1.00  0.00     0.108 A 
HETATM    8  C   UNL     1     -44.020 -50.340  14.846  1.00  0.00     0.049 A 
HETATM    9  C   UNL     1     -45.085 -50.746  15.655  1.00  0.00     0.012 A 
HETATM   10  C   UNL     1     -46.202 -51.353  15.081  1.00  0.00    -0.046 A 
HETATM   11  C   UNL     1     -47.386 -51.789  15.880  1.00  0.00     0.049 C 
HETATM   12  C   UNL     1     -46.180 -51.546  13.708  1.00  0.00     0.096 A 
HETATM   13  N   UNL     1     -45.173 -51.145  12.905  1.00  0.00    -0.352 N 
ATOM     14  HN  UNL     1     -45.212 -51.299  11.898  1.00  0.00     0.166 HD
ENDBRANCH   1   7
BRANCH   4  15
HETATM   15  C   UNL     1     -40.499 -52.613  12.820  1.00  0.00     0.109 C 
HETATM   16  C   UNL     1     -39.478 -52.748  13.952  1.00  0.00     0.040 C 
HETATM   17  C   UNL     1     -39.135 -54.246  14.025  1.00  0.00     0.034 C 
HETATM   18  C   UNL     1     -40.352 -54.885  13.418  1.00  0.00    -0.022 C 
HETATM   19  C   UNL     1     -41.080 -53.992  12.741  1.00  0.00    -0.005 C 
BRANCH  17  20
HETATM   20  C   UNL     1     -38.832 -54.691  15.455  1.00  0.00     0.172 C 
BRANCH  20  21
HETATM   21  O   UNL     1     -37.998 -55.847  15.462  1.00  0.00    -0.400 OA
HETATM   22  H   UNL     1     -38.539 -56.595  15.160  1.00  0.00     0.209 HD
ENDBRANCH  20  21
ENDBRANCH  17  20
ENDBRANCH   4  15
TORSDOF 4
ENDMDL
MODEL 6
REMARK VINA RESULT:      -6.0      4.116      6.397
REMARK  4 active torsions:
REMARK  status: ('A' for Active; 'I' for Inactive)
REMARK    1  A    between atoms: C_5  and  N_6 
REMARK       I    between atoms: N_6  and  C_7 
REMARK       I    between atoms: C_7  and  N_9 
REMARK    2  A    between atoms: N_9  and  C_10 
REMARK    3  A    between atoms: C_12  and  C_13 
REMARK    4  A    between atoms: C_13  and  O_14 
ROOT
HETATM    1  N   UNL     1     -46.391 -54.307  15.225  1.00  0.00    -0.295 N 
HETATM    2  C   UNL     1     -45.529 -54.697  14.234  1.00  0.00     0.322 C 
HETATM    3  O   UNL     1     -45.584 -55.840  13.783  1.00  0.00    -0.247 OA
HETATM    4  N   UNL     1     -44.600 -53.787  13.859  1.00  0.00    -0.335 N 
HETATM    5  H   UNL     1     -47.006 -55.045  15.532  1.00  0.00     0.172 HD
HETATM    6  H   UNL     1     -44.726 -52.857  14.249  1.00  0.00     0.164 HD
ENDROOT
BRANCH   1   7
HETATM    7  C   UNL     1     -46.376 -53.103  15.945  1.00  0.00     0.108 A 
HETATM    8  C   UNL     1     -47.233 -52.084  15.556  1.00  0.00     0.049 A 
HETATM    9  C   UNL     1     -47.297 -50.924  16.333  1.00  0.00     0.012 A 
HETATM   10  C   UNL     1     -46.488 -50.798  17.462  1.00  0.00    -0.046 A 
HETATM   11  C   UNL     1     -46.522 -49.599  18.352  1.00  0.00     0.049 C 
HETATM   12  C   UNL     1     -45.627 -51.847  17.743  1.00  0.00     0.096 A 
HETATM   13  N   UNL     1     -45.563 -52.985  17.021  1.00  0.00    -0.352 N 
ATOM     14  HN  UNL     1     -44.920 -53.734  17.278  1.00  0.00     0.166 HD
ENDBRANCH   1   7
BRANCH   4  15
HETATM   15  C   UNL     1     -43.429 -54.071  13.083  1.00  0.00     0.109 C 
HETATM   16  C   UNL     1     -42.922 -52.872  12.279  1.00  0.00     0.040 C 
HETATM   17  C   UNL     1     -41.390 -52.902  12.409  1.00  0.00     0.034 C 
HETATM   18  C   UNL     1     -41.191 -53.665  13.688  1.00  0.00    -0.022 C 
HETATM   19  C   UNL     1     -42.301 -54.321  14.038  1.00  0.00    -0.005 C 
BRANCH  17  20
HETATM   20  C   UNL     1     -40.791 -51.497  12.410  1.00  0.00     0.172 C 
BRANCH  20  21
HETATM   21  O   UNL     1     -40.744 -50.962  11.090  1.00  0.00    -0.400 OA
HETATM   22  H   UNL     1     -41.537 -50.413  10.973  1.00  0.00     0.209 HD
ENDBRANCH  20  21
ENDBRANCH  17  20
ENDBRANCH   4  15
TORSDOF 4
ENDMDL
MODEL 7
REMARK VINA RESULT:      -6.0      1.509      1.755
REMARK  4 active torsions:
REMARK  status: ('A' for Active; 'I' for Inactive)
REMARK    1  A    between atoms: C_5  and  N_6 
REMARK       I    between atoms: N_6  and  C_7 
REMARK       I    between atoms: C_7  and  N_9 
REMARK    2  A    between atoms: N_9  and  C_10 
REMARK    3  A    between atoms: C_12  and  C_13 
REMARK    4  A    between atoms: C_13  and  O_14 
ROOT
HETATM    1  N   UNL     1     -40.948 -51.378  11.495  1.00  0.00    -0.295 N 
HETATM    2  C   UNL     1     -41.233 -50.047  11.342  1.00  0.00     0.322 C 
HETATM    3  O   UNL     1     -40.416 -49.298  10.810  1.00  0.00    -0.247 OA
HETATM    4  N   UNL     1     -42.406 -49.624  11.869  1.00  0.00    -0.335 N 
HETATM    5  H   UNL     1     -40.027 -51.629  11.166  1.00  0.00     0.172 HD
HETATM    6  H   UNL     1     -43.021 -50.363  12.198  1.00  0.00     0.164 HD
ENDROOT
BRANCH   1   7
HETATM    7  C   UNL     1     -41.693 -52.337  12.197  1.00  0.00     0.108 A 
HETATM    8  C   UNL     1     -41.188 -52.829  13.391  1.00  0.00     0.049 A 
HETATM    9  C   UNL     1     -41.973 -53.705  14.145  1.00  0.00     0.012 A 
HETATM   10  C   UNL     1     -43.232 -54.087  13.680  1.00  0.00    -0.046 A 
HETATM   11  C   UNL     1     -44.135 -54.998  14.444  1.00  0.00     0.049 C 
HETATM   12  C   UNL     1     -43.631 -53.583  12.451  1.00  0.00     0.096 A 
HETATM   13  N   UNL     1     -42.899 -52.720  11.716  1.00  0.00    -0.352 N 
ATOM     14  HN  UNL     1     -43.244 -52.367  10.824  1.00  0.00     0.166 HD
ENDBRANCH   1   7
BRANCH   4  15
HETATM   15  C   UNL     1     -42.765 -48.256  12.098  1.00  0.00     0.109 C 
HETATM   16  C   UNL     1     -41.562 -47.334  12.303  1.00  0.00     0.040 C 
HETATM   17  C   UNL     1     -41.889 -46.046  11.528  1.00  0.00     0.034 C 
HETATM   18  C   UNL     1     -42.875 -46.530  10.502  1.00  0.00    -0.022 C 
HETATM   19  C   UNL     1     -43.367 -47.727  10.833  1.00  0.00    -0.005 C 
BRANCH  17  20
HETATM   20  C   UNL     1     -40.634 -45.399  10.944  1.00  0.00     0.172 C 
BRANCH  20  21
HETATM   21  O   UNL     1     -39.793 -46.375  10.335  1.00  0.00    -0.400 OA
HETATM   22  H   UNL     1     -40.362 -47.110  10.052  1.00  0.00     0.209 HD
ENDBRANCH  20  21
ENDBRANCH  17  20
ENDBRANCH   4  15
TORSDOF 4
ENDMDL
MODEL 8
REMARK VINA RESULT:      -5.9      3.598      6.130
REMARK  4 active torsions:
REMARK  status: ('A' for Active; 'I' for Inactive)
REMARK    1  A    between atoms: C_5  and  N_6 
REMARK       I    between atoms: N_6  and  C_7 
REMARK       I    between atoms: C_7  and  N_9 
REMARK    2  A    between atoms: N_9  and  C_10 
REMARK    3  A    between atoms: C_12  and  C_13 
REMARK    4  A    between atoms: C_13  and  O_14 
ROOT
HETATM    1  N   UNL     1     -42.935 -53.288  12.019  1.00  0.00    -0.295 N 
HETATM    2  C   UNL     1     -43.993 -53.672  12.800  1.00  0.00     0.322 C 
HETATM    3  O   UNL     1     -44.796 -54.505  12.384  1.00  0.00    -0.247 OA
HETATM    4  N   UNL     1     -44.121 -53.033  13.986  1.00  0.00    -0.335 N 
HETATM    5  H   UNL     1     -42.930 -53.726  11.110  1.00  0.00     0.172 HD
HETATM    6  H   UNL     1     -43.340 -52.435  14.240  1.00  0.00     0.164 HD
ENDROOT
BRANCH   1   7
HETATM    7  C   UNL     1     -42.015 -52.260  12.272  1.00  0.00     0.108 A 
HETATM    8  C   UNL     1     -40.762 -52.596  12.764  1.00  0.00     0.049 A 
HETATM    9  C   UNL     1     -39.807 -51.588  12.919  1.00  0.00     0.012 A 
HETATM   10  C   UNL     1     -40.131 -50.268  12.604  1.00  0.00    -0.046 A 
HETATM   11  C   UNL     1     -39.153 -49.145  12.721  1.00  0.00     0.049 C 
HETATM   12  C   UNL     1     -41.423 -50.022  12.166  1.00  0.00     0.096 A 
HETATM   13  N   UNL     1     -42.355 -50.981  11.989  1.00  0.00    -0.352 N 
ATOM     14  HN  UNL     1     -43.289 -50.749  11.651  1.00  0.00     0.166 HD
ENDBRANCH   1   7
BRANCH   4  15
HETATM   15  C   UNL     1     -45.294 -53.046  14.810  1.00  0.00     0.109 C 
HETATM   16  C   UNL     1     -45.067 -52.459  16.205  1.00  0.00     0.040 C 
HETATM   17  C   UNL     1     -46.315 -51.613  16.508  1.00  0.00     0.034 C 
HETATM   18  C   UNL     1     -46.823 -51.286  15.132  1.00  0.00    -0.022 C 
HETATM   19  C   UNL     1     -46.279 -52.089  14.212  1.00  0.00    -0.005 C 
BRANCH  17  20
HETATM   20  C   UNL     1     -45.982 -50.393  17.366  1.00  0.00     0.172 C 
BRANCH  20  21
HETATM   21  O   UNL     1     -44.869 -49.682  16.829  1.00  0.00    -0.400 OA
HETATM   22  H   UNL     1     -44.090 -50.256  16.917  1.00  0.00     0.209 HD
ENDBRANCH  20  21
ENDBRANCH  17  20
ENDBRANCH   4  15
TORSDOF 4
ENDMDL
MODEL 9
REMARK VINA RESULT:      -5.9      2.205      2.794
REMARK  4 active torsions:
REMARK  status: ('A' for Active; 'I' for Inactive)
REMARK    1  A    between atoms: C_5  and  N_6 
REMARK       I    between atoms: N_6  and  C_7 
REMARK       I    between atoms: C_7  and  N_9 
REMARK    2  A    between atoms: N_9  and  C_10 
REMARK    3  A    between atoms: C_12  and  C_13 
REMARK    4  A    between atoms: C_13  and  O_14 
ROOT
HETATM    1  N   UNL     1     -42.460 -52.807  12.765  1.00  0.00    -0.295 N 
HETATM    2  C   UNL     1     -41.546 -52.051  12.080  1.00  0.00     0.322 C 
HETATM    3  O   UNL     1     -40.493 -52.556  11.695  1.00  0.00    -0.247 OA
HETATM    4  N   UNL     1     -41.847 -50.740  11.931  1.00  0.00    -0.335 N 
HETATM    5  H   UNL     1     -42.153 -53.754  12.928  1.00  0.00     0.172 HD
HETATM    6  H   UNL     1     -42.786 -50.479  12.217  1.00  0.00     0.164 HD
ENDROOT
BRANCH   1   7
HETATM    7  C   UNL     1     -43.634 -52.365  13.393  1.00  0.00     0.108 A 
HETATM    8  C   UNL     1     -44.846 -52.548  12.742  1.00  0.00     0.049 A 
HETATM    9  C   UNL     1     -46.026 -52.205  13.407  1.00  0.00     0.012 A 
HETATM   10  C   UNL     1     -45.969 -51.667  14.692  1.00  0.00    -0.046 A 
HETATM   11  C   UNL     1     -47.190 -51.302  15.471  1.00  0.00     0.049 C 
HETATM   12  C   UNL     1     -44.711 -51.475  15.242  1.00  0.00     0.096 A 
HETATM   13  N   UNL     1     -43.560 -51.817  14.628  1.00  0.00    -0.352 N 
ATOM     14  HN  UNL     1     -42.658 -51.667  15.082  1.00  0.00     0.166 HD
ENDBRANCH   1   7
BRANCH   4  15
HETATM   15  C   UNL     1     -40.924 -49.719  11.531  1.00  0.00     0.109 C 
HETATM   16  C   UNL     1     -41.520 -48.704  10.553  1.00  0.00     0.040 C 
HETATM   17  C   UNL     1     -40.998 -47.332  11.010  1.00  0.00     0.034 C 
HETATM   18  C   UNL     1     -40.694 -47.570  12.462  1.00  0.00    -0.022 C 
HETATM   19  C   UNL     1     -40.631 -48.877  12.735  1.00  0.00    -0.005 C 
BRANCH  17  20
HETATM   20  C   UNL     1     -42.014 -46.220  10.750  1.00  0.00     0.172 C 
BRANCH  20  21
HETATM   21  O   UNL     1     -41.912 -45.740   9.412  1.00  0.00    -0.400 OA
HETATM   22  H   UNL     1     -41.498 -44.862   9.451  1.00  0.00     0.209 HD
ENDBRANCH  20  21
ENDBRANCH  17  20
ENDBRANCH   4  15
TORSDOF 4
ENDMDL
