MODEL 1
REMARK VINA RESULT:      -6.4      0.000      0.000
REMARK  7 active torsions:
REMARK  status: ('A' for Active; 'I' for Inactive)
REMARK       I    between atoms: N_2  and  C_3 
REMARK    1  A    between atoms: C_3  and  C_5 
REMARK    2  A    between atoms: C_5  and  N_6 
REMARK    3  A    between atoms: N_6  and  C_8 
REMARK    4  A    between atoms: C_8  and  C_9 
REMARK    5  A    between atoms: C_9  and  O_10 
REMARK    6  A    between atoms: C_9  and  C_11 
REMARK    7  A    between atoms: C_11  and  N_12 
ROOT
HETATM    1  C   UNL     1     -41.579 -49.169  12.290  1.00  0.00     0.163 C 
ENDROOT
BRANCH   1   2
HETATM    2  C   UNL     1     -42.295 -48.536  11.090  1.00  0.00     0.164 C 
BRANCH   2   3
HETATM    3  C   UNL     1     -42.585 -47.038  11.337  1.00  0.00     0.305 C 
BRANCH   3   4
HETATM    4  N   UNL     1     -42.205 -46.155  10.206  1.00  0.00     0.095 N 
HETATM    5  C   UNL     1     -41.353 -45.062  10.707  1.00  0.00     0.310 C 
BRANCH   4   6
HETATM    6  C   UNL     1     -43.418 -45.589   9.554  1.00  0.00     0.374 C 
BRANCH   6   7
HETATM    7  C   UNL     1     -44.315 -46.683   8.962  1.00  0.00     0.245 C 
HETATM    8  N   UNL     1     -45.619 -46.640   9.404  1.00  0.00    -0.364 N 
HETATM    9  C   UNL     1     -46.599 -47.588   8.944  1.00  0.00     0.149 C 
HETATM   10  H   UNL     1     -45.833 -46.004  10.165  1.00  0.00     0.161 HD
HETATM   11  O   UNL     1     -43.903 -47.491   8.135  1.00  0.00    -0.272 OA
ENDBRANCH   6   7
ENDBRANCH   4   6
ENDBRANCH   3   4
ENDBRANCH   2   3
BRANCH   2  12
HETATM   12  O   UNL     1     -41.489 -48.690   9.913  1.00  0.00    -0.392 OA
HETATM   13  H   UNL     1     -41.537 -47.870   9.396  1.00  0.00     0.210 HD
ENDBRANCH   2  12
ENDBRANCH   1   2
BRANCH   1  14
HETATM   14  N   UNL     1     -41.774 -50.609  12.324  1.00  0.00    -0.339 N 
HETATM   15  C   UNL     1     -40.900 -51.527  11.810  1.00  0.00     0.184 A 
HETATM   16  N   UNL     1     -41.360 -52.751  11.921  1.00  0.00    -0.350 N 
HETATM   17  C   UNL     1     -42.592 -52.616  12.511  1.00  0.00     0.060 A 
ATOM     18  HN  UNL     1     -40.901 -53.616  11.632  1.00  0.00     0.166 HD
HETATM   19  C   UNL     1     -43.537 -53.601  12.828  1.00  0.00     0.039 A 
HETATM   20  C   UNL     1     -42.874 -51.283  12.796  1.00  0.00     0.062 A 
HETATM   21  C   UNL     1     -44.754 -53.235  13.438  1.00  0.00    -0.054 A 
HETATM   22  C   UNL     1     -45.743 -54.323  13.757  1.00  0.00     0.049 C 
HETATM   23  C   UNL     1     -45.013 -51.877  13.731  1.00  0.00    -0.054 A 
HETATM   24  C   UNL     1     -46.292 -51.417  14.383  1.00  0.00     0.049 C 
HETATM   25  C   UNL     1     -44.067 -50.881  13.406  1.00  0.00     0.039 A 
ENDBRANCH   1  14
TORSDOF 7
ENDMDL
MODEL 2
REMARK VINA RESULT:      -6.0      2.191      3.663
REMARK  7 active torsions:
REMARK  status: ('A' for Active; 'I' for Inactive)
REMARK       I    between atoms: N_2  and  C_3 
REMARK    1  A    between atoms: C_3  and  C_5 
REMARK    2  A    between atoms: C_5  and  N_6 
REMARK    3  A    between atoms: N_6  and  C_8 
REMARK    4  A    between atoms: C_8  and  C_9 
REMARK    5  A    between atoms: C_9  and  O_10 
REMARK    6  A    between atoms: C_9  and  C_11 
REMARK    7  A    between atoms: C_11  and  N_12 
ROOT
HETATM    1  C   UNL     1     -42.426 -53.021  13.370  1.00  0.00     0.163 C 
ENDROOT
BRANCH   1   2
HETATM    2  C   UNL     1     -42.247 -52.023  12.218  1.00  0.00     0.164 C 
BRANCH   2   3
HETATM    3  C   UNL     1     -41.651 -50.688  12.722  1.00  0.00     0.305 C 
BRANCH   3   4
HETATM    4  N   UNL     1     -41.484 -49.664  11.660  1.00  0.00     0.095 N 
HETATM    5  C   UNL     1     -40.064 -49.278  11.576  1.00  0.00     0.310 C 
BRANCH   4   6
HETATM    6  C   UNL     1     -42.315 -48.464  11.956  1.00  0.00     0.374 C 
BRANCH   6   7
HETATM    7  C   UNL     1     -42.852 -47.809  10.678  1.00  0.00     0.245 C 
HETATM    8  N   UNL     1     -44.201 -48.001  10.474  1.00  0.00    -0.364 N 
HETATM    9  C   UNL     1     -44.873 -47.449   9.328  1.00  0.00     0.149 C 
HETATM   10  H   UNL     1     -44.677 -48.656  11.085  1.00  0.00     0.161 HD
HETATM   11  O   UNL     1     -42.141 -47.138   9.936  1.00  0.00    -0.272 OA
ENDBRANCH   6   7
ENDBRANCH   4   6
ENDBRANCH   3   4
ENDBRANCH   2   3
BRANCH   2  12
HETATM   12  O   UNL     1     -41.393 -52.592  11.216  1.00  0.00    -0.392 OA
HETATM   13  H   UNL     1     -41.759 -53.452  10.950  1.00  0.00     0.210 HD
ENDBRANCH   2  12
ENDBRANCH   1   2
BRANCH   1  14
HETATM   14  N   UNL     1     -43.831 -53.254  13.654  1.00  0.00    -0.339 N 
HETATM   15  C   UNL     1     -44.615 -54.175  13.014  1.00  0.00     0.184 A 
HETATM   16  N   UNL     1     -45.859 -54.126  13.428  1.00  0.00    -0.350 N 
HETATM   17  C   UNL     1     -45.885 -53.116  14.358  1.00  0.00     0.060 A 
ATOM     18  HN  UNL     1     -46.639 -54.711  13.125  1.00  0.00     0.166 HD
HETATM   19  C   UNL     1     -46.968 -52.610  15.089  1.00  0.00     0.039 A 
HETATM   20  C   UNL     1     -44.622 -52.562  14.539  1.00  0.00     0.062 A 
HETATM   21  C   UNL     1     -46.767 -51.555  16.002  1.00  0.00    -0.054 A 
HETATM   22  C   UNL     1     -47.958 -51.037  16.762  1.00  0.00     0.049 C 
HETATM   23  C   UNL     1     -45.473 -51.017  16.179  1.00  0.00    -0.054 A 
HETATM   24  C   UNL     1     -45.187 -49.890  17.139  1.00  0.00     0.049 C 
HETATM   25  C   UNL     1     -44.381 -51.519  15.439  1.00  0.00     0.039 A 
ENDBRANCH   1  14
TORSDOF 7
ENDMDL
MODEL 3
REMARK VINA RESULT:      -5.9      1.632      2.628
REMARK  7 active torsions:
REMARK  status: ('A' for Active; 'I' for Inactive)
REMARK       I    between atoms: N_2  and  C_3 
REMARK    1  A    between atoms: C_3  and  C_5 
REMARK    2  A    between atoms: C_5  and  N_6 
REMARK    3  A    between atoms: N_6  and  C_8 
REMARK    4  A    between atoms: C_8  and  C_9 
REMARK    5  A    between atoms: C_9  and  O_10 
REMARK    6  A    between atoms: C_9  and  C_11 
REMARK    7  A    between atoms: C_11  and  N_12 
ROOT
HETATM    1  C   UNL     1     -41.934 -49.360  12.238  1.00  0.00     0.163 C 
ENDROOT
BRANCH   1   2
HETATM    2  C   UNL     1     -41.151 -48.945  10.986  1.00  0.00     0.164 C 
BRANCH   2   3
HETATM    3  C   UNL     1     -42.038 -48.131  10.015  1.00  0.00     0.305 C 
BRANCH   3   4
HETATM    4  N   UNL     1     -43.012 -47.239  10.693  1.00  0.00     0.095 N 
HETATM    5  C   UNL     1     -44.337 -47.402  10.069  1.00  0.00     0.310 C 
BRANCH   4   6
HETATM    6  C   UNL     1     -42.578 -45.818  10.590  1.00  0.00     0.374 C 
BRANCH   6   7
HETATM    7  C   UNL     1     -42.154 -45.248  11.949  1.00  0.00     0.245 C 
HETATM    8  N   UNL     1     -42.879 -44.146  12.347  1.00  0.00    -0.364 N 
HETATM    9  C   UNL     1     -42.620 -43.488  13.600  1.00  0.00     0.149 C 
HETATM   10  H   UNL     1     -43.510 -43.732  11.668  1.00  0.00     0.161 HD
HETATM   11  O   UNL     1     -41.274 -45.765  12.631  1.00  0.00    -0.272 OA
ENDBRANCH   6   7
ENDBRANCH   4   6
ENDBRANCH   3   4
ENDBRANCH   2   3
BRANCH   2  12
HETATM   12  O   UNL     1     -40.006 -48.171  11.369  1.00  0.00    -0.392 OA
HETATM   13  H   UNL     1     -40.293 -47.481  11.989  1.00  0.00     0.210 HD
ENDBRANCH   2  12
ENDBRANCH   1   2
BRANCH   1  14
HETATM   14  N   UNL     1     -42.049 -50.805  12.336  1.00  0.00    -0.339 N 
HETATM   15  C   UNL     1     -41.131 -51.696  11.850  1.00  0.00     0.184 A 
HETATM   16  N   UNL     1     -41.521 -52.937  12.020  1.00  0.00    -0.350 N 
HETATM   17  C   UNL     1     -42.752 -52.844  12.621  1.00  0.00     0.060 A 
ATOM     18  HN  UNL     1     -41.018 -53.787  11.762  1.00  0.00     0.166 HD
HETATM   19  C   UNL     1     -43.637 -53.865  12.993  1.00  0.00     0.039 A 
HETATM   20  C   UNL     1     -43.103 -51.518  12.852  1.00  0.00     0.062 A 
HETATM   21  C   UNL     1     -44.866 -53.540  13.603  1.00  0.00    -0.054 A 
HETATM   22  C   UNL     1     -45.789 -54.666  13.981  1.00  0.00     0.049 C 
HETATM   23  C   UNL     1     -45.196 -52.187  13.840  1.00  0.00    -0.054 A 
HETATM   24  C   UNL     1     -46.491 -51.770  14.490  1.00  0.00     0.049 C 
HETATM   25  C   UNL     1     -44.310 -51.156  13.460  1.00  0.00     0.039 A 
ENDBRANCH   1  14
TORSDOF 7
ENDMDL
MODEL 4
REMARK VINA RESULT:      -5.8      1.982      2.798
REMARK  7 active torsions:
REMARK  status: ('A' for Active; 'I' for Inactive)
REMARK       I    between atoms: N_2  and  C_3 
REMARK    1  A    between atoms: C_3  and  C_5 
REMARK    2  A    between atoms: C_5  and  N_6 
REMARK    3  A    between atoms: N_6  and  C_8 
REMARK    4  A    between atoms: C_8  and  C_9 
REMARK    5  A    between atoms: C_9  and  O_10 
REMARK    6  A    between atoms: C_9  and  C_11 
REMARK    7  A    between atoms: C_11  and  N_12 
ROOT
HETATM    1  C   UNL     1     -40.965 -51.187  13.478  1.00  0.00     0.163 C 
ENDROOT
BRANCH   1   2
HETATM    2  C   UNL     1     -40.391 -50.660  12.157  1.00  0.00     0.164 C 
BRANCH   2   3
HETATM    3  C   UNL     1     -40.133 -49.136  12.226  1.00  0.00     0.305 C 
BRANCH   3   4
HETATM    4  N   UNL     1     -40.810 -48.361  11.156  1.00  0.00     0.095 N 
HETATM    5  C   UNL     1     -40.361 -46.959  11.215  1.00  0.00     0.310 C 
BRANCH   4   6
HETATM    6  C   UNL     1     -42.289 -48.423  11.321  1.00  0.00     0.374 C 
BRANCH   6   7
HETATM    7  C   UNL     1     -43.024 -47.732  10.167  1.00  0.00     0.245 C 
HETATM    8  N   UNL     1     -42.730 -48.249   8.924  1.00  0.00    -0.364 N 
HETATM    9  C   UNL     1     -43.337 -47.725   7.730  1.00  0.00     0.149 C 
HETATM   10  H   UNL     1     -41.971 -48.920   8.865  1.00  0.00     0.161 HD
HETATM   11  O   UNL     1     -43.834 -46.829  10.353  1.00  0.00    -0.272 OA
ENDBRANCH   6   7
ENDBRANCH   4   6
ENDBRANCH   3   4
ENDBRANCH   2   3
BRANCH   2  12
HETATM   12  O   UNL     1     -39.170 -51.349  11.853  1.00  0.00    -0.392 OA
HETATM   13  H   UNL     1     -38.774 -51.655  12.685  1.00  0.00     0.210 HD
ENDBRANCH   2  12
ENDBRANCH   1   2
BRANCH   1  14
HETATM   14  N   UNL     1     -42.303 -51.723  13.297  1.00  0.00    -0.339 N 
HETATM   15  C   UNL     1     -42.699 -52.491  12.237  1.00  0.00     0.184 A 
HETATM   16  N   UNL     1     -43.978 -52.782  12.298  1.00  0.00    -0.350 N 
HETATM   17  C   UNL     1     -44.430 -52.158  13.434  1.00  0.00     0.060 A 
ATOM     18  HN  UNL     1     -44.518 -53.350  11.643  1.00  0.00     0.166 HD
HETATM   19  C   UNL     1     -45.728 -52.105  13.960  1.00  0.00     0.039 A 
HETATM   20  C   UNL     1     -43.398 -51.501  14.096  1.00  0.00     0.062 A 
HETATM   21  C   UNL     1     -45.973 -51.397  15.154  1.00  0.00    -0.054 A 
HETATM   22  C   UNL     1     -47.382 -51.360  15.681  1.00  0.00     0.049 C 
HETATM   23  C   UNL     1     -44.907 -50.749  15.817  1.00  0.00    -0.054 A 
HETATM   24  C   UNL     1     -45.098 -49.976  17.098  1.00  0.00     0.049 C 
HETATM   25  C   UNL     1     -43.600 -50.794  15.286  1.00  0.00     0.039 A 
ENDBRANCH   1  14
TORSDOF 7
ENDMDL
MODEL 5
REMARK VINA RESULT:      -5.8      4.265      6.117
REMARK  7 active torsions:
REMARK  status: ('A' for Active; 'I' for Inactive)
REMARK       I    between atoms: N_2  and  C_3 
REMARK    1  A    between atoms: C_3  and  C_5 
REMARK    2  A    between atoms: C_5  and  N_6 
REMARK    3  A    between atoms: N_6  and  C_8 
REMARK    4  A    between atoms: C_8  and  C_9 
REMARK    5  A    between atoms: C_9  and  O_10 
REMARK    6  A    between atoms: C_9  and  C_11 
REMARK    7  A    between atoms: C_11  and  N_12 
ROOT
HETATM    1  C   UNL     1     -40.837 -52.658  12.051  1.00  0.00     0.163 C 
ENDROOT
BRANCH   1   2
HETATM    2  C   UNL     1     -41.193 -51.166  12.023  1.00  0.00     0.164 C 
BRANCH   2   3
HETATM    3  C   UNL     1     -40.623 -50.430  13.257  1.00  0.00     0.305 C 
BRANCH   3   4
HETATM    4  N   UNL     1     -39.297 -50.931  13.699  1.00  0.00     0.095 N 
HETATM    5  C   UNL     1     -39.269 -51.001  15.170  1.00  0.00     0.310 C 
BRANCH   4   6
HETATM    6  C   UNL     1     -38.212 -50.033  13.216  1.00  0.00     0.374 C 
BRANCH   6   7
HETATM    7  C   UNL     1     -37.426 -50.655  12.055  1.00  0.00     0.245 C 
HETATM    8  N   UNL     1     -37.455 -49.912  10.896  1.00  0.00    -0.364 N 
HETATM    9  C   UNL     1     -36.764 -50.343   9.710  1.00  0.00     0.149 C 
HETATM   10  H   UNL     1     -38.089 -49.120  10.865  1.00  0.00     0.161 HD
HETATM   11  O   UNL     1     -36.795 -51.701  12.177  1.00  0.00    -0.272 OA
ENDBRANCH   6   7
ENDBRANCH   4   6
ENDBRANCH   3   4
ENDBRANCH   2   3
BRANCH   2  12
HETATM   12  O   UNL     1     -40.683 -50.572  10.820  1.00  0.00    -0.392 OA
HETATM   13  H   UNL     1     -40.885 -49.622  10.835  1.00  0.00     0.210 HD
ENDBRANCH   2  12
ENDBRANCH   1   2
BRANCH   1  14
HETATM   14  N   UNL     1     -41.718 -53.395  12.940  1.00  0.00    -0.339 N 
HETATM   15  C   UNL     1     -43.083 -53.397  12.861  1.00  0.00     0.184 A 
HETATM   16  N   UNL     1     -43.626 -54.097  13.830  1.00  0.00    -0.350 N 
HETATM   17  C   UNL     1     -42.567 -54.548  14.578  1.00  0.00     0.060 A 
ATOM     18  HN  UNL     1     -44.619 -54.269  13.991  1.00  0.00     0.166 HD
HETATM   19  C   UNL     1     -42.573 -55.312  15.753  1.00  0.00     0.039 A 
HETATM   20  C   UNL     1     -41.353 -54.142  14.034  1.00  0.00     0.062 A 
HETATM   21  C   UNL     1     -41.353 -55.667  16.364  1.00  0.00    -0.054 A 
HETATM   22  C   UNL     1     -41.404 -56.483  17.628  1.00  0.00     0.049 C 
HETATM   23  C   UNL     1     -40.132 -55.255  15.787  1.00  0.00    -0.054 A 
HETATM   24  C   UNL     1     -38.793 -55.601  16.387  1.00  0.00     0.049 C 
HETATM   25  C   UNL     1     -40.123 -54.479  14.607  1.00  0.00     0.039 A 
ENDBRANCH   1  14
TORSDOF 7
ENDMDL
MODEL 6
REMARK VINA RESULT:      -5.8      2.899      3.742
REMARK  7 active torsions:
REMARK  status: ('A' for Active; 'I' for Inactive)
REMARK       I    between atoms: N_2  and  C_3 
REMARK    1  A    between atoms: C_3  and  C_5 
REMARK    2  A    between atoms: C_5  and  N_6 
REMARK    3  A    between atoms: N_6  and  C_8 
REMARK    4  A    between atoms: C_8  and  C_9 
REMARK    5  A    between atoms: C_9  and  O_10 
REMARK    6  A    between atoms: C_9  and  C_11 
REMARK    7  A    between atoms: C_11  and  N_12 
ROOT
HETATM    1  C   UNL     1     -39.729 -50.482  12.137  1.00  0.00     0.163 C 
ENDROOT
BRANCH   1   2
HETATM    2  C   UNL     1     -40.838 -49.714  11.405  1.00  0.00     0.164 C 
BRANCH   2   3
HETATM    3  C   UNL     1     -40.937 -48.256  11.912  1.00  0.00     0.305 C 
BRANCH   3   4
HETATM    4  N   UNL     1     -41.228 -47.266  10.844  1.00  0.00     0.095 N 
HETATM    5  C   UNL     1     -40.295 -46.133  10.965  1.00  0.00     0.310 C 
BRANCH   4   6
HETATM    6  C   UNL     1     -42.630 -46.777  10.954  1.00  0.00     0.374 C 
BRANCH   6   7
HETATM    7  C   UNL     1     -43.504 -47.276   9.797  1.00  0.00     0.245 C 
HETATM    8  N   UNL     1     -42.795 -47.628   8.669  1.00  0.00    -0.364 N 
HETATM    9  C   UNL     1     -43.455 -48.125   7.492  1.00  0.00     0.149 C 
HETATM   10  H   UNL     1     -41.806 -47.400   8.649  1.00  0.00     0.161 HD
HETATM   11  O   UNL     1     -44.722 -47.387   9.896  1.00  0.00    -0.272 OA
ENDBRANCH   6   7
ENDBRANCH   4   6
ENDBRANCH   3   4
ENDBRANCH   2   3
BRANCH   2  12
HETATM   12  O   UNL     1     -40.581 -49.725   9.994  1.00  0.00    -0.392 OA
HETATM   13  H   UNL     1     -41.221 -50.319   9.568  1.00  0.00     0.210 HD
ENDBRANCH   2  12
ENDBRANCH   1   2
BRANCH   1  14
HETATM   14  N   UNL     1     -40.190 -51.787  12.576  1.00  0.00    -0.339 N 
HETATM   15  C   UNL     1     -41.054 -52.586  11.877  1.00  0.00     0.184 A 
HETATM   16  N   UNL     1     -41.349 -53.680  12.539  1.00  0.00    -0.350 N 
HETATM   17  C   UNL     1     -40.664 -53.573  13.724  1.00  0.00     0.060 A 
ATOM     18  HN  UNL     1     -41.955 -54.444  12.238  1.00  0.00     0.166 HD
HETATM   19  C   UNL     1     -40.649 -54.444  14.822  1.00  0.00     0.039 A 
HETATM   20  C   UNL     1     -39.910 -52.405  13.770  1.00  0.00     0.062 A 
HETATM   21  C   UNL     1     -39.866 -54.135  15.953  1.00  0.00    -0.054 A 
HETATM   22  C   UNL     1     -39.883 -55.094  17.111  1.00  0.00     0.049 C 
HETATM   23  C   UNL     1     -39.098 -52.950  15.972  1.00  0.00    -0.054 A 
HETATM   24  C   UNL     1     -38.238 -52.558  17.147  1.00  0.00     0.049 C 
HETATM   25  C   UNL     1     -39.117 -52.066  14.871  1.00  0.00     0.039 A 
ENDBRANCH   1  14
TORSDOF 7
ENDMDL
MODEL 7
REMARK VINA RESULT:      -5.8      3.363      4.714
REMARK  7 active torsions:
REMARK  status: ('A' for Active; 'I' for Inactive)
REMARK       I    between atoms: N_2  and  C_3 
REMARK    1  A    between atoms: C_3  and  C_5 
REMARK    2  A    between atoms: C_5  and  N_6 
REMARK    3  A    between atoms: N_6  and  C_8 
REMARK    4  A    between atoms: C_8  and  C_9 
REMARK    5  A    between atoms: C_9  and  O_10 
REMARK    6  A    between atoms: C_9  and  C_11 
REMARK    7  A    between atoms: C_11  and  N_12 
ROOT
HETATM    1  C   UNL     1     -38.935 -52.034  13.731  1.00  0.00     0.163 C 
ENDROOT
BRANCH   1   2
HETATM    2  C   UNL     1     -38.032 -50.986  13.068  1.00  0.00     0.164 C 
BRANCH   2   3
HETATM    3  C   UNL     1     -37.510 -49.961  14.102  1.00  0.00     0.305 C 
BRANCH   3   4
HETATM    4  N   UNL     1     -37.924 -48.562  13.825  1.00  0.00     0.095 N 
HETATM    5  C   UNL     1     -37.098 -47.644  14.630  1.00  0.00     0.310 C 
BRANCH   4   6
HETATM    6  C   UNL     1     -39.362 -48.367  14.156  1.00  0.00     0.374 C 
BRANCH   6   7
HETATM    7  C   UNL     1     -40.015 -47.299  13.270  1.00  0.00     0.245 C 
HETATM    8  N   UNL     1     -39.727 -47.429  11.929  1.00  0.00    -0.364 N 
HETATM    9  C   UNL     1     -40.263 -46.517  10.954  1.00  0.00     0.149 C 
HETATM   10  H   UNL     1     -39.018 -48.106  11.668  1.00  0.00     0.161 HD
HETATM   11  O   UNL     1     -40.761 -46.437  13.725  1.00  0.00    -0.272 OA
ENDBRANCH   6   7
ENDBRANCH   4   6
ENDBRANCH   3   4
ENDBRANCH   2   3
BRANCH   2  12
HETATM   12  O   UNL     1     -36.927 -51.639  12.426  1.00  0.00    -0.392 OA
HETATM   13  H   UNL     1     -36.571 -52.310  13.031  1.00  0.00     0.210 HD
ENDBRANCH   2  12
ENDBRANCH   1   2
BRANCH   1  14
HETATM   14  N   UNL     1     -40.228 -52.110  13.074  1.00  0.00    -0.339 N 
HETATM   15  C   UNL     1     -40.631 -51.302  12.047  1.00  0.00     0.184 A 
HETATM   16  N   UNL     1     -41.869 -51.550  11.690  1.00  0.00    -0.350 N 
HETATM   17  C   UNL     1     -42.291 -52.544  12.537  1.00  0.00     0.060 A 
ATOM     18  HN  UNL     1     -42.403 -51.101  10.944  1.00  0.00     0.166 HD
HETATM   19  C   UNL     1     -43.546 -53.162  12.625  1.00  0.00     0.039 A 
HETATM   20  C   UNL     1     -41.277 -52.933  13.406  1.00  0.00     0.062 A 
HETATM   21  C   UNL     1     -43.765 -54.173  13.583  1.00  0.00    -0.054 A 
HETATM   22  C   UNL     1     -45.128 -54.806  13.647  1.00  0.00     0.049 C 
HETATM   23  C   UNL     1     -42.716 -54.562  14.445  1.00  0.00    -0.054 A 
HETATM   24  C   UNL     1     -42.880 -55.637  15.490  1.00  0.00     0.049 C 
HETATM   25  C   UNL     1     -41.453 -53.937  14.365  1.00  0.00     0.039 A 
ENDBRANCH   1  14
TORSDOF 7
ENDMDL
MODEL 8
REMARK VINA RESULT:      -5.4      3.051      7.114
REMARK  7 active torsions:
REMARK  status: ('A' for Active; 'I' for Inactive)
REMARK       I    between atoms: N_2  and  C_3 
REMARK    1  A    between atoms: C_3  and  C_5 
REMARK    2  A    between atoms: C_5  and  N_6 
REMARK    3  A    between atoms: N_6  and  C_8 
REMARK    4  A    between atoms: C_8  and  C_9 
REMARK    5  A    between atoms: C_9  and  O_10 
REMARK    6  A    between atoms: C_9  and  C_11 
REMARK    7  A    between atoms: C_11  and  N_12 
ROOT
HETATM    1  C   UNL     1     -41.790 -51.567  12.193  1.00  0.00     0.163 C 
ENDROOT
BRANCH   1   2
HETATM    2  C   UNL     1     -41.137 -52.918  12.513  1.00  0.00     0.164 C 
BRANCH   2   3
HETATM    3  C   UNL     1     -42.162 -53.905  13.119  1.00  0.00     0.305 C 
BRANCH   3   4
HETATM    4  N   UNL     1     -42.607 -53.545  14.489  1.00  0.00     0.095 N 
HETATM    5  C   UNL     1     -41.433 -53.453  15.373  1.00  0.00     0.310 C 
BRANCH   4   6
HETATM    6  C   UNL     1     -43.555 -54.566  15.015  1.00  0.00     0.374 C 
BRANCH   6   7
HETATM    7  C   UNL     1     -45.016 -54.126  14.862  1.00  0.00     0.245 C 
HETATM    8  N   UNL     1     -45.183 -52.764  14.748  1.00  0.00    -0.364 N 
HETATM    9  C   UNL     1     -46.487 -52.177  14.589  1.00  0.00     0.149 C 
HETATM   10  H   UNL     1     -44.370 -52.178  14.915  1.00  0.00     0.161 HD
HETATM   11  O   UNL     1     -45.940 -54.932  14.804  1.00  0.00    -0.272 OA
ENDBRANCH   6   7
ENDBRANCH   4   6
ENDBRANCH   3   4
ENDBRANCH   2   3
BRANCH   2  12
HETATM   12  O   UNL     1     -40.570 -53.473  11.318  1.00  0.00    -0.392 OA
HETATM   13  H   UNL     1     -41.262 -53.970  10.850  1.00  0.00     0.210 HD
ENDBRANCH   2  12
ENDBRANCH   1   2
BRANCH   1  14
HETATM   14  N   UNL     1     -40.816 -50.489  12.217  1.00  0.00    -0.339 N 
HETATM   15  C   UNL     1     -39.618 -50.534  12.876  1.00  0.00     0.184 A 
HETATM   16  N   UNL     1     -38.967 -49.399  12.780  1.00  0.00    -0.350 N 
HETATM   17  C   UNL     1     -39.789 -48.579  12.048  1.00  0.00     0.060 A 
ATOM     18  HN  UNL     1     -38.050 -49.174  13.167  1.00  0.00     0.166 HD
HETATM   19  C   UNL     1     -39.606 -47.239  11.679  1.00  0.00     0.039 A 
HETATM   20  C   UNL     1     -40.950 -49.241  11.660  1.00  0.00     0.062 A 
HETATM   21  C   UNL     1     -40.592 -46.581  10.916  1.00  0.00    -0.054 A 
HETATM   22  C   UNL     1     -40.359 -45.141  10.547  1.00  0.00     0.049 C 
HETATM   23  C   UNL     1     -41.756 -47.276  10.522  1.00  0.00    -0.054 A 
HETATM   24  C   UNL     1     -42.848 -46.635   9.704  1.00  0.00     0.049 C 
HETATM   25  C   UNL     1     -41.947 -48.624  10.897  1.00  0.00     0.039 A 
ENDBRANCH   1  14
TORSDOF 7
ENDMDL
MODEL 9
REMARK VINA RESULT:      -5.4      3.799      6.942
REMARK  7 active torsions:
REMARK  status: ('A' for Active; 'I' for Inactive)
REMARK       I    between atoms: N_2  and  C_3 
REMARK    1  A    between atoms: C_3  and  C_5 
REMARK    2  A    between atoms: C_5  and  N_6 
REMARK    3  A    between atoms: N_6  and  C_8 
REMARK    4  A    between atoms: C_8  and  C_9 
REMARK    5  A    between atoms: C_9  and  O_10 
REMARK    6  A    between atoms: C_9  and  C_11 
REMARK    7  A    between atoms: C_11  and  N_12 
ROOT
HETATM    1  C   UNL     1     -41.591 -51.579  12.439  1.00  0.00     0.163 C 
ENDROOT
BRANCH   1   2
HETATM    2  C   UNL     1     -40.930 -52.962  12.515  1.00  0.00     0.164 C 
BRANCH   2   3
HETATM    3  C   UNL     1     -41.872 -53.997  13.175  1.00  0.00     0.305 C 
BRANCH   3   4
HETATM    4  N   UNL     1     -42.564 -53.494  14.388  1.00  0.00     0.095 N 
HETATM    5  C   UNL     1     -41.699 -53.703  15.562  1.00  0.00     0.310 C 
BRANCH   4   6
HETATM    6  C   UNL     1     -43.859 -54.204  14.583  1.00  0.00     0.374 C 
BRANCH   6   7
HETATM    7  C   UNL     1     -44.974 -53.613  13.712  1.00  0.00     0.245 C 
HETATM    8  N   UNL     1     -45.398 -52.365  14.113  1.00  0.00    -0.364 N 
HETATM    9  C   UNL     1     -46.432 -51.660  13.404  1.00  0.00     0.149 C 
HETATM   10  H   UNL     1     -45.053 -52.018  15.002  1.00  0.00     0.161 HD
HETATM   11  O   UNL     1     -45.408 -54.194  12.722  1.00  0.00    -0.272 OA
ENDBRANCH   6   7
ENDBRANCH   4   6
ENDBRANCH   3   4
ENDBRANCH   2   3
BRANCH   2  12
HETATM   12  O   UNL     1     -40.572 -53.398  11.196  1.00  0.00    -0.392 OA
HETATM   13  H   UNL     1     -41.329 -53.248  10.605  1.00  0.00     0.210 HD
ENDBRANCH   2  12
ENDBRANCH   1   2
BRANCH   1  14
HETATM   14  N   UNL     1     -40.599 -50.525  12.322  1.00  0.00    -0.339 N 
HETATM   15  C   UNL     1     -40.290 -49.869  11.162  1.00  0.00     0.184 A 
HETATM   16  N   UNL     1     -39.312 -49.010  11.335  1.00  0.00    -0.350 N 
HETATM   17  C   UNL     1     -38.960 -49.133  12.656  1.00  0.00     0.060 A 
ATOM     18  HN  UNL     1     -38.903 -48.386  10.638  1.00  0.00     0.166 HD
HETATM   19  C   UNL     1     -37.947 -48.479  13.369  1.00  0.00     0.039 A 
HETATM   20  C   UNL     1     -39.764 -50.062  13.310  1.00  0.00     0.062 A 
HETATM   21  C   UNL     1     -37.757 -48.761  14.738  1.00  0.00    -0.054 A 
HETATM   22  C   UNL     1     -36.653 -48.041  15.464  1.00  0.00     0.049 C 
HETATM   23  C   UNL     1     -38.593 -49.698  15.384  1.00  0.00    -0.054 A 
HETATM   24  C   UNL     1     -38.447 -50.045  16.843  1.00  0.00     0.049 C 
HETATM   25  C   UNL     1     -39.611 -50.364  14.667  1.00  0.00     0.039 A 
ENDBRANCH   1  14
TORSDOF 7
ENDMDL
