MODEL 1
REMARK VINA RESULT:      -5.7      0.000      0.000
REMARK  6 active torsions:
REMARK  status: ('A' for Active; 'I' for Inactive)
REMARK    1  A    between atoms: S_2  and  C_3 
REMARK    2  A    between atoms: C_7  and  N_9 
REMARK    3  A    between atoms: N_9  and  C_10 
REMARK    4  A    between atoms: C_10  and  C_11 
REMARK    5  A    between atoms: C_10  and  C_19 
REMARK    6  A    between atoms: C_11  and  C_12 
ROOT
HETATM    1  C   UNL     1     -45.126 -52.892  13.822  1.00  0.00     0.331 C 
ENDROOT
BRANCH   1   2
HETATM    2  N   UNL     1     -44.436 -52.838  12.490  1.00  0.00     0.102 N 
HETATM    3  H   UNL     1     -44.663 -53.676  11.954  1.00  0.00     0.317 HD
BRANCH   2   4
HETATM    4  C   UNL     1     -42.991 -52.605  12.523  1.00  0.00     0.222 C 
HETATM    5  C   UNL     1     -42.286 -53.879  13.012  1.00  0.00     0.036 C 
HETATM    6  C   UNL     1     -40.769 -53.718  12.906  1.00  0.00     0.003 C 
HETATM    7  C   UNL     1     -40.265 -52.493  13.670  1.00  0.00     0.015 C 
HETATM    8  C   UNL     1     -41.039 -51.199  13.376  1.00  0.00     0.049 C 
HETATM    9  C   UNL     1     -42.561 -51.436  13.430  1.00  0.00     0.050 C 
BRANCH   8  10
HETATM   10  S   UNL     1     -40.635 -50.459  11.735  1.00  0.00    -0.169 SA
HETATM   11  C   UNL     1     -41.853 -49.128  11.655  1.00  0.00     0.090 C 
ENDBRANCH   8  10
ENDBRANCH   2   4
ENDBRANCH   1   2
BRANCH   1  12
HETATM   12  C   UNL     1     -46.242 -51.834  14.061  1.00  0.00     0.083 C 
BRANCH  12  13
HETATM   13  C   UNL     1     -46.436 -51.303  15.464  1.00  0.00    -0.053 A 
HETATM   14  C   UNL     1     -47.683 -51.455  16.085  1.00  0.00     0.024 A 
HETATM   15  C   UNL     1     -47.877 -50.915  17.348  1.00  0.00     0.088 A 
HETATM   16  N   UNL     1     -46.923 -50.256  18.037  1.00  0.00    -0.375 N 
HETATM   17  C   UNL     1     -45.720 -50.146  17.438  1.00  0.00     0.088 A 
ATOM     18  HN  UNL     1     -47.101 -49.863  18.961  1.00  0.00     0.164 HD
HETATM   19  C   UNL     1     -45.429 -50.657  16.181  1.00  0.00     0.024 A 
ENDBRANCH  12  13
ENDBRANCH   1  12
BRANCH   1  20
HETATM   20  C   UNL     1     -45.620 -54.318  14.234  1.00  0.00     0.418 C 
HETATM   21  F   UNL     1     -45.379 -55.230  13.261  1.00  0.00    -0.169 F 
HETATM   22  F   UNL     1     -44.941 -54.734  15.331  1.00  0.00    -0.169 F 
HETATM   23  F   UNL     1     -46.931 -54.384  14.541  1.00  0.00    -0.169 F 
ENDBRANCH   1  20
TORSDOF 6
ENDMDL
MODEL 2
REMARK VINA RESULT:      -5.6      2.380      3.580
REMARK  6 active torsions:
REMARK  status: ('A' for Active; 'I' for Inactive)
REMARK    1  A    between atoms: S_2  and  C_3 
REMARK    2  A    between atoms: C_7  and  N_9 
REMARK    3  A    between atoms: N_9  and  C_10 
REMARK    4  A    between atoms: C_10  and  C_11 
REMARK    5  A    between atoms: C_10  and  C_19 
REMARK    6  A    between atoms: C_11  and  C_12 
ROOT
HETATM    1  C   UNL     1     -42.428 -52.884  12.631  1.00  0.00     0.331 C 
ENDROOT
BRANCH   1   2
HETATM    2  N   UNL     1     -41.590 -52.350  11.507  1.00  0.00     0.102 N 
HETATM    3  H   UNL     1     -40.859 -53.024  11.276  1.00  0.00     0.317 HD
BRANCH   2   4
HETATM    4  C   UNL     1     -41.034 -51.010  11.700  1.00  0.00     0.222 C 
HETATM    5  C   UNL     1     -39.693 -51.122  12.441  1.00  0.00     0.036 C 
HETATM    6  C   UNL     1     -39.014 -49.753  12.515  1.00  0.00     0.003 C 
HETATM    7  C   UNL     1     -39.909 -48.701  13.172  1.00  0.00     0.015 C 
HETATM    8  C   UNL     1     -41.338 -48.645  12.612  1.00  0.00     0.049 C 
HETATM    9  C   UNL     1     -41.947 -50.056  12.495  1.00  0.00     0.050 C 
BRANCH   8  10
HETATM   10  S   UNL     1     -41.446 -47.839  10.956  1.00  0.00    -0.169 SA
HETATM   11  C   UNL     1     -43.236 -47.769  10.730  1.00  0.00     0.090 C 
ENDBRANCH   8  10
ENDBRANCH   2   4
ENDBRANCH   1   2
BRANCH   1  12
HETATM   12  C   UNL     1     -43.852 -53.383  12.250  1.00  0.00     0.083 C 
BRANCH  12  13
HETATM   13  C   UNL     1     -45.000 -53.047  13.176  1.00  0.00    -0.053 A 
HETATM   14  C   UNL     1     -45.413 -51.714  13.298  1.00  0.00     0.024 A 
HETATM   15  C   UNL     1     -46.426 -51.401  14.192  1.00  0.00     0.088 A 
HETATM   16  N   UNL     1     -47.062 -52.314  14.954  1.00  0.00    -0.375 N 
HETATM   17  C   UNL     1     -46.674 -53.597  14.802  1.00  0.00     0.088 A 
ATOM     18  HN  UNL     1     -47.798 -52.049  15.610  1.00  0.00     0.164 HD
HETATM   19  C   UNL     1     -45.676 -54.007  13.930  1.00  0.00     0.024 A 
ENDBRANCH  12  13
ENDBRANCH   1  12
BRANCH   1  20
HETATM   20  C   UNL     1     -41.700 -53.933  13.536  1.00  0.00     0.418 C 
HETATM   21  F   UNL     1     -40.685 -54.542  12.875  1.00  0.00    -0.169 F 
HETATM   22  F   UNL     1     -41.145 -53.307  14.602  1.00  0.00    -0.169 F 
HETATM   23  F   UNL     1     -42.504 -54.896  14.027  1.00  0.00    -0.169 F 
ENDBRANCH   1  20
TORSDOF 6
ENDMDL
MODEL 3
REMARK VINA RESULT:      -5.5      5.051      7.130
REMARK  6 active torsions:
REMARK  status: ('A' for Active; 'I' for Inactive)
REMARK    1  A    between atoms: S_2  and  C_3 
REMARK    2  A    between atoms: C_7  and  N_9 
REMARK    3  A    between atoms: N_9  and  C_10 
REMARK    4  A    between atoms: C_10  and  C_11 
REMARK    5  A    between atoms: C_10  and  C_19 
REMARK    6  A    between atoms: C_11  and  C_12 
ROOT
HETATM    1  C   UNL     1     -39.685 -49.509  12.229  1.00  0.00     0.331 C 
ENDROOT
BRANCH   1   2
HETATM    2  N   UNL     1     -40.445 -49.585  10.936  1.00  0.00     0.102 N 
HETATM    3  H   UNL     1     -39.812 -49.861  10.185  1.00  0.00     0.317 HD
BRANCH   2   4
HETATM    4  C   UNL     1     -41.215 -48.396  10.572  1.00  0.00     0.222 C 
HETATM    5  C   UNL     1     -40.465 -47.143  11.050  1.00  0.00     0.036 C 
HETATM    6  C   UNL     1     -41.167 -45.882  10.545  1.00  0.00     0.003 C 
HETATM    7  C   UNL     1     -42.635 -45.829  10.969  1.00  0.00     0.015 C 
HETATM    8  C   UNL     1     -43.422 -47.119  10.692  1.00  0.00     0.049 C 
HETATM    9  C   UNL     1     -42.639 -48.361  11.161  1.00  0.00     0.050 C 
BRANCH   8  10
HETATM   10  S   UNL     1     -43.848 -47.351   8.913  1.00  0.00    -0.169 SA
HETATM   11  C   UNL     1     -45.640 -47.542   9.016  1.00  0.00     0.090 C 
ENDBRANCH   8  10
ENDBRANCH   2   4
ENDBRANCH   1   2
BRANCH   1  12
HETATM   12  C   UNL     1     -40.271 -50.321  13.420  1.00  0.00     0.083 C 
BRANCH  12  13
HETATM   13  C   UNL     1     -41.013 -51.604  13.116  1.00  0.00    -0.053 A 
HETATM   14  C   UNL     1     -42.382 -51.549  12.827  1.00  0.00     0.024 A 
HETATM   15  C   UNL     1     -43.072 -52.732  12.608  1.00  0.00     0.088 A 
HETATM   16  N   UNL     1     -42.498 -53.952  12.639  1.00  0.00    -0.375 N 
HETATM   17  C   UNL     1     -41.174 -53.985  12.888  1.00  0.00     0.088 A 
ATOM     18  HN  UNL     1     -43.037 -54.805  12.482  1.00  0.00     0.164 HD
HETATM   19  C   UNL     1     -40.398 -52.857  13.113  1.00  0.00     0.024 A 
ENDBRANCH  12  13
ENDBRANCH   1  12
BRANCH   1  20
HETATM   20  C   UNL     1     -38.148 -49.766  12.089  1.00  0.00     0.418 C 
HETATM   21  F   UNL     1     -37.452 -49.189  13.099  1.00  0.00    -0.169 F 
HETATM   22  F   UNL     1     -37.902 -51.097  12.163  1.00  0.00    -0.169 F 
HETATM   23  F   UNL     1     -37.615 -49.337  10.929  1.00  0.00    -0.169 F 
ENDBRANCH   1  20
TORSDOF 6
ENDMDL
MODEL 4
REMARK VINA RESULT:      -5.5      4.855      7.239
REMARK  6 active torsions:
REMARK  status: ('A' for Active; 'I' for Inactive)
REMARK    1  A    between atoms: S_2  and  C_3 
REMARK    2  A    between atoms: C_7  and  N_9 
REMARK    3  A    between atoms: N_9  and  C_10 
REMARK    4  A    between atoms: C_10  and  C_11 
REMARK    5  A    between atoms: C_10  and  C_19 
REMARK    6  A    between atoms: C_11  and  C_12 
ROOT
HETATM    1  C   UNL     1     -39.230 -49.978  11.527  1.00  0.00     0.331 C 
ENDROOT
BRANCH   1   2
HETATM    2  N   UNL     1     -39.845 -51.340  11.662  1.00  0.00     0.102 N 
HETATM    3  H   UNL     1     -40.200 -51.645  10.755  1.00  0.00     0.317 HD
BRANCH   2   4
HETATM    4  C   UNL     1     -40.862 -51.486  12.705  1.00  0.00     0.222 C 
HETATM    5  C   UNL     1     -40.207 -52.065  13.968  1.00  0.00     0.036 C 
HETATM    6  C   UNL     1     -41.211 -52.080  15.123  1.00  0.00     0.003 C 
HETATM    7  C   UNL     1     -42.483 -52.851  14.771  1.00  0.00     0.015 C 
HETATM    8  C   UNL     1     -43.109 -52.461  13.423  1.00  0.00     0.049 C 
HETATM    9  C   UNL     1     -42.042 -52.396  12.312  1.00  0.00     0.050 C 
BRANCH   8  10
HETATM   10  S   UNL     1     -43.990 -50.841  13.464  1.00  0.00    -0.169 SA
HETATM   11  C   UNL     1     -45.695 -51.376  13.207  1.00  0.00     0.090 C 
ENDBRANCH   8  10
ENDBRANCH   2   4
ENDBRANCH   1   2
BRANCH   1  12
HETATM   12  C   UNL     1     -39.986 -48.810  12.224  1.00  0.00     0.083 C 
BRANCH  12  13
HETATM   13  C   UNL     1     -40.774 -47.850  11.361  1.00  0.00    -0.053 A 
HETATM   14  C   UNL     1     -41.905 -48.316  10.678  1.00  0.00     0.024 A 
HETATM   15  C   UNL     1     -42.590 -47.449   9.840  1.00  0.00     0.088 A 
HETATM   16  N   UNL     1     -42.244 -46.159   9.649  1.00  0.00    -0.375 N 
HETATM   17  C   UNL     1     -41.172 -45.719  10.338  1.00  0.00     0.088 A 
ATOM     18  HN  UNL     1     -42.765 -45.550   9.017  1.00  0.00     0.164 HD
HETATM   19  C   UNL     1     -40.427 -46.508  11.202  1.00  0.00     0.024 A 
ENDBRANCH  12  13
ENDBRANCH   1  12
BRANCH   1  20
HETATM   20  C   UNL     1     -37.702 -49.924  11.863  1.00  0.00     0.418 C 
HETATM   21  F   UNL     1     -37.431 -48.983  12.800  1.00  0.00    -0.169 F 
HETATM   22  F   UNL     1     -37.310 -51.112  12.384  1.00  0.00    -0.169 F 
HETATM   23  F   UNL     1     -36.908 -49.685  10.801  1.00  0.00    -0.169 F 
ENDBRANCH   1  20
TORSDOF 6
ENDMDL
MODEL 5
REMARK VINA RESULT:      -5.5      2.400      3.883
REMARK  6 active torsions:
REMARK  status: ('A' for Active; 'I' for Inactive)
REMARK    1  A    between atoms: S_2  and  C_3 
REMARK    2  A    between atoms: C_7  and  N_9 
REMARK    3  A    between atoms: N_9  and  C_10 
REMARK    4  A    between atoms: C_10  and  C_11 
REMARK    5  A    between atoms: C_10  and  C_19 
REMARK    6  A    between atoms: C_11  and  C_12 
ROOT
HETATM    1  C   UNL     1     -42.519 -52.739  12.763  1.00  0.00     0.331 C 
ENDROOT
BRANCH   1   2
HETATM    2  N   UNL     1     -41.835 -51.889  11.732  1.00  0.00     0.102 N 
HETATM    3  H   UNL     1     -41.158 -52.454  11.219  1.00  0.00     0.317 HD
BRANCH   2   4
HETATM    4  C   UNL     1     -41.230 -50.649  12.219  1.00  0.00     0.222 C 
HETATM    5  C   UNL     1     -42.320 -49.770  12.851  1.00  0.00     0.036 C 
HETATM    6  C   UNL     1     -41.691 -48.541  13.510  1.00  0.00     0.003 C 
HETATM    7  C   UNL     1     -40.844 -47.731  12.528  1.00  0.00     0.015 C 
HETATM    8  C   UNL     1     -39.845 -48.566  11.713  1.00  0.00     0.049 C 
HETATM    9  C   UNL     1     -40.516 -49.825  11.130  1.00  0.00     0.050 C 
BRANCH   8  10
HETATM   10  S   UNL     1     -38.372 -49.102  12.685  1.00  0.00    -0.169 SA
HETATM   11  C   UNL     1     -37.474 -50.054  11.441  1.00  0.00     0.090 C 
ENDBRANCH   8  10
ENDBRANCH   2   4
ENDBRANCH   1   2
BRANCH   1  12
HETATM   12  C   UNL     1     -43.943 -53.250  12.398  1.00  0.00     0.083 C 
BRANCH  12  13
HETATM   13  C   UNL     1     -45.080 -52.939  13.346  1.00  0.00    -0.053 A 
HETATM   14  C   UNL     1     -45.697 -53.989  14.040  1.00  0.00     0.024 A 
HETATM   15  C   UNL     1     -46.778 -53.709  14.863  1.00  0.00     0.088 A 
HETATM   16  N   UNL     1     -47.273 -52.469  15.055  1.00  0.00    -0.375 N 
HETATM   17  C   UNL     1     -46.649 -51.467  14.403  1.00  0.00     0.088 A 
ATOM     18  HN  UNL     1     -48.077 -52.299  15.660  1.00  0.00     0.164 HD
HETATM   19  C   UNL     1     -45.558 -51.647  13.565  1.00  0.00     0.024 A 
ENDBRANCH  12  13
ENDBRANCH   1  12
BRANCH   1  20
HETATM   20  C   UNL     1     -41.641 -53.907  13.322  1.00  0.00     0.418 C 
HETATM   21  F   UNL     1     -40.699 -53.454  14.185  1.00  0.00    -0.169 F 
HETATM   22  F   UNL     1     -42.421 -54.768  14.019  1.00  0.00    -0.169 F 
HETATM   23  F   UNL     1     -41.013 -54.632  12.375  1.00  0.00    -0.169 F 
ENDBRANCH   1  20
TORSDOF 6
ENDMDL
MODEL 6
REMARK VINA RESULT:      -5.4      5.604      7.574
REMARK  6 active torsions:
REMARK  status: ('A' for Active; 'I' for Inactive)
REMARK    1  A    between atoms: S_2  and  C_3 
REMARK    2  A    between atoms: C_7  and  N_9 
REMARK    3  A    between atoms: N_9  and  C_10 
REMARK    4  A    between atoms: C_10  and  C_11 
REMARK    5  A    between atoms: C_10  and  C_19 
REMARK    6  A    between atoms: C_11  and  C_12 
ROOT
HETATM    1  C   UNL     1     -42.840 -47.193   9.913  1.00  0.00     0.331 C 
ENDROOT
BRANCH   1   2
HETATM    2  N   UNL     1     -41.761 -48.229   9.792  1.00  0.00     0.102 N 
HETATM    3  H   UNL     1     -42.019 -48.908   9.075  1.00  0.00     0.317 HD
BRANCH   2   4
HETATM    4  C   UNL     1     -41.365 -48.894  11.035  1.00  0.00     0.222 C 
HETATM    5  C   UNL     1     -42.536 -48.844  12.028  1.00  0.00     0.036 C 
HETATM    6  C   UNL     1     -42.208 -49.668  13.273  1.00  0.00     0.003 C 
HETATM    7  C   UNL     1     -40.911 -49.211  13.942  1.00  0.00     0.015 C 
HETATM    8  C   UNL     1     -39.723 -49.056  12.981  1.00  0.00     0.049 C 
HETATM    9  C   UNL     1     -40.128 -48.277  11.715  1.00  0.00     0.050 C 
BRANCH   8  10
HETATM   10  S   UNL     1     -38.992 -50.664  12.452  1.00  0.00    -0.169 SA
HETATM   11  C   UNL     1     -37.584 -50.092  11.477  1.00  0.00     0.090 C 
ENDBRANCH   8  10
ENDBRANCH   2   4
ENDBRANCH   1   2
BRANCH   1  12
HETATM   12  C   UNL     1     -42.371 -45.709   9.913  1.00  0.00     0.083 C 
BRANCH  12  13
HETATM   13  C   UNL     1     -41.651 -45.184  11.135  1.00  0.00    -0.053 A 
HETATM   14  C   UNL     1     -40.356 -44.666  10.996  1.00  0.00     0.024 A 
HETATM   15  C   UNL     1     -39.676 -44.241  12.128  1.00  0.00     0.088 A 
HETATM   16  N   UNL     1     -40.193 -44.279  13.373  1.00  0.00    -0.375 N 
HETATM   17  C   UNL     1     -41.451 -44.751  13.485  1.00  0.00     0.088 A 
ATOM     18  HN  UNL     1     -39.662 -43.967  14.186  1.00  0.00     0.164 HD
HETATM   19  C   UNL     1     -42.212 -45.193  12.413  1.00  0.00     0.024 A 
ENDBRANCH  12  13
ENDBRANCH   1  12
BRANCH   1  20
HETATM   20  C   UNL     1     -44.039 -47.392   8.928  1.00  0.00     0.418 C 
HETATM   21  F   UNL     1     -45.099 -47.971   9.544  1.00  0.00    -0.169 F 
HETATM   22  F   UNL     1     -44.464 -46.186   8.481  1.00  0.00    -0.169 F 
HETATM   23  F   UNL     1     -43.746 -48.129   7.839  1.00  0.00    -0.169 F 
ENDBRANCH   1  20
TORSDOF 6
ENDMDL
MODEL 7
REMARK VINA RESULT:      -5.2      3.251      4.940
REMARK  6 active torsions:
REMARK  status: ('A' for Active; 'I' for Inactive)
REMARK    1  A    between atoms: S_2  and  C_3 
REMARK    2  A    between atoms: C_7  and  N_9 
REMARK    3  A    between atoms: N_9  and  C_10 
REMARK    4  A    between atoms: C_10  and  C_11 
REMARK    5  A    between atoms: C_10  and  C_19 
REMARK    6  A    between atoms: C_11  and  C_12 
ROOT
HETATM    1  C   UNL     1     -41.505 -51.151  13.108  1.00  0.00     0.331 C 
ENDROOT
BRANCH   1   2
HETATM    2  N   UNL     1     -41.981 -50.660  11.772  1.00  0.00     0.102 N 
HETATM    3  H   UNL     1     -41.551 -51.216  11.032  1.00  0.00     0.317 HD
BRANCH   2   4
HETATM    4  C   UNL     1     -41.821 -49.227  11.520  1.00  0.00     0.222 C 
HETATM    5  C   UNL     1     -40.572 -48.721  12.257  1.00  0.00     0.036 C 
HETATM    6  C   UNL     1     -40.292 -47.265  11.884  1.00  0.00     0.003 C 
HETATM    7  C   UNL     1     -41.490 -46.357  12.164  1.00  0.00     0.015 C 
HETATM    8  C   UNL     1     -42.826 -46.883  11.615  1.00  0.00     0.049 C 
HETATM    9  C   UNL     1     -43.024 -48.371  11.963  1.00  0.00     0.050 C 
BRANCH   8  10
HETATM   10  S   UNL     1     -42.993 -46.696   9.788  1.00  0.00    -0.169 SA
HETATM   11  C   UNL     1     -44.637 -47.395   9.525  1.00  0.00     0.090 C 
ENDBRANCH   8  10
ENDBRANCH   2   4
ENDBRANCH   1   2
BRANCH   1  12
HETATM   12  C   UNL     1     -42.601 -51.363  14.193  1.00  0.00     0.083 C 
BRANCH  12  13
HETATM   13  C   UNL     1     -43.919 -51.973  13.770  1.00  0.00    -0.053 A 
HETATM   14  C   UNL     1     -45.031 -51.140  13.589  1.00  0.00     0.024 A 
HETATM   15  C   UNL     1     -46.252 -51.709  13.260  1.00  0.00     0.088 A 
HETATM   16  N   UNL     1     -46.440 -53.033  13.083  1.00  0.00    -0.375 N 
HETATM   17  C   UNL     1     -45.353 -53.817  13.230  1.00  0.00     0.088 A 
ATOM     18  HN  UNL     1     -47.355 -53.420  12.850  1.00  0.00     0.164 HD
HETATM   19  C   UNL     1     -44.090 -53.341  13.552  1.00  0.00     0.024 A 
ENDBRANCH  12  13
ENDBRANCH   1  12
BRANCH   1  20
HETATM   20  C   UNL     1     -40.552 -52.391  13.038  1.00  0.00     0.418 C 
HETATM   21  F   UNL     1     -40.754 -53.111  11.907  1.00  0.00    -0.169 F 
HETATM   22  F   UNL     1     -39.264 -51.972  13.003  1.00  0.00    -0.169 F 
HETATM   23  F   UNL     1     -40.659 -53.234  14.083  1.00  0.00    -0.169 F 
ENDBRANCH   1  20
TORSDOF 6
ENDMDL
MODEL 8
REMARK VINA RESULT:      -5.2      4.990      7.241
REMARK  6 active torsions:
REMARK  status: ('A' for Active; 'I' for Inactive)
REMARK    1  A    between atoms: S_2  and  C_3 
REMARK    2  A    between atoms: C_7  and  N_9 
REMARK    3  A    between atoms: N_9  and  C_10 
REMARK    4  A    between atoms: C_10  and  C_11 
REMARK    5  A    between atoms: C_10  and  C_19 
REMARK    6  A    between atoms: C_11  and  C_12 
ROOT
HETATM    1  C   UNL     1     -39.188 -50.085  12.757  1.00  0.00     0.331 C 
ENDROOT
BRANCH   1   2
HETATM    2  N   UNL     1     -39.382 -51.003  13.928  1.00  0.00     0.102 N 
HETATM    3  H   UNL     1     -38.538 -51.560  14.069  1.00  0.00     0.317 HD
BRANCH   2   4
HETATM    4  C   UNL     1     -40.575 -51.849  13.892  1.00  0.00     0.222 C 
HETATM    5  C   UNL     1     -40.222 -53.243  14.432  1.00  0.00     0.036 C 
HETATM    6  C   UNL     1     -41.484 -54.098  14.553  1.00  0.00     0.003 C 
HETATM    7  C   UNL     1     -42.237 -54.207  13.226  1.00  0.00     0.015 C 
HETATM    8  C   UNL     1     -42.474 -52.863  12.520  1.00  0.00     0.049 C 
HETATM    9  C   UNL     1     -41.187 -52.016  12.487  1.00  0.00     0.050 C 
BRANCH   8  10
HETATM   10  S   UNL     1     -43.804 -51.850  13.299  1.00  0.00    -0.169 SA
HETATM   11  C   UNL     1     -45.273 -52.762  12.778  1.00  0.00     0.090 C 
ENDBRANCH   8  10
ENDBRANCH   2   4
ENDBRANCH   1   2
BRANCH   1  12
HETATM   12  C   UNL     1     -39.648 -48.612  12.954  1.00  0.00     0.083 C 
BRANCH  12  13
HETATM   13  C   UNL     1     -40.408 -47.942  11.830  1.00  0.00    -0.053 A 
HETATM   14  C   UNL     1     -40.149 -46.597  11.538  1.00  0.00     0.024 A 
HETATM   15  C   UNL     1     -40.889 -45.968  10.547  1.00  0.00     0.088 A 
HETATM   16  N   UNL     1     -41.846 -46.582   9.822  1.00  0.00    -0.375 N 
HETATM   17  C   UNL     1     -42.060 -47.885  10.095  1.00  0.00     0.088 A 
ATOM     18  HN  UNL     1     -42.378 -46.088   9.106  1.00  0.00     0.164 HD
HETATM   19  C   UNL     1     -41.368 -48.600  11.062  1.00  0.00     0.024 A 
ENDBRANCH  12  13
ENDBRANCH   1  12
BRANCH   1  20
HETATM   20  C   UNL     1     -37.755 -50.135  12.129  1.00  0.00     0.418 C 
HETATM   21  F   UNL     1     -37.801 -50.044  10.777  1.00  0.00    -0.169 F 
HETATM   22  F   UNL     1     -37.032 -49.075  12.563  1.00  0.00    -0.169 F 
HETATM   23  F   UNL     1     -37.050 -51.241  12.440  1.00  0.00    -0.169 F 
ENDBRANCH   1  20
TORSDOF 6
ENDMDL
MODEL 9
REMARK VINA RESULT:      -5.2      2.089      3.235
REMARK  6 active torsions:
REMARK  status: ('A' for Active; 'I' for Inactive)
REMARK    1  A    between atoms: S_2  and  C_3 
REMARK    2  A    between atoms: C_7  and  N_9 
REMARK    3  A    between atoms: N_9  and  C_10 
REMARK    4  A    between atoms: C_10  and  C_11 
REMARK    5  A    between atoms: C_10  and  C_19 
REMARK    6  A    between atoms: C_11  and  C_12 
ROOT
HETATM    1  C   UNL     1     -43.238 -51.954  13.092  1.00  0.00     0.331 C 
ENDROOT
BRANCH   1   2
HETATM    2  N   UNL     1     -42.290 -51.510  12.016  1.00  0.00     0.102 N 
HETATM    3  H   UNL     1     -42.112 -52.286  11.378  1.00  0.00     0.317 HD
BRANCH   2   4
HETATM    4  C   UNL     1     -41.040 -50.900  12.472  1.00  0.00     0.222 C 
HETATM    5  C   UNL     1     -40.454 -50.045  11.338  1.00  0.00     0.036 C 
HETATM    6  C   UNL     1     -39.233 -49.271  11.838  1.00  0.00     0.003 C 
HETATM    7  C   UNL     1     -38.166 -50.194  12.427  1.00  0.00     0.015 C 
HETATM    8  C   UNL     1     -38.701 -51.214  13.444  1.00  0.00     0.049 C 
HETATM    9  C   UNL     1     -39.969 -51.914  12.917  1.00  0.00     0.050 C 
BRANCH   8  10
HETATM   10  S   UNL     1     -39.100 -50.473  15.086  1.00  0.00    -0.169 SA
HETATM   11  C   UNL     1     -37.442 -50.221  15.755  1.00  0.00     0.090 C 
ENDBRANCH   8  10
ENDBRANCH   2   4
ENDBRANCH   1   2
BRANCH   1  12
HETATM   12  C   UNL     1     -44.625 -51.248  13.121  1.00  0.00     0.083 C 
BRANCH  12  13
HETATM   13  C   UNL     1     -45.355 -51.157  14.442  1.00  0.00    -0.053 A 
HETATM   14  C   UNL     1     -44.670 -50.690  15.571  1.00  0.00     0.024 A 
HETATM   15  C   UNL     1     -45.324 -50.664  16.794  1.00  0.00     0.088 A 
HETATM   16  N   UNL     1     -46.605 -51.049  16.968  1.00  0.00    -0.375 N 
HETATM   17  C   UNL     1     -47.259 -51.466  15.865  1.00  0.00     0.088 A 
ATOM     18  HN  UNL     1     -47.054 -51.027  17.884  1.00  0.00     0.164 HD
HETATM   19  C   UNL     1     -46.693 -51.522  14.600  1.00  0.00     0.024 A 
ENDBRANCH  12  13
ENDBRANCH   1  12
BRANCH   1  20
HETATM   20  C   UNL     1     -43.407 -53.505  13.203  1.00  0.00     0.418 C 
HETATM   21  F   UNL     1     -43.692 -53.886  14.472  1.00  0.00    -0.169 F 
HETATM   22  F   UNL     1     -44.452 -53.904  12.437  1.00  0.00    -0.169 F 
HETATM   23  F   UNL     1     -42.335 -54.212  12.795  1.00  0.00    -0.169 F 
ENDBRANCH   1  20
TORSDOF 6
ENDMDL
