MODEL 1
REMARK VINA RESULT:      -6.7      0.000      0.000
REMARK  6 active torsions:
REMARK  status: ('A' for Active; 'I' for Inactive)
REMARK    1  A    between atoms: N_2  and  C_17 
REMARK    2  A    between atoms: N_3  and  C_5 
REMARK    3  A    between atoms: C_15  and  C_17 
REMARK    4  A    between atoms: C_15  and  C_27 
REMARK    5  A    between atoms: C_25  and  O_28 
REMARK    6  A    between atoms: C_27  and  O_29 
ROOT
HETATM    1  C   UNL     1     -41.852 -48.623  12.917  1.00  0.00     0.122 A 
HETATM    2  N   UNL     1     -40.846 -46.685  12.800  1.00  0.00    -0.326 N 
HETATM    3  C   UNL     1     -40.835 -47.942  12.264  1.00  0.00     0.140 A 
HETATM    4  C   UNL     1     -42.053 -49.977  12.562  1.00  0.00     0.135 A 
HETATM    5  N   UNL     1     -42.475 -47.782  13.828  1.00  0.00    -0.346 N 
ATOM      6  HN  UNL     1     -43.271 -48.001  14.429  1.00  0.00     0.167 HD
HETATM    7  C   UNL     1     -41.823 -46.644  13.752  1.00  0.00     0.185 A 
HETATM    8  N   UNL     1     -40.008 -48.414  11.319  1.00  0.00    -0.336 N 
ATOM      9  HN  UNL     1     -39.272 -47.871  10.868  1.00  0.00     0.168 HD
HETATM   10  N   UNL     1     -41.231 -50.489  11.602  1.00  0.00    -0.337 N 
ATOM     11  HN  UNL     1     -41.331 -51.460  11.305  1.00  0.00     0.168 HD
HETATM   12  C   UNL     1     -40.284 -49.703  11.051  1.00  0.00     0.183 A 
ENDROOT
BRANCH   4  13
HETATM   13  N   UNL     1     -42.998 -50.785  13.127  1.00  0.00    -0.365 N 
HETATM   14  C   UNL     1     -42.677 -52.066  13.747  1.00  0.00     0.129 C 
HETATM   15  C   UNL     1     -44.041 -52.755  13.756  1.00  0.00     0.011 C 
HETATM   16  C   UNL     1     -44.283 -53.851  14.782  1.00  0.00     0.038 C 
HETATM   17  C   UNL     1     -44.989 -51.581  14.003  1.00  0.00     0.009 C 
HETATM   18  C   UNL     1     -45.750 -54.309  14.718  1.00  0.00     0.118 C 
HETATM   19  C   UNL     1     -46.754 -53.147  14.792  1.00  0.00     0.032 C 
HETATM   20  C   UNL     1     -46.435 -52.000  13.819  1.00  0.00     0.009 C 
HETATM   21  C   UNL     1     -44.434 -50.526  13.052  1.00  0.00     0.129 C 
BRANCH  18  22
HETATM   22  O   UNL     1     -45.969 -55.059  13.521  1.00  0.00    -0.396 OA
HETATM   23  H   UNL     1     -46.923 -55.109  13.348  1.00  0.00     0.210 HD
ENDBRANCH  18  22
ENDBRANCH   4  13
BRANCH   2  24
HETATM   24  C   UNL     1     -39.918 -45.618  12.467  1.00  0.00     0.147 C 
BRANCH  24  25
HETATM   25  C   UNL     1     -40.296 -44.837  11.217  1.00  0.00     0.040 C 
HETATM   26  C   UNL     1     -40.589 -43.330  11.384  1.00  0.00     0.183 C 
HETATM   27  O   UNL     1     -41.897 -43.486  10.782  1.00  0.00    -0.389 OA
HETATM   28  C   UNL     1     -41.804 -44.926  10.911  1.00  0.00     0.183 C 
BRANCH  25  29
HETATM   29  C   UNL     1     -39.418 -45.115  10.003  1.00  0.00     0.179 C 
BRANCH  29  30
HETATM   30  O   UNL     1     -39.428 -43.983   9.139  1.00  0.00    -0.400 OA
HETATM   31  H   UNL     1     -39.911 -43.262   9.578  1.00  0.00     0.209 HD
ENDBRANCH  29  30
ENDBRANCH  25  29
ENDBRANCH  24  25
ENDBRANCH   2  24
TORSDOF 6
ENDMDL
MODEL 2
REMARK VINA RESULT:      -6.6      1.683      2.070
REMARK  6 active torsions:
REMARK  status: ('A' for Active; 'I' for Inactive)
REMARK    1  A    between atoms: N_2  and  C_17 
REMARK    2  A    between atoms: N_3  and  C_5 
REMARK    3  A    between atoms: C_15  and  C_17 
REMARK    4  A    between atoms: C_15  and  C_27 
REMARK    5  A    between atoms: C_25  and  O_28 
REMARK    6  A    between atoms: C_27  and  O_29 
ROOT
HETATM    1  C   UNL     1     -42.006 -48.851  11.725  1.00  0.00     0.122 A 
HETATM    2  N   UNL     1     -41.965 -46.896  10.746  1.00  0.00    -0.326 N 
HETATM    3  C   UNL     1     -41.150 -47.884  11.221  1.00  0.00     0.140 A 
HETATM    4  C   UNL     1     -41.416 -49.997  12.306  1.00  0.00     0.135 A 
HETATM    5  N   UNL     1     -43.325 -48.454  11.546  1.00  0.00    -0.346 N 
ATOM      6  HN  UNL     1     -44.166 -48.974  11.794  1.00  0.00     0.167 HD
HETATM    7  C   UNL     1     -43.256 -47.266  10.989  1.00  0.00     0.185 A 
HETATM    8  N   UNL     1     -39.808 -47.903  11.210  1.00  0.00    -0.336 N 
ATOM      9  HN  UNL     1     -39.220 -47.164  10.826  1.00  0.00     0.168 HD
HETATM   10  N   UNL     1     -40.054 -50.051  12.310  1.00  0.00    -0.337 N 
ATOM     11  HN  UNL     1     -39.573 -50.855  12.714  1.00  0.00     0.168 HD
HETATM   12  C   UNL     1     -39.347 -49.033  11.778  1.00  0.00     0.183 A 
ENDROOT
BRANCH   4  13
HETATM   13  N   UNL     1     -42.123 -51.024  12.862  1.00  0.00    -0.365 N 
HETATM   14  C   UNL     1     -42.361 -52.288  12.173  1.00  0.00     0.129 C 
HETATM   15  C   UNL     1     -43.548 -52.848  12.956  1.00  0.00     0.011 C 
HETATM   16  C   UNL     1     -43.768 -54.352  12.944  1.00  0.00     0.038 C 
HETATM   17  C   UNL     1     -43.246 -52.370  14.377  1.00  0.00     0.009 C 
HETATM   18  C   UNL     1     -44.916 -54.719  13.901  1.00  0.00     0.118 C 
HETATM   19  C   UNL     1     -44.750 -54.120  15.307  1.00  0.00     0.032 C 
HETATM   20  C   UNL     1     -44.426 -52.617  15.298  1.00  0.00     0.009 C 
HETATM   21  C   UNL     1     -42.829 -50.922  14.138  1.00  0.00     0.129 C 
BRANCH  18  22
HETATM   22  O   UNL     1     -46.162 -54.297  13.342  1.00  0.00    -0.396 OA
HETATM   23  H   UNL     1     -46.859 -54.390  14.013  1.00  0.00     0.210 HD
ENDBRANCH  18  22
ENDBRANCH   4  13
BRANCH   2  24
HETATM   24  C   UNL     1     -41.521 -45.641  10.166  1.00  0.00     0.147 C 
BRANCH  24  25
HETATM   25  C   UNL     1     -41.581 -44.460  11.125  1.00  0.00     0.040 C 
HETATM   26  C   UNL     1     -40.345 -43.536  11.190  1.00  0.00     0.183 C 
HETATM   27  O   UNL     1     -40.231 -43.739  12.620  1.00  0.00    -0.389 OA
HETATM   28  C   UNL     1     -41.157 -44.851  12.554  1.00  0.00     0.183 C 
BRANCH  25  29
HETATM   29  C   UNL     1     -42.883 -43.669  11.079  1.00  0.00     0.179 C 
BRANCH  29  30
HETATM   30  O   UNL     1     -43.554 -43.930   9.850  1.00  0.00    -0.400 OA
HETATM   31  H   UNL     1     -44.373 -44.417  10.042  1.00  0.00     0.209 HD
ENDBRANCH  29  30
ENDBRANCH  25  29
ENDBRANCH  24  25
ENDBRANCH   2  24
TORSDOF 6
ENDMDL
MODEL 3
REMARK VINA RESULT:      -6.5      1.453      8.400
REMARK  6 active torsions:
REMARK  status: ('A' for Active; 'I' for Inactive)
REMARK    1  A    between atoms: N_2  and  C_17 
REMARK    2  A    between atoms: N_3  and  C_5 
REMARK    3  A    between atoms: C_15  and  C_17 
REMARK    4  A    between atoms: C_15  and  C_27 
REMARK    5  A    between atoms: C_25  and  O_28 
REMARK    6  A    between atoms: C_27  and  O_29 
ROOT
HETATM    1  C   UNL     1     -42.539 -50.418  13.482  1.00  0.00     0.122 A 
HETATM    2  N   UNL     1     -43.626 -51.899  14.668  1.00  0.00    -0.326 N 
HETATM    3  C   UNL     1     -42.761 -51.780  13.617  1.00  0.00     0.140 A 
HETATM    4  C   UNL     1     -41.679 -50.004  12.438  1.00  0.00     0.135 A 
HETATM    5  N   UNL     1     -43.253 -49.724  14.449  1.00  0.00    -0.346 N 
ATOM      6  HN  UNL     1     -43.262 -48.716  14.608  1.00  0.00     0.167 HD
HETATM    7  C   UNL     1     -43.916 -50.642  15.116  1.00  0.00     0.185 A 
HETATM    8  N   UNL     1     -42.251 -52.771  12.871  1.00  0.00    -0.336 N 
ATOM      9  HN  UNL     1     -42.446 -53.762  13.010  1.00  0.00     0.168 HD
HETATM   10  N   UNL     1     -41.141 -50.986  11.661  1.00  0.00    -0.337 N 
ATOM     11  HN  UNL     1     -40.512 -50.747  10.894  1.00  0.00     0.168 HD
HETATM   12  C   UNL     1     -41.446 -52.275  11.913  1.00  0.00     0.183 A 
ENDROOT
BRANCH   4  13
HETATM   13  N   UNL     1     -41.378 -48.700  12.164  1.00  0.00    -0.365 N 
HETATM   14  C   UNL     1     -41.964 -47.969  11.046  1.00  0.00     0.129 C 
HETATM   15  C   UNL     1     -40.980 -46.812  10.885  1.00  0.00     0.011 C 
HETATM   16  C   UNL     1     -41.478 -45.535  10.225  1.00  0.00     0.038 C 
HETATM   17  C   UNL     1     -40.575 -46.534  12.333  1.00  0.00     0.009 C 
HETATM   18  C   UNL     1     -40.386 -44.454  10.291  1.00  0.00     0.118 C 
HETATM   19  C   UNL     1     -39.816 -44.250  11.704  1.00  0.00     0.032 C 
HETATM   20  C   UNL     1     -39.413 -45.561  12.397  1.00  0.00     0.009 C 
HETATM   21  C   UNL     1     -40.344 -47.944  12.868  1.00  0.00     0.129 C 
BRANCH  18  22
HETATM   22  O   UNL     1     -39.327 -44.783   9.389  1.00  0.00    -0.396 OA
HETATM   23  H   UNL     1     -38.912 -45.613   9.676  1.00  0.00     0.210 HD
ENDBRANCH  18  22
ENDBRANCH   4  13
BRANCH   2  24
HETATM   24  C   UNL     1     -44.195 -53.142  15.157  1.00  0.00     0.147 C 
BRANCH  24  25
HETATM   25  C   UNL     1     -45.386 -53.638  14.349  1.00  0.00     0.040 C 
HETATM   26  C   UNL     1     -46.428 -54.508  15.085  1.00  0.00     0.183 C 
HETATM   27  O   UNL     1     -46.271 -55.572  14.114  1.00  0.00    -0.389 OA
HETATM   28  C   UNL     1     -45.072 -54.946  13.596  1.00  0.00     0.183 C 
BRANCH  25  29
HETATM   29  C   UNL     1     -46.044 -52.581  13.471  1.00  0.00     0.179 C 
BRANCH  29  30
HETATM   30  O   UNL     1     -46.231 -53.103  12.159  1.00  0.00    -0.400 OA
HETATM   31  H   UNL     1     -47.105 -53.527  12.116  1.00  0.00     0.209 HD
ENDBRANCH  29  30
ENDBRANCH  25  29
ENDBRANCH  24  25
ENDBRANCH   2  24
TORSDOF 6
ENDMDL
MODEL 4
REMARK VINA RESULT:      -6.5      2.841      3.658
REMARK  6 active torsions:
REMARK  status: ('A' for Active; 'I' for Inactive)
REMARK    1  A    between atoms: N_2  and  C_17 
REMARK    2  A    between atoms: N_3  and  C_5 
REMARK    3  A    between atoms: C_15  and  C_17 
REMARK    4  A    between atoms: C_15  and  C_27 
REMARK    5  A    between atoms: C_25  and  O_28 
REMARK    6  A    between atoms: C_27  and  O_29 
ROOT
HETATM    1  C   UNL     1     -40.623 -47.687  12.042  1.00  0.00     0.122 A 
HETATM    2  N   UNL     1     -40.240 -45.552  11.768  1.00  0.00    -0.326 N 
HETATM    3  C   UNL     1     -40.915 -46.607  11.222  1.00  0.00     0.140 A 
HETATM    4  C   UNL     1     -41.187 -48.935  11.691  1.00  0.00     0.135 A 
HETATM    5  N   UNL     1     -39.790 -47.284  13.076  1.00  0.00    -0.346 N 
ATOM      6  HN  UNL     1     -39.434 -47.855  13.843  1.00  0.00     0.167 HD
HETATM    7  C   UNL     1     -39.557 -46.009  12.857  1.00  0.00     0.185 A 
HETATM    8  N   UNL     1     -41.683 -46.597  10.122  1.00  0.00    -0.336 N 
ATOM      9  HN  UNL     1     -41.868 -45.774   9.551  1.00  0.00     0.168 HD
HETATM   10  N   UNL     1     -41.976 -48.962  10.579  1.00  0.00    -0.337 N 
ATOM     11  HN  UNL     1     -42.412 -49.834  10.279  1.00  0.00     0.168 HD
HETATM   12  C   UNL     1     -42.175 -47.826   9.879  1.00  0.00     0.183 A 
ENDROOT
BRANCH   4  13
HETATM   13  N   UNL     1     -40.978 -50.093  12.384  1.00  0.00    -0.365 N 
HETATM   14  C   UNL     1     -39.704 -50.419  13.017  1.00  0.00     0.129 C 
HETATM   15  C   UNL     1     -39.827 -51.932  13.195  1.00  0.00     0.011 C 
HETATM   16  C   UNL     1     -38.996 -52.594  14.284  1.00  0.00     0.038 C 
HETATM   17  C   UNL     1     -41.317 -52.098  13.494  1.00  0.00     0.009 C 
HETATM   18  C   UNL     1     -39.371 -54.082  14.393  1.00  0.00     0.118 C 
HETATM   19  C   UNL     1     -40.884 -54.320  14.525  1.00  0.00     0.032 C 
HETATM   20  C   UNL     1     -41.717 -53.561  13.479  1.00  0.00     0.009 C 
HETATM   21  C   UNL     1     -41.949 -51.184  12.449  1.00  0.00     0.129 C 
BRANCH  18  22
HETATM   22  O   UNL     1     -38.870 -54.789  13.256  1.00  0.00    -0.396 OA
HETATM   23  H   UNL     1     -39.616 -55.177  12.769  1.00  0.00     0.210 HD
ENDBRANCH  18  22
ENDBRANCH   4  13
BRANCH   2  24
HETATM   24  C   UNL     1     -40.197 -44.206  11.224  1.00  0.00     0.147 C 
BRANCH  24  25
HETATM   25  C   UNL     1     -41.157 -43.235  11.896  1.00  0.00     0.040 C 
HETATM   26  C   UNL     1     -41.043 -41.744  11.510  1.00  0.00     0.183 C 
HETATM   27  O   UNL     1     -40.861 -41.367  12.897  1.00  0.00    -0.389 OA
HETATM   28  C   UNL     1     -40.629 -42.749  13.261  1.00  0.00     0.183 C 
BRANCH  25  29
HETATM   29  C   UNL     1     -42.607 -43.703  11.943  1.00  0.00     0.179 C 
BRANCH  29  30
HETATM   30  O   UNL     1     -43.103 -43.841  10.615  1.00  0.00    -0.400 OA
HETATM   31  H   UNL     1     -43.996 -43.458  10.576  1.00  0.00     0.209 HD
ENDBRANCH  29  30
ENDBRANCH  25  29
ENDBRANCH  24  25
ENDBRANCH   2  24
TORSDOF 6
ENDMDL
MODEL 5
REMARK VINA RESULT:      -6.4      1.568      2.353
REMARK  6 active torsions:
REMARK  status: ('A' for Active; 'I' for Inactive)
REMARK    1  A    between atoms: N_2  and  C_17 
REMARK    2  A    between atoms: N_3  and  C_5 
REMARK    3  A    between atoms: C_15  and  C_17 
REMARK    4  A    between atoms: C_15  and  C_27 
REMARK    5  A    between atoms: C_25  and  O_28 
REMARK    6  A    between atoms: C_27  and  O_29 
ROOT
HETATM    1  C   UNL     1     -42.430 -48.952  11.966  1.00  0.00     0.122 A 
HETATM    2  N   UNL     1     -41.954 -47.048  11.003  1.00  0.00    -0.326 N 
HETATM    3  C   UNL     1     -41.418 -48.019  11.800  1.00  0.00     0.140 A 
HETATM    4  C   UNL     1     -42.147 -50.075  12.778  1.00  0.00     0.135 A 
HETATM    5  N   UNL     1     -43.561 -48.552  11.268  1.00  0.00    -0.346 N 
ATOM      6  HN  UNL     1     -44.447 -49.052  11.186  1.00  0.00     0.167 HD
HETATM    7  C   UNL     1     -43.247 -47.393  10.734  1.00  0.00     0.185 A 
HETATM    8  N   UNL     1     -40.180 -48.052  12.318  1.00  0.00    -0.336 N 
ATOM      9  HN  UNL     1     -39.468 -47.338  12.166  1.00  0.00     0.168 HD
HETATM   10  N   UNL     1     -40.897 -50.142  13.319  1.00  0.00    -0.337 N 
ATOM     11  HN  UNL     1     -40.635 -50.930  13.911  1.00  0.00     0.168 HD
HETATM   12  C   UNL     1     -40.010 -49.158  13.066  1.00  0.00     0.183 A 
ENDROOT
BRANCH   4  13
HETATM   13  N   UNL     1     -43.043 -51.067  13.053  1.00  0.00    -0.365 N 
HETATM   14  C   UNL     1     -44.286 -50.834  13.782  1.00  0.00     0.129 C 
HETATM   15  C   UNL     1     -44.644 -52.246  14.242  1.00  0.00     0.011 C 
HETATM   16  C   UNL     1     -46.102 -52.552  14.548  1.00  0.00     0.038 C 
HETATM   17  C   UNL     1     -44.161 -53.096  13.066  1.00  0.00     0.009 C 
HETATM   18  C   UNL     1     -46.268 -54.050  14.851  1.00  0.00     0.118 C 
HETATM   19  C   UNL     1     -45.647 -54.960  13.778  1.00  0.00     0.032 C 
HETATM   20  C   UNL     1     -44.207 -54.573  13.407  1.00  0.00     0.009 C 
HETATM   21  C   UNL     1     -42.796 -52.481  12.775  1.00  0.00     0.129 C 
BRANCH  18  22
HETATM   22  O   UNL     1     -45.696 -54.351  16.126  1.00  0.00    -0.396 OA
HETATM   23  H   UNL     1     -45.524 -55.305  16.180  1.00  0.00     0.210 HD
ENDBRANCH  18  22
ENDBRANCH   4  13
BRANCH   2  24
HETATM   24  C   UNL     1     -41.284 -45.826  10.594  1.00  0.00     0.147 C 
BRANCH  24  25
HETATM   25  C   UNL     1     -41.712 -44.592  11.376  1.00  0.00     0.040 C 
HETATM   26  C   UNL     1     -42.781 -43.682  10.732  1.00  0.00     0.183 C 
HETATM   27  O   UNL     1     -41.907 -42.532  10.834  1.00  0.00    -0.389 OA
HETATM   28  C   UNL     1     -40.779 -43.392  11.123  1.00  0.00     0.183 C 
BRANCH  25  29
HETATM   29  C   UNL     1     -41.989 -44.840  12.854  1.00  0.00     0.179 C 
BRANCH  29  30
HETATM   30  O   UNL     1     -43.207 -44.200  13.222  1.00  0.00    -0.400 OA
HETATM   31  H   UNL     1     -43.763 -44.842  13.697  1.00  0.00     0.209 HD
ENDBRANCH  29  30
ENDBRANCH  25  29
ENDBRANCH  24  25
ENDBRANCH   2  24
TORSDOF 6
ENDMDL
MODEL 6
REMARK VINA RESULT:      -5.8      3.306      8.377
REMARK  6 active torsions:
REMARK  status: ('A' for Active; 'I' for Inactive)
REMARK    1  A    between atoms: N_2  and  C_17 
REMARK    2  A    between atoms: N_3  and  C_5 
REMARK    3  A    between atoms: C_15  and  C_17 
REMARK    4  A    between atoms: C_15  and  C_27 
REMARK    5  A    between atoms: C_25  and  O_28 
REMARK    6  A    between atoms: C_27  and  O_29 
ROOT
HETATM    1  C   UNL     1     -40.462 -51.360  13.056  1.00  0.00     0.122 A 
HETATM    2  N   UNL     1     -39.615 -53.233  13.803  1.00  0.00    -0.326 N 
HETATM    3  C   UNL     1     -40.721 -52.716  13.188  1.00  0.00     0.140 A 
HETATM    4  C   UNL     1     -41.468 -50.567  12.457  1.00  0.00     0.135 A 
HETATM    5  N   UNL     1     -39.209 -51.065  13.574  1.00  0.00    -0.346 N 
ATOM      6  HN  UNL     1     -38.744 -50.157  13.590  1.00  0.00     0.167 HD
HETATM    7  C   UNL     1     -38.750 -52.204  14.041  1.00  0.00     0.185 A 
HETATM    8  N   UNL     1     -41.823 -53.381  12.810  1.00  0.00    -0.336 N 
ATOM      9  HN  UNL     1     -41.967 -54.383  12.930  1.00  0.00     0.168 HD
HETATM   10  N   UNL     1     -42.602 -51.210  12.058  1.00  0.00    -0.337 N 
ATOM     11  HN  UNL     1     -43.361 -50.689  11.618  1.00  0.00     0.168 HD
HETATM   12  C   UNL     1     -42.712 -52.541  12.249  1.00  0.00     0.183 A 
ENDROOT
BRANCH   4  13
HETATM   13  N   UNL     1     -41.372 -49.217  12.275  1.00  0.00    -0.365 N 
HETATM   14  C   UNL     1     -42.380 -48.278  12.756  1.00  0.00     0.129 C 
HETATM   15  C   UNL     1     -42.083 -47.044  11.906  1.00  0.00     0.011 C 
HETATM   16  C   UNL     1     -42.510 -45.686  12.442  1.00  0.00     0.038 C 
HETATM   17  C   UNL     1     -40.561 -47.105  11.776  1.00  0.00     0.009 C 
HETATM   18  C   UNL     1     -41.994 -44.573  11.512  1.00  0.00     0.118 C 
HETATM   19  C   UNL     1     -40.492 -44.684  11.207  1.00  0.00     0.032 C 
HETATM   20  C   UNL     1     -40.059 -46.092  10.765  1.00  0.00     0.009 C 
HETATM   21  C   UNL     1     -40.333 -48.581  11.467  1.00  0.00     0.129 C 
BRANCH  18  22
HETATM   22  O   UNL     1     -42.735 -44.585  10.290  1.00  0.00    -0.396 OA
HETATM   23  H   UNL     1     -43.595 -44.157  10.436  1.00  0.00     0.210 HD
ENDBRANCH  18  22
ENDBRANCH   4  13
BRANCH   2  24
HETATM   24  C   UNL     1     -39.442 -54.618  14.202  1.00  0.00     0.147 C 
BRANCH  24  25
HETATM   25  C   UNL     1     -39.839 -54.901  15.644  1.00  0.00     0.040 C 
HETATM   26  C   UNL     1     -41.335 -55.154  15.931  1.00  0.00     0.183 C 
HETATM   27  O   UNL     1     -41.358 -54.090  16.913  1.00  0.00    -0.389 OA
HETATM   28  C   UNL     1     -40.076 -53.605  16.445  1.00  0.00     0.183 C 
BRANCH  25  29
HETATM   29  C   UNL     1     -38.943 -55.900  16.367  1.00  0.00     0.179 C 
BRANCH  29  30
HETATM   30  O   UNL     1     -37.680 -55.966  15.710  1.00  0.00    -0.400 OA
HETATM   31  H   UNL     1     -37.751 -56.584  14.963  1.00  0.00     0.209 HD
ENDBRANCH  29  30
ENDBRANCH  25  29
ENDBRANCH  24  25
ENDBRANCH   2  24
TORSDOF 6
ENDMDL
MODEL 7
REMARK VINA RESULT:      -5.7      3.976      5.056
REMARK  6 active torsions:
REMARK  status: ('A' for Active; 'I' for Inactive)
REMARK    1  A    between atoms: N_2  and  C_17 
REMARK    2  A    between atoms: N_3  and  C_5 
REMARK    3  A    between atoms: C_15  and  C_17 
REMARK    4  A    between atoms: C_15  and  C_27 
REMARK    5  A    between atoms: C_25  and  O_28 
REMARK    6  A    between atoms: C_27  and  O_29 
ROOT
HETATM    1  C   UNL     1     -39.953 -51.869  13.667  1.00  0.00     0.122 A 
HETATM    2  N   UNL     1     -39.511 -49.968  12.682  1.00  0.00    -0.326 N 
HETATM    3  C   UNL     1     -40.155 -51.158  12.494  1.00  0.00     0.140 A 
HETATM    4  C   UNL     1     -40.508 -53.168  13.738  1.00  0.00     0.135 A 
HETATM    5  N   UNL     1     -39.205 -51.111  14.557  1.00  0.00    -0.346 N 
ATOM      6  HN  UNL     1     -38.926 -51.366  15.505  1.00  0.00     0.167 HD
HETATM    7  C   UNL     1     -38.932 -49.996  13.918  1.00  0.00     0.185 A 
HETATM    8  N   UNL     1     -40.826 -51.553  11.401  1.00  0.00    -0.336 N 
ATOM      9  HN  UNL     1     -40.947 -50.991  10.559  1.00  0.00     0.168 HD
HETATM   10  N   UNL     1     -41.199 -53.602  12.645  1.00  0.00    -0.337 N 
ATOM     11  HN  UNL     1     -41.623 -54.529  12.640  1.00  0.00     0.168 HD
HETATM   12  C   UNL     1     -41.317 -52.794  11.571  1.00  0.00     0.183 A 
ENDROOT
BRANCH   4  13
HETATM   13  N   UNL     1     -40.379 -53.999  14.814  1.00  0.00    -0.365 N 
HETATM   14  C   UNL     1     -39.123 -54.651  15.167  1.00  0.00     0.129 C 
HETATM   15  C   UNL     1     -39.606 -55.788  16.065  1.00  0.00     0.011 C 
HETATM   16  C   UNL     1     -38.629 -56.366  17.077  1.00  0.00     0.038 C 
HETATM   17  C   UNL     1     -40.791 -55.142  16.786  1.00  0.00     0.009 C 
HETATM   18  C   UNL     1     -39.349 -57.390  17.971  1.00  0.00     0.118 C 
HETATM   19  C   UNL     1     -40.647 -56.848  18.592  1.00  0.00     0.032 C 
HETATM   20  C   UNL     1     -41.578 -56.174  17.571  1.00  0.00     0.009 C 
HETATM   21  C   UNL     1     -41.505 -54.433  15.640  1.00  0.00     0.129 C 
BRANCH  18  22
HETATM   22  O   UNL     1     -39.632 -58.572  17.219  1.00  0.00    -0.396 OA
HETATM   23  H   UNL     1     -39.193 -58.511  16.355  1.00  0.00     0.210 HD
ENDBRANCH  18  22
ENDBRANCH   4  13
BRANCH   2  24
HETATM   24  C   UNL     1     -39.397 -48.905  11.699  1.00  0.00     0.147 C 
BRANCH  24  25
HETATM   25  C   UNL     1     -40.542 -47.903  11.735  1.00  0.00     0.040 C 
HETATM   26  C   UNL     1     -41.730 -48.217  12.671  1.00  0.00     0.183 C 
HETATM   27  O   UNL     1     -42.664 -48.122  11.568  1.00  0.00    -0.389 OA
HETATM   28  C   UNL     1     -41.572 -48.158  10.617  1.00  0.00     0.183 C 
BRANCH  25  29
HETATM   29  C   UNL     1     -40.109 -46.445  11.833  1.00  0.00     0.179 C 
BRANCH  29  30
HETATM   30  O   UNL     1     -41.200 -45.656  12.298  1.00  0.00    -0.400 OA
HETATM   31  H   UNL     1     -41.699 -45.333  11.529  1.00  0.00     0.209 HD
ENDBRANCH  29  30
ENDBRANCH  25  29
ENDBRANCH  24  25
ENDBRANCH   2  24
TORSDOF 6
ENDMDL
MODEL 8
REMARK VINA RESULT:      -5.7      7.775     10.460
REMARK  6 active torsions:
REMARK  status: ('A' for Active; 'I' for Inactive)
REMARK    1  A    between atoms: N_2  and  C_17 
REMARK    2  A    between atoms: N_3  and  C_5 
REMARK    3  A    between atoms: C_15  and  C_17 
REMARK    4  A    between atoms: C_15  and  C_27 
REMARK    5  A    between atoms: C_25  and  O_28 
REMARK    6  A    between atoms: C_27  and  O_29 
ROOT
HETATM    1  C   UNL     1     -38.624 -55.540  17.247  1.00  0.00     0.122 A 
HETATM    2  N   UNL     1     -36.847 -55.726  18.509  1.00  0.00    -0.326 N 
HETATM    3  C   UNL     1     -37.924 -56.430  18.048  1.00  0.00     0.140 A 
HETATM    4  C   UNL     1     -39.814 -56.010  16.646  1.00  0.00     0.135 A 
HETATM    5  N   UNL     1     -37.969 -54.316  17.217  1.00  0.00    -0.346 N 
ATOM      6  HN  UNL     1     -38.237 -53.484  16.691  1.00  0.00     0.167 HD
HETATM    7  C   UNL     1     -36.931 -54.458  18.010  1.00  0.00     0.185 A 
HETATM    8  N   UNL     1     -38.239 -57.704  18.325  1.00  0.00    -0.336 N 
ATOM      9  HN  UNL     1     -37.690 -58.321  18.923  1.00  0.00     0.168 HD
HETATM   10  N   UNL     1     -40.164 -57.302  16.905  1.00  0.00    -0.337 N 
ATOM     11  HN  UNL     1     -41.012 -57.697  16.497  1.00  0.00     0.168 HD
HETATM   12  C   UNL     1     -39.380 -58.055  17.704  1.00  0.00     0.183 A 
ENDROOT
BRANCH   4  13
HETATM   13  N   UNL     1     -40.623 -55.250  15.850  1.00  0.00    -0.365 N 
HETATM   14  C   UNL     1     -42.071 -55.193  16.015  1.00  0.00     0.129 C 
HETATM   15  C   UNL     1     -42.516 -54.657  14.655  1.00  0.00     0.011 C 
HETATM   16  C   UNL     1     -43.852 -53.935  14.572  1.00  0.00     0.038 C 
HETATM   17  C   UNL     1     -41.376 -53.701  14.301  1.00  0.00     0.009 C 
HETATM   18  C   UNL     1     -44.043 -53.354  13.160  1.00  0.00     0.118 C 
HETATM   19  C   UNL     1     -42.846 -52.518  12.680  1.00  0.00     0.032 C 
HETATM   20  C   UNL     1     -41.493 -53.222  12.866  1.00  0.00     0.009 C 
HETATM   21  C   UNL     1     -40.149 -54.528  14.671  1.00  0.00     0.129 C 
BRANCH  18  22
HETATM   22  O   UNL     1     -44.293 -54.413  12.233  1.00  0.00    -0.396 OA
HETATM   23  H   UNL     1     -44.633 -55.184  12.716  1.00  0.00     0.210 HD
ENDBRANCH  18  22
ENDBRANCH   4  13
BRANCH   2  24
HETATM   24  C   UNL     1     -35.846 -56.226  19.434  1.00  0.00     0.147 C 
BRANCH  24  25
HETATM   25  C   UNL     1     -34.500 -56.525  18.788  1.00  0.00     0.040 C 
HETATM   26  C   UNL     1     -34.273 -56.007  17.351  1.00  0.00     0.183 C 
HETATM   27  O   UNL     1     -33.957 -57.342  16.886  1.00  0.00    -0.389 OA
HETATM   28  C   UNL     1     -34.477 -57.911  18.113  1.00  0.00     0.183 C 
BRANCH  25  29
HETATM   29  C   UNL     1     -33.294 -56.271  19.684  1.00  0.00     0.179 C 
BRANCH  29  30
HETATM   30  O   UNL     1     -32.214 -57.105  19.274  1.00  0.00    -0.400 OA
HETATM   31  H   UNL     1     -32.436 -57.498  18.413  1.00  0.00     0.209 HD
ENDBRANCH  29  30
ENDBRANCH  25  29
ENDBRANCH  24  25
ENDBRANCH   2  24
TORSDOF 6
ENDMDL
MODEL 9
REMARK VINA RESULT:      -5.6      1.281      2.010
REMARK  6 active torsions:
REMARK  status: ('A' for Active; 'I' for Inactive)
REMARK    1  A    between atoms: N_2  and  C_17 
REMARK    2  A    between atoms: N_3  and  C_5 
REMARK    3  A    between atoms: C_15  and  C_17 
REMARK    4  A    between atoms: C_15  and  C_27 
REMARK    5  A    between atoms: C_25  and  O_28 
REMARK    6  A    between atoms: C_27  and  O_29 
ROOT
HETATM    1  C   UNL     1     -42.357 -48.578  13.243  1.00  0.00     0.122 A 
HETATM    2  N   UNL     1     -41.405 -46.617  13.070  1.00  0.00    -0.326 N 
HETATM    3  C   UNL     1     -41.413 -47.866  12.518  1.00  0.00     0.140 A 
HETATM    4  C   UNL     1     -42.558 -49.932  12.888  1.00  0.00     0.135 A 
HETATM    5  N   UNL     1     -42.919 -47.762  14.216  1.00  0.00    -0.346 N 
ATOM      6  HN  UNL     1     -43.656 -48.007  14.878  1.00  0.00     0.167 HD
HETATM    7  C   UNL     1     -42.299 -46.609  14.101  1.00  0.00     0.185 A 
HETATM    8  N   UNL     1     -40.659 -48.308  11.500  1.00  0.00    -0.336 N 
ATOM      9  HN  UNL     1     -39.975 -47.743  10.996  1.00  0.00     0.168 HD
HETATM   10  N   UNL     1     -41.809 -50.414  11.855  1.00  0.00    -0.337 N 
ATOM     11  HN  UNL     1     -41.914 -51.383  11.553  1.00  0.00     0.168 HD
HETATM   12  C   UNL     1     -40.929 -49.600  11.237  1.00  0.00     0.183 A 
ENDROOT
BRANCH   4  13
HETATM   13  N   UNL     1     -43.435 -50.768  13.519  1.00  0.00    -0.365 N 
HETATM   14  C   UNL     1     -44.809 -50.963  13.069  1.00  0.00     0.129 C 
HETATM   15  C   UNL     1     -45.464 -51.543  14.321  1.00  0.00     0.011 C 
HETATM   16  C   UNL     1     -46.715 -52.390  14.148  1.00  0.00     0.038 C 
HETATM   17  C   UNL     1     -44.333 -52.386  14.912  1.00  0.00     0.009 C 
HETATM   18  C   UNL     1     -47.130 -52.991  15.502  1.00  0.00     0.118 C 
HETATM   19  C   UNL     1     -45.980 -53.709  16.226  1.00  0.00     0.032 C 
HETATM   20  C   UNL     1     -44.689 -52.877  16.302  1.00  0.00     0.009 C 
HETATM   21  C   UNL     1     -43.141 -51.444  14.781  1.00  0.00     0.129 C 
BRANCH  18  22
HETATM   22  O   UNL     1     -47.660 -51.963  16.342  1.00  0.00    -0.396 OA
HETATM   23  H   UNL     1     -48.487 -51.632  15.956  1.00  0.00     0.210 HD
ENDBRANCH  18  22
ENDBRANCH   4  13
BRANCH   2  24
HETATM   24  C   UNL     1     -40.532 -45.525  12.676  1.00  0.00     0.147 C 
BRANCH  24  25
HETATM   25  C   UNL     1     -40.892 -44.897  11.337  1.00  0.00     0.040 C 
HETATM   26  C   UNL     1     -39.994 -45.242  10.129  1.00  0.00     0.183 C 
HETATM   27  O   UNL     1     -39.739 -43.838   9.879  1.00  0.00    -0.389 OA
HETATM   28  C   UNL     1     -40.284 -43.490  11.175  1.00  0.00     0.183 C 
BRANCH  25  29
HETATM   29  C   UNL     1     -42.373 -44.958  10.983  1.00  0.00     0.179 C 
BRANCH  29  30
HETATM   30  O   UNL     1     -42.518 -45.286   9.605  1.00  0.00    -0.400 OA
HETATM   31  H   UNL     1     -43.463 -45.259   9.377  1.00  0.00     0.209 HD
ENDBRANCH  29  30
ENDBRANCH  25  29
ENDBRANCH  24  25
ENDBRANCH   2  24
TORSDOF 6
ENDMDL
