MODEL 1
REMARK VINA RESULT:      -6.0      0.000      0.000
REMARK  3 active torsions:
REMARK  status: ('A' for Active; 'I' for Inactive)
REMARK    1  A    between atoms: C_2  and  C_3 
REMARK       I    between atoms: N_9  and  C_10 
REMARK       I    between atoms: C_10  and  N_12 
REMARK    2  A    between atoms: N_12  and  C_13 
REMARK    3  A    between atoms: C_16  and  S_18 
ROOT
HETATM    1  C   UNL     1     -44.961 -47.131   9.454  1.00  0.00     0.069 A 
HETATM    2  N   UNL     1     -44.270 -48.059  10.085  1.00  0.00    -0.296 N 
ATOM      3  HN  UNL     1     -44.659 -48.951  10.390  1.00  0.00     0.187 HD
HETATM    4  N   UNL     1     -42.965 -47.681  10.282  1.00  0.00    -0.279 N 
ATOM      5  HN  UNL     1     -42.270 -48.254  10.760  1.00  0.00     0.189 HD
HETATM    6  C   UNL     1     -42.719 -46.493   9.780  1.00  0.00     0.169 A 
HETATM    7  N   UNL     1     -41.556 -45.787   9.827  1.00  0.00    -0.288 N 
HETATM    8  C   UNL     1     -40.470 -46.138  10.574  1.00  0.00     0.322 C 
HETATM    9  O   UNL     1     -39.455 -45.448  10.516  1.00  0.00    -0.247 OA
HETATM   10  N   UNL     1     -40.608 -47.207  11.412  1.00  0.00    -0.338 N 
HETATM   11  S   UNL     1     -44.035 -45.751   8.996  1.00  0.00    -0.038 SA
HETATM   12  H   UNL     1     -41.483 -44.917   9.321  1.00  0.00     0.172 HD
HETATM   13  H   UNL     1     -41.381 -47.841  11.233  1.00  0.00     0.164 HD
ENDROOT
BRANCH  10  14
HETATM   14  C   UNL     1     -39.557 -47.645  12.292  1.00  0.00     0.087 C 
HETATM   15  C   UNL     1     -38.875 -48.928  11.826  1.00  0.00     0.026 C 
HETATM   16  C   UNL     1     -38.365 -49.608  13.108  1.00  0.00     0.017 C 
HETATM   17  C   UNL     1     -38.877 -48.763  14.288  1.00  0.00     0.049 C 
HETATM   18  C   UNL     1     -40.067 -48.018  13.684  1.00  0.00     0.040 C 
BRANCH  17  19
HETATM   19  S   UNL     1     -37.536 -47.640  14.862  1.00  0.00    -0.169 SA
HETATM   20  C   UNL     1     -36.549 -48.789  15.851  1.00  0.00     0.090 C 
ENDBRANCH  17  19
ENDBRANCH  10  14
BRANCH   1  21
HETATM   21  C   UNL     1     -46.420 -47.235   9.171  1.00  0.00     0.062 C 
HETATM   22  C   UNL     1     -46.809 -48.666   8.828  1.00  0.00     0.012 C 
ENDBRANCH   1  21
TORSDOF 3
ENDMDL
MODEL 2
REMARK VINA RESULT:      -5.8      1.604      1.970
REMARK  3 active torsions:
REMARK  status: ('A' for Active; 'I' for Inactive)
REMARK    1  A    between atoms: C_2  and  C_3 
REMARK       I    between atoms: N_9  and  C_10 
REMARK       I    between atoms: C_10  and  N_12 
REMARK    2  A    between atoms: N_12  and  C_13 
REMARK    3  A    between atoms: C_16  and  S_18 
ROOT
HETATM    1  C   UNL     1     -43.193 -47.379   9.291  1.00  0.00     0.069 A 
HETATM    2  N   UNL     1     -42.291 -48.333   9.393  1.00  0.00    -0.296 N 
ATOM      3  HN  UNL     1     -42.326 -49.209   8.871  1.00  0.00     0.187 HD
HETATM    4  N   UNL     1     -41.299 -48.009  10.285  1.00  0.00    -0.279 N 
ATOM      5  HN  UNL     1     -40.514 -48.619  10.514  1.00  0.00     0.189 HD
HETATM    6  C   UNL     1     -41.483 -46.818  10.808  1.00  0.00     0.169 A 
HETATM    7  N   UNL     1     -40.728 -46.192  11.753  1.00  0.00    -0.288 N 
HETATM    8  C   UNL     1     -39.723 -46.787  12.457  1.00  0.00     0.322 C 
HETATM    9  O   UNL     1     -39.079 -46.119  13.263  1.00  0.00    -0.247 OA
HETATM   10  N   UNL     1     -39.542 -48.128  12.274  1.00  0.00    -0.338 N 
HETATM   11  S   UNL     1     -42.848 -45.979  10.237  1.00  0.00    -0.038 SA
HETATM   12  H   UNL     1     -40.937 -45.237  12.002  1.00  0.00     0.172 HD
HETATM   13  H   UNL     1     -39.954 -48.544  11.444  1.00  0.00     0.164 HD
ENDROOT
BRANCH  10  14
HETATM   14  C   UNL     1     -38.553 -48.884  12.996  1.00  0.00     0.087 C 
HETATM   15  C   UNL     1     -37.749 -49.829  12.108  1.00  0.00     0.026 C 
HETATM   16  C   UNL     1     -37.319 -50.985  13.026  1.00  0.00     0.017 C 
HETATM   17  C   UNL     1     -37.995 -50.741  14.388  1.00  0.00     0.049 C 
HETATM   18  C   UNL     1     -39.167 -49.830  14.028  1.00  0.00     0.040 C 
BRANCH  17  19
HETATM   19  S   UNL     1     -36.790 -49.952  15.533  1.00  0.00    -0.169 SA
HETATM   20  C   UNL     1     -37.921 -49.120  16.674  1.00  0.00     0.090 C 
ENDBRANCH  17  19
ENDBRANCH  10  14
BRANCH   1  21
HETATM   21  C   UNL     1     -44.421 -47.487   8.455  1.00  0.00     0.062 C 
HETATM   22  C   UNL     1     -45.673 -47.469   9.320  1.00  0.00     0.012 C 
ENDBRANCH   1  21
TORSDOF 3
ENDMDL
MODEL 3
REMARK VINA RESULT:      -5.6      3.243      3.643
REMARK  3 active torsions:
REMARK  status: ('A' for Active; 'I' for Inactive)
REMARK    1  A    between atoms: C_2  and  C_3 
REMARK       I    between atoms: N_9  and  C_10 
REMARK       I    between atoms: C_10  and  N_12 
REMARK    2  A    between atoms: N_12  and  C_13 
REMARK    3  A    between atoms: C_16  and  S_18 
ROOT
HETATM    1  C   UNL     1     -43.353 -46.729   9.559  1.00  0.00     0.069 A 
HETATM    2  N   UNL     1     -43.412 -48.044   9.609  1.00  0.00    -0.296 N 
ATOM      3  HN  UNL     1     -44.190 -48.594   9.246  1.00  0.00     0.187 HD
HETATM    4  N   UNL     1     -42.303 -48.585  10.209  1.00  0.00    -0.279 N 
ATOM      5  HN  UNL     1     -42.161 -49.585  10.355  1.00  0.00     0.189 HD
HETATM    6  C   UNL     1     -41.444 -47.660  10.573  1.00  0.00     0.169 A 
HETATM    7  N   UNL     1     -40.262 -47.825  11.230  1.00  0.00    -0.288 N 
HETATM    8  C   UNL     1     -39.845 -48.998  11.784  1.00  0.00     0.322 C 
HETATM    9  O   UNL     1     -38.741 -49.046  12.324  1.00  0.00    -0.247 OA
HETATM   10  N   UNL     1     -40.724 -50.043  11.773  1.00  0.00    -0.338 N 
HETATM   11  S   UNL     1     -41.891 -46.064  10.186  1.00  0.00    -0.038 SA
HETATM   12  H   UNL     1     -39.658 -47.029  11.370  1.00  0.00     0.172 HD
HETATM   13  H   UNL     1     -41.502 -49.987  11.122  1.00  0.00     0.164 HD
ENDROOT
BRANCH  10  14
HETATM   14  C   UNL     1     -40.427 -51.316  12.373  1.00  0.00     0.087 C 
HETATM   15  C   UNL     1     -41.215 -52.470  11.761  1.00  0.00     0.026 C 
HETATM   16  C   UNL     1     -41.349 -53.513  12.883  1.00  0.00     0.017 C 
HETATM   17  C   UNL     1     -40.745 -52.878  14.149  1.00  0.00     0.049 C 
HETATM   18  C   UNL     1     -40.820 -51.382  13.849  1.00  0.00     0.040 C 
BRANCH  17  19
HETATM   19  S   UNL     1     -39.022 -53.486  14.374  1.00  0.00    -0.169 SA
HETATM   20  C   UNL     1     -39.314 -54.890  15.478  1.00  0.00     0.090 C 
ENDBRANCH  17  19
ENDBRANCH  10  14
BRANCH   1  21
HETATM   21  C   UNL     1     -44.450 -45.871   9.030  1.00  0.00     0.062 C 
HETATM   22  C   UNL     1     -45.760 -46.642   8.958  1.00  0.00     0.012 C 
ENDBRANCH   1  21
TORSDOF 3
ENDMDL
MODEL 4
REMARK VINA RESULT:      -5.6      4.025      4.866
REMARK  3 active torsions:
REMARK  status: ('A' for Active; 'I' for Inactive)
REMARK    1  A    between atoms: C_2  and  C_3 
REMARK       I    between atoms: N_9  and  C_10 
REMARK       I    between atoms: C_10  and  N_12 
REMARK    2  A    between atoms: N_12  and  C_13 
REMARK    3  A    between atoms: C_16  and  S_18 
ROOT
HETATM    1  C   UNL     1     -45.345 -47.941   8.706  1.00  0.00     0.069 A 
HETATM    2  N   UNL     1     -45.476 -47.312   9.856  1.00  0.00    -0.296 N 
ATOM      3  HN  UNL     1     -46.331 -47.314  10.412  1.00  0.00     0.187 HD
HETATM    4  N   UNL     1     -44.326 -46.654  10.215  1.00  0.00    -0.279 N 
ATOM      5  HN  UNL     1     -44.227 -46.099  11.066  1.00  0.00     0.189 HD
HETATM    6  C   UNL     1     -43.370 -46.824   9.332  1.00  0.00     0.169 A 
HETATM    7  N   UNL     1     -42.118 -46.288   9.339  1.00  0.00    -0.288 N 
HETATM    8  C   UNL     1     -41.696 -45.321  10.203  1.00  0.00     0.322 C 
HETATM    9  O   UNL     1     -40.532 -44.933  10.145  1.00  0.00    -0.247 OA
HETATM   10  N   UNL     1     -42.630 -44.782  11.040  1.00  0.00    -0.338 N 
HETATM   11  S   UNL     1     -43.769 -47.824   8.014  1.00  0.00    -0.038 SA
HETATM   12  H   UNL     1     -41.452 -46.575   8.637  1.00  0.00     0.172 HD
HETATM   13  H   UNL     1     -43.490 -45.307  11.176  1.00  0.00     0.164 HD
ENDROOT
BRANCH  10  14
HETATM   14  C   UNL     1     -42.328 -43.718  11.960  1.00  0.00     0.087 C 
HETATM   15  C   UNL     1     -42.680 -44.052  13.406  1.00  0.00     0.026 C 
HETATM   16  C   UNL     1     -42.982 -42.701  14.075  1.00  0.00     0.017 C 
HETATM   17  C   UNL     1     -42.921 -41.636  12.965  1.00  0.00     0.049 C 
HETATM   18  C   UNL     1     -43.146 -42.454  11.695  1.00  0.00     0.040 C 
BRANCH  17  19
HETATM   19  S   UNL     1     -41.279 -40.805  13.008  1.00  0.00    -0.169 SA
HETATM   20  C   UNL     1     -40.813 -41.093  14.733  1.00  0.00     0.090 C 
ENDBRANCH  17  19
ENDBRANCH  10  14
BRANCH   1  21
HETATM   21  C   UNL     1     -46.452 -48.676   8.033  1.00  0.00     0.062 C 
HETATM   22  C   UNL     1     -45.995 -49.250   6.700  1.00  0.00     0.012 C 
ENDBRANCH   1  21
TORSDOF 3
ENDMDL
MODEL 5
REMARK VINA RESULT:      -5.4      5.348      6.495
REMARK  3 active torsions:
REMARK  status: ('A' for Active; 'I' for Inactive)
REMARK    1  A    between atoms: C_2  and  C_3 
REMARK       I    between atoms: N_9  and  C_10 
REMARK       I    between atoms: C_10  and  N_12 
REMARK    2  A    between atoms: N_12  and  C_13 
REMARK    3  A    between atoms: C_16  and  S_18 
ROOT
HETATM    1  C   UNL     1     -42.247 -46.639  10.971  1.00  0.00     0.069 A 
HETATM    2  N   UNL     1     -43.437 -47.058  11.351  1.00  0.00    -0.296 N 
ATOM      3  HN  UNL     1     -44.263 -46.463  11.398  1.00  0.00     0.187 HD
HETATM    4  N   UNL     1     -43.431 -48.392  11.676  1.00  0.00    -0.279 N 
ATOM      5  HN  UNL     1     -44.250 -48.904  12.003  1.00  0.00     0.189 HD
HETATM    6  C   UNL     1     -42.244 -48.930  11.514  1.00  0.00     0.169 A 
HETATM    7  N   UNL     1     -41.860 -50.210  11.777  1.00  0.00    -0.288 N 
HETATM    8  C   UNL     1     -42.628 -51.126  12.433  1.00  0.00     0.322 C 
HETATM    9  O   UNL     1     -42.198 -52.267  12.587  1.00  0.00    -0.247 OA
HETATM   10  N   UNL     1     -43.813 -50.691  12.953  1.00  0.00    -0.338 N 
HETATM   11  S   UNL     1     -41.047 -47.876  10.920  1.00  0.00    -0.038 SA
HETATM   12  H   UNL     1     -40.931 -50.511  11.522  1.00  0.00     0.172 HD
HETATM   13  H   UNL     1     -44.185 -49.818  12.592  1.00  0.00     0.164 HD
ENDROOT
BRANCH  10  14
HETATM   14  C   UNL     1     -44.688 -51.544  13.713  1.00  0.00     0.087 C 
HETATM   15  C   UNL     1     -46.159 -51.383  13.342  1.00  0.00     0.026 C 
HETATM   16  C   UNL     1     -46.943 -51.745  14.614  1.00  0.00     0.017 C 
HETATM   17  C   UNL     1     -45.900 -51.981  15.722  1.00  0.00     0.049 C 
HETATM   18  C   UNL     1     -44.678 -51.222  15.208  1.00  0.00     0.040 C 
BRANCH  17  19
HETATM   19  S   UNL     1     -45.604 -53.789  15.905  1.00  0.00    -0.169 SA
HETATM   20  C   UNL     1     -45.476 -53.917  17.706  1.00  0.00     0.090 C 
ENDBRANCH  17  19
ENDBRANCH  10  14
BRANCH   1  21
HETATM   21  C   UNL     1     -41.938 -45.222  10.632  1.00  0.00     0.062 C 
HETATM   22  C   UNL     1     -40.436 -44.997  10.543  1.00  0.00     0.012 C 
ENDBRANCH   1  21
TORSDOF 3
ENDMDL
MODEL 6
REMARK VINA RESULT:      -5.1      5.486      6.401
REMARK  3 active torsions:
REMARK  status: ('A' for Active; 'I' for Inactive)
REMARK    1  A    between atoms: C_2  and  C_3 
REMARK       I    between atoms: N_9  and  C_10 
REMARK       I    between atoms: C_10  and  N_12 
REMARK    2  A    between atoms: N_12  and  C_13 
REMARK    3  A    between atoms: C_16  and  S_18 
ROOT
HETATM    1  C   UNL     1     -41.532 -48.227  11.046  1.00  0.00     0.069 A 
HETATM    2  N   UNL     1     -42.467 -49.117  11.313  1.00  0.00    -0.296 N 
ATOM      3  HN  UNL     1     -43.465 -48.951  11.183  1.00  0.00     0.187 HD
HETATM    4  N   UNL     1     -41.937 -50.291  11.787  1.00  0.00    -0.279 N 
ATOM      5  HN  UNL     1     -42.494 -51.100  12.061  1.00  0.00     0.189 HD
HETATM    6  C   UNL     1     -40.626 -50.248  11.843  1.00  0.00     0.169 A 
HETATM    7  N   UNL     1     -39.774 -51.208  12.300  1.00  0.00    -0.288 N 
HETATM    8  C   UNL     1     -40.165 -52.340  12.950  1.00  0.00     0.322 C 
HETATM    9  O   UNL     1     -39.315 -53.161  13.289  1.00  0.00    -0.247 OA
HETATM   10  N   UNL     1     -41.490 -52.458  13.258  1.00  0.00    -0.338 N 
HETATM   11  S   UNL     1     -39.924 -48.798  11.294  1.00  0.00    -0.038 SA
HETATM   12  H   UNL     1     -38.779 -51.073  12.205  1.00  0.00     0.172 HD
HETATM   13  H   UNL     1     -42.139 -51.861  12.754  1.00  0.00     0.164 HD
ENDROOT
BRANCH  10  14
HETATM   14  C   UNL     1     -42.022 -53.577  13.990  1.00  0.00     0.087 C 
HETATM   15  C   UNL     1     -43.269 -54.179  13.350  1.00  0.00     0.026 C 
HETATM   16  C   UNL     1     -44.068 -54.792  14.512  1.00  0.00     0.017 C 
HETATM   17  C   UNL     1     -43.323 -54.417  15.806  1.00  0.00     0.049 C 
HETATM   18  C   UNL     1     -42.509 -53.194  15.387  1.00  0.00     0.040 C 
BRANCH  17  19
HETATM   19  S   UNL     1     -42.278 -55.834  16.341  1.00  0.00    -0.169 SA
HETATM   20  C   UNL     1     -41.066 -54.974  17.373  1.00  0.00     0.090 C 
ENDBRANCH  17  19
ENDBRANCH  10  14
BRANCH   1  21
HETATM   21  C   UNL     1     -41.818 -46.838  10.590  1.00  0.00     0.062 C 
HETATM   22  C   UNL     1     -40.561 -45.982  10.629  1.00  0.00     0.012 C 
ENDBRANCH   1  21
TORSDOF 3
ENDMDL
MODEL 7
REMARK VINA RESULT:      -5.1      4.530      6.713
REMARK  3 active torsions:
REMARK  status: ('A' for Active; 'I' for Inactive)
REMARK    1  A    between atoms: C_2  and  C_3 
REMARK       I    between atoms: N_9  and  C_10 
REMARK       I    between atoms: C_10  and  N_12 
REMARK    2  A    between atoms: N_12  and  C_13 
REMARK    3  A    between atoms: C_16  and  S_18 
ROOT
HETATM    1  C   UNL     1     -42.898 -53.754  13.861  1.00  0.00     0.069 A 
HETATM    2  N   UNL     1     -43.465 -52.567  13.796  1.00  0.00    -0.296 N 
ATOM      3  HN  UNL     1     -44.385 -52.353  14.181  1.00  0.00     0.187 HD
HETATM    4  N   UNL     1     -42.671 -51.654  13.149  1.00  0.00    -0.279 N 
ATOM      5  HN  UNL     1     -42.934 -50.681  12.986  1.00  0.00     0.189 HD
HETATM    6  C   UNL     1     -41.532 -52.182  12.766  1.00  0.00     0.169 A 
HETATM    7  N   UNL     1     -40.526 -51.588  12.064  1.00  0.00    -0.288 N 
HETATM    8  C   UNL     1     -40.614 -50.359  11.480  1.00  0.00     0.322 C 
HETATM    9  O   UNL     1     -39.632 -49.901  10.900  1.00  0.00    -0.247 OA
HETATM   10  N   UNL     1     -41.829 -49.738  11.511  1.00  0.00    -0.338 N 
HETATM   11  S   UNL     1     -41.312 -53.815  13.189  1.00  0.00    -0.038 SA
HETATM   12  H   UNL     1     -39.665 -52.091  11.912  1.00  0.00     0.172 HD
HETATM   13  H   UNL     1     -42.505 -50.075  12.191  1.00  0.00     0.164 HD
ENDROOT
BRANCH  10  14
HETATM   14  C   UNL     1     -42.068 -48.465  10.884  1.00  0.00     0.087 C 
HETATM   15  C   UNL     1     -41.323 -47.314  11.554  1.00  0.00     0.026 C 
HETATM   16  C   UNL     1     -42.179 -46.065  11.288  1.00  0.00     0.017 C 
HETATM   17  C   UNL     1     -43.458 -46.549  10.581  1.00  0.00     0.049 C 
HETATM   18  C   UNL     1     -43.528 -48.024  10.976  1.00  0.00     0.040 C 
BRANCH  17  19
HETATM   19  S   UNL     1     -43.286 -46.294   8.766  1.00  0.00    -0.169 SA
HETATM   20  C   UNL     1     -44.286 -47.670   8.147  1.00  0.00     0.090 C 
ENDBRANCH  17  19
ENDBRANCH  10  14
BRANCH   1  21
HETATM   21  C   UNL     1     -43.560 -54.957  14.440  1.00  0.00     0.062 C 
HETATM   22  C   UNL     1     -44.983 -55.100  13.921  1.00  0.00     0.012 C 
ENDBRANCH   1  21
TORSDOF 3
ENDMDL
MODEL 8
REMARK VINA RESULT:      -4.8      4.388      6.049
REMARK  3 active torsions:
REMARK  status: ('A' for Active; 'I' for Inactive)
REMARK    1  A    between atoms: C_2  and  C_3 
REMARK       I    between atoms: N_9  and  C_10 
REMARK       I    between atoms: C_10  and  N_12 
REMARK    2  A    between atoms: N_12  and  C_13 
REMARK    3  A    between atoms: C_16  and  S_18 
ROOT
HETATM    1  C   UNL     1     -42.440 -53.417  13.754  1.00  0.00     0.069 A 
HETATM    2  N   UNL     1     -42.717 -52.162  14.045  1.00  0.00    -0.296 N 
ATOM      3  HN  UNL     1     -43.521 -51.870  14.601  1.00  0.00     0.187 HD
HETATM    4  N   UNL     1     -41.796 -51.296  13.511  1.00  0.00    -0.279 N 
ATOM      5  HN  UNL     1     -41.838 -50.282  13.614  1.00  0.00     0.189 HD
HETATM    6  C   UNL     1     -40.853 -51.930  12.853  1.00  0.00     0.169 A 
HETATM    7  N   UNL     1     -39.807 -51.395  12.163  1.00  0.00    -0.288 N 
HETATM    8  C   UNL     1     -39.659 -50.067  11.893  1.00  0.00     0.322 C 
HETATM    9  O   UNL     1     -38.657 -49.686  11.292  1.00  0.00    -0.247 OA
HETATM   10  N   UNL     1     -40.687 -49.240  12.244  1.00  0.00    -0.338 N 
HETATM   11  S   UNL     1     -40.983 -53.627  12.857  1.00  0.00    -0.038 SA
HETATM   12  H   UNL     1     -39.105 -52.007  11.774  1.00  0.00     0.172 HD
HETATM   13  H   UNL     1     -41.356 -49.593  12.922  1.00  0.00     0.164 HD
ENDROOT
BRANCH  10  14
HETATM   14  C   UNL     1     -40.679 -47.828  11.965  1.00  0.00     0.087 C 
HETATM   15  C   UNL     1     -41.495 -47.012  12.962  1.00  0.00     0.026 C 
HETATM   16  C   UNL     1     -41.969 -45.773  12.185  1.00  0.00     0.017 C 
HETATM   17  C   UNL     1     -41.522 -45.972  10.725  1.00  0.00     0.049 C 
HETATM   18  C   UNL     1     -41.336 -47.485  10.628  1.00  0.00     0.040 C 
BRANCH  17  19
HETATM   19  S   UNL     1     -39.967 -45.031  10.431  1.00  0.00    -0.169 SA
HETATM   20  C   UNL     1     -40.349 -43.490  11.299  1.00  0.00     0.090 C 
ENDBRANCH  17  19
ENDBRANCH  10  14
BRANCH   1  21
HETATM   21  C   UNL     1     -43.307 -54.566  14.136  1.00  0.00     0.062 C 
HETATM   22  C   UNL     1     -44.682 -54.450  13.495  1.00  0.00     0.012 C 
ENDBRANCH   1  21
TORSDOF 3
ENDMDL
MODEL 9
REMARK VINA RESULT:      -4.7     12.558     14.628
REMARK  3 active torsions:
REMARK  status: ('A' for Active; 'I' for Inactive)
REMARK    1  A    between atoms: C_2  and  C_3 
REMARK       I    between atoms: N_9  and  C_10 
REMARK       I    between atoms: C_10  and  N_12 
REMARK    2  A    between atoms: N_12  and  C_13 
REMARK    3  A    between atoms: C_16  and  S_18 
ROOT
HETATM    1  C   UNL     1     -30.171 -52.749  19.204  1.00  0.00     0.069 A 
HETATM    2  N   UNL     1     -31.456 -52.614  19.463  1.00  0.00    -0.296 N 
ATOM      3  HN  UNL     1     -31.839 -51.914  20.097  1.00  0.00     0.187 HD
HETATM    4  N   UNL     1     -32.216 -53.529  18.776  1.00  0.00    -0.279 N 
ATOM      5  HN  UNL     1     -33.231 -53.596  18.848  1.00  0.00     0.189 HD
HETATM    6  C   UNL     1     -31.479 -54.305  18.017  1.00  0.00     0.169 A 
HETATM    7  N   UNL     1     -31.885 -55.344  17.236  1.00  0.00    -0.288 N 
HETATM    8  C   UNL     1     -33.142 -55.872  17.246  1.00  0.00     0.322 C 
HETATM    9  O   UNL     1     -33.414 -56.788  16.472  1.00  0.00    -0.247 OA
HETATM   10  N   UNL     1     -34.013 -55.394  18.183  1.00  0.00    -0.338 N 
HETATM   11  S   UNL     1     -29.810 -53.970  18.041  1.00  0.00    -0.038 SA
HETATM   12  H   UNL     1     -31.217 -55.803  16.634  1.00  0.00     0.172 HD
HETATM   13  H   UNL     1     -33.785 -54.504  18.617  1.00  0.00     0.164 HD
ENDROOT
BRANCH  10  14
HETATM   14  C   UNL     1     -35.349 -55.905  18.335  1.00  0.00     0.087 C 
HETATM   15  C   UNL     1     -36.418 -54.818  18.298  1.00  0.00     0.026 C 
HETATM   16  C   UNL     1     -37.583 -55.361  19.142  1.00  0.00     0.017 C 
HETATM   17  C   UNL     1     -37.103 -56.692  19.749  1.00  0.00     0.049 C 
HETATM   18  C   UNL     1     -35.582 -56.563  19.695  1.00  0.00     0.040 C 
BRANCH  17  19
HETATM   19  S   UNL     1     -37.747 -58.089  18.739  1.00  0.00    -0.169 SA
HETATM   20  C   UNL     1     -36.834 -59.469  19.472  1.00  0.00     0.090 C 
ENDBRANCH  17  19
ENDBRANCH  10  14
BRANCH   1  21
HETATM   21  C   UNL     1     -29.105 -51.944  19.863  1.00  0.00     0.062 C 
HETATM   22  C   UNL     1     -29.535 -50.492  20.017  1.00  0.00     0.012 C 
ENDBRANCH   1  21
TORSDOF 3
ENDMDL
