MODEL 1
REMARK VINA RESULT:      -6.2      0.000      0.000
REMARK  6 active torsions:
REMARK  status: ('A' for Active; 'I' for Inactive)
REMARK    1  A    between atoms: C_2  and  C_3 
REMARK    2  A    between atoms: C_6  and  C_7 
REMARK    3  A    between atoms: C_7  and  C_8 
REMARK       I    between atoms: C_8  and  N_10 
REMARK    4  A    between atoms: N_10  and  C_11 
REMARK    5  A    between atoms: C_11  and  C_13 
REMARK       I    between atoms: C_13  and  N_15 
REMARK    6  A    between atoms: N_15  and  C_16 
ROOT
HETATM    1  C   UNL     1     -41.842 -50.562  12.500  1.00  0.00     0.224 C 
HETATM    2  O   UNL     1     -41.683 -50.210  13.669  1.00  0.00    -0.273 OA
HETATM    3  N   UNL     1     -41.735 -49.687  11.446  1.00  0.00    -0.348 N 
HETATM    4  H   UNL     1     -42.061 -49.982  10.525  1.00  0.00     0.163 HD
ENDROOT
BRANCH   3   5
HETATM    5  C   UNL     1     -41.459 -48.266  11.633  1.00  0.00     0.172 C 
HETATM    6  C   UNL     1     -39.955 -48.021  11.708  1.00  0.00     0.042 C 
BRANCH   5   7
HETATM    7  C   UNL     1     -42.091 -47.472  10.473  1.00  0.00     0.240 C 
HETATM    8  O   UNL     1     -41.524 -46.503   9.969  1.00  0.00    -0.271 OA
HETATM    9  N   UNL     1     -43.325 -47.940  10.057  1.00  0.00    -0.351 N 
HETATM   10  H   UNL     1     -43.654 -48.813  10.452  1.00  0.00     0.163 HD
BRANCH   9  11
HETATM   11  C   UNL     1     -44.097 -47.374   8.939  1.00  0.00     0.022 C 
HETATM   12  C   UNL     1     -43.555 -47.884   7.593  1.00  0.00     0.037 C 
HETATM   13  C   UNL     1     -45.562 -47.832   9.076  1.00  0.00     0.037 C 
HETATM   14  C   UNL     1     -44.076 -45.837   8.975  1.00  0.00     0.037 C 
ENDBRANCH   9  11
ENDBRANCH   5   7
ENDBRANCH   3   5
BRANCH   1  15
HETATM   15  C   UNL     1     -42.068 -52.013  12.126  1.00  0.00     0.160 C 
BRANCH  15  16
HETATM   16  C   UNL     1     -43.342 -52.564  12.670  1.00  0.00     0.025 A 
HETATM   17  N   UNL     1     -44.389 -51.691  12.934  1.00  0.00    -0.356 N 
HETATM   18  C   UNL     1     -45.447 -52.360  13.347  1.00  0.00     0.050 A 
ATOM     19  HN  UNL     1     -44.345 -50.677  12.825  1.00  0.00     0.166 HD
HETATM   20  S   UNL     1     -45.240 -54.063  13.464  1.00  0.00    -0.087 SA
HETATM   21  C   UNL     1     -43.631 -53.895  12.903  1.00  0.00     0.077 A 
BRANCH  18  22
HETATM   22  C   UNL     1     -46.767 -51.735  13.676  1.00  0.00     0.060 C 
HETATM   23  C   UNL     1     -46.887 -51.413  15.157  1.00  0.00     0.012 C 
ENDBRANCH  18  22
ENDBRANCH  15  16
ENDBRANCH   1  15
TORSDOF 6
ENDMDL
MODEL 2
REMARK VINA RESULT:      -5.8      2.561      6.092
REMARK  6 active torsions:
REMARK  status: ('A' for Active; 'I' for Inactive)
REMARK    1  A    between atoms: C_2  and  C_3 
REMARK    2  A    between atoms: C_6  and  C_7 
REMARK    3  A    between atoms: C_7  and  C_8 
REMARK       I    between atoms: C_8  and  N_10 
REMARK    4  A    between atoms: N_10  and  C_11 
REMARK    5  A    between atoms: C_11  and  C_13 
REMARK       I    between atoms: C_13  and  N_15 
REMARK    6  A    between atoms: N_15  and  C_16 
ROOT
HETATM    1  C   UNL     1     -41.584 -49.387  11.828  1.00  0.00     0.224 C 
HETATM    2  O   UNL     1     -40.684 -49.852  11.128  1.00  0.00    -0.273 OA
HETATM    3  N   UNL     1     -42.346 -50.169  12.662  1.00  0.00    -0.348 N 
HETATM    4  H   UNL     1     -43.194 -49.773  13.070  1.00  0.00     0.163 HD
ENDROOT
BRANCH   3   5
HETATM    5  C   UNL     1     -42.172 -51.615  12.756  1.00  0.00     0.172 C 
HETATM    6  C   UNL     1     -41.435 -51.979  14.042  1.00  0.00     0.042 C 
BRANCH   5   7
HETATM    7  C   UNL     1     -43.554 -52.294  12.700  1.00  0.00     0.240 C 
HETATM    8  O   UNL     1     -43.733 -53.345  12.084  1.00  0.00    -0.271 OA
HETATM    9  N   UNL     1     -44.553 -51.632  13.392  1.00  0.00    -0.351 N 
HETATM   10  H   UNL     1     -44.282 -50.841  13.965  1.00  0.00     0.163 HD
BRANCH   9  11
HETATM   11  C   UNL     1     -45.938 -52.112  13.519  1.00  0.00     0.022 C 
HETATM   12  C   UNL     1     -45.962 -53.602  13.897  1.00  0.00     0.037 C 
HETATM   13  C   UNL     1     -46.630 -51.316  14.643  1.00  0.00     0.037 C 
HETATM   14  C   UNL     1     -46.726 -51.878  12.219  1.00  0.00     0.037 C 
ENDBRANCH   9  11
ENDBRANCH   5   7
ENDBRANCH   3   5
BRANCH   1  15
HETATM   15  C   UNL     1     -41.852 -47.898  11.900  1.00  0.00     0.160 C 
BRANCH  15  16
HETATM   16  C   UNL     1     -42.681 -47.399  10.766  1.00  0.00     0.025 A 
HETATM   17  N   UNL     1     -43.819 -48.110  10.407  1.00  0.00    -0.356 N 
HETATM   18  C   UNL     1     -44.455 -47.489   9.433  1.00  0.00     0.050 A 
ATOM     19  HN  UNL     1     -44.118 -48.986  10.834  1.00  0.00     0.166 HD
HETATM   20  S   UNL     1     -43.716 -46.039   8.880  1.00  0.00    -0.087 SA
HETATM   21  C   UNL     1     -42.472 -46.243  10.037  1.00  0.00     0.077 A 
BRANCH  18  22
HETATM   22  C   UNL     1     -45.746 -47.956   8.835  1.00  0.00     0.060 C 
HETATM   23  C   UNL     1     -46.880 -46.979   9.103  1.00  0.00     0.012 C 
ENDBRANCH  18  22
ENDBRANCH  15  16
ENDBRANCH   1  15
TORSDOF 6
ENDMDL
MODEL 3
REMARK VINA RESULT:      -5.7      2.631      6.410
REMARK  6 active torsions:
REMARK  status: ('A' for Active; 'I' for Inactive)
REMARK    1  A    between atoms: C_2  and  C_3 
REMARK    2  A    between atoms: C_6  and  C_7 
REMARK    3  A    between atoms: C_7  and  C_8 
REMARK       I    between atoms: C_8  and  N_10 
REMARK    4  A    between atoms: N_10  and  C_11 
REMARK    5  A    between atoms: C_11  and  C_13 
REMARK       I    between atoms: C_13  and  N_15 
REMARK    6  A    between atoms: N_15  and  C_16 
ROOT
HETATM    1  C   UNL     1     -41.377 -51.486  12.551  1.00  0.00     0.224 C 
HETATM    2  O   UNL     1     -41.257 -51.917  11.405  1.00  0.00    -0.273 OA
HETATM    3  N   UNL     1     -41.974 -52.212  13.553  1.00  0.00    -0.348 N 
HETATM    4  H   UNL     1     -42.219 -51.741  14.425  1.00  0.00     0.163 HD
ENDROOT
BRANCH   3   5
HETATM    5  C   UNL     1     -42.544 -53.537  13.327  1.00  0.00     0.172 C 
HETATM    6  C   UNL     1     -42.162 -54.481  14.463  1.00  0.00     0.042 C 
BRANCH   5   7
HETATM    7  C   UNL     1     -44.076 -53.412  13.203  1.00  0.00     0.240 C 
HETATM    8  O   UNL     1     -44.713 -54.079  12.388  1.00  0.00    -0.271 OA
HETATM    9  N   UNL     1     -44.655 -52.506  14.073  1.00  0.00    -0.351 N 
HETATM   10  H   UNL     1     -44.063 -52.095  14.785  1.00  0.00     0.163 HD
BRANCH   9  11
HETATM   11  C   UNL     1     -46.101 -52.251  14.169  1.00  0.00     0.022 C 
HETATM   12  C   UNL     1     -46.854 -53.538  14.546  1.00  0.00     0.037 C 
HETATM   13  C   UNL     1     -46.340 -51.207  15.278  1.00  0.00     0.037 C 
HETATM   14  C   UNL     1     -46.651 -51.676  12.853  1.00  0.00     0.037 C 
ENDBRANCH   9  11
ENDBRANCH   5   7
ENDBRANCH   3   5
BRANCH   1  15
HETATM   15  C   UNL     1     -40.781 -50.157  12.971  1.00  0.00     0.160 C 
BRANCH  15  16
HETATM   16  C   UNL     1     -41.156 -49.037  12.062  1.00  0.00     0.025 A 
HETATM   17  N   UNL     1     -42.379 -49.087  11.408  1.00  0.00    -0.356 N 
HETATM   18  C   UNL     1     -42.564 -47.989  10.702  1.00  0.00     0.050 A 
ATOM     19  HN  UNL     1     -43.040 -49.862  11.466  1.00  0.00     0.166 HD
HETATM   20  S   UNL     1     -41.276 -46.851  10.763  1.00  0.00    -0.087 SA
HETATM   21  C   UNL     1     -40.424 -47.889  11.824  1.00  0.00     0.077 A 
BRANCH  18  22
HETATM   22  C   UNL     1     -43.799 -47.691   9.910  1.00  0.00     0.060 C 
HETATM   23  C   UNL     1     -43.506 -47.596   8.421  1.00  0.00     0.012 C 
ENDBRANCH  18  22
ENDBRANCH  15  16
ENDBRANCH   1  15
TORSDOF 6
ENDMDL
MODEL 4
REMARK VINA RESULT:      -5.6      3.250      7.063
REMARK  6 active torsions:
REMARK  status: ('A' for Active; 'I' for Inactive)
REMARK    1  A    between atoms: C_2  and  C_3 
REMARK    2  A    between atoms: C_6  and  C_7 
REMARK    3  A    between atoms: C_7  and  C_8 
REMARK       I    between atoms: C_8  and  N_10 
REMARK    4  A    between atoms: N_10  and  C_11 
REMARK    5  A    between atoms: C_11  and  C_13 
REMARK       I    between atoms: C_13  and  N_15 
REMARK    6  A    between atoms: N_15  and  C_16 
ROOT
HETATM    1  C   UNL     1     -42.063 -49.200  11.712  1.00  0.00     0.224 C 
HETATM    2  O   UNL     1     -42.768 -48.716  12.596  1.00  0.00    -0.273 OA
HETATM    3  N   UNL     1     -41.692 -50.523  11.707  1.00  0.00    -0.348 N 
HETATM    4  H   UNL     1     -40.959 -50.828  11.066  1.00  0.00     0.163 HD
ENDROOT
BRANCH   3   5
HETATM    5  C   UNL     1     -42.077 -51.449  12.768  1.00  0.00     0.172 C 
HETATM    6  C   UNL     1     -43.124 -52.435  12.260  1.00  0.00     0.042 C 
BRANCH   5   7
HETATM    7  C   UNL     1     -40.822 -52.186  13.274  1.00  0.00     0.240 C 
HETATM    8  O   UNL     1     -39.719 -52.014  12.756  1.00  0.00    -0.271 OA
HETATM    9  N   UNL     1     -41.043 -53.038  14.342  1.00  0.00    -0.351 N 
HETATM   10  H   UNL     1     -41.959 -53.022  14.773  1.00  0.00     0.163 HD
BRANCH   9  11
HETATM   11  C   UNL     1     -39.991 -53.812  15.021  1.00  0.00     0.022 C 
HETATM   12  C   UNL     1     -39.028 -52.876  15.768  1.00  0.00     0.037 C 
HETATM   13  C   UNL     1     -40.659 -54.743  16.052  1.00  0.00     0.037 C 
HETATM   14  C   UNL     1     -39.218 -54.689  14.023  1.00  0.00     0.037 C 
ENDBRANCH   9  11
ENDBRANCH   5   7
ENDBRANCH   3   5
BRANCH   1  15
HETATM   15  C   UNL     1     -41.632 -48.395  10.503  1.00  0.00     0.160 C 
BRANCH  15  16
HETATM   16  C   UNL     1     -42.722 -47.536   9.956  1.00  0.00     0.025 A 
HETATM   17  N   UNL     1     -43.992 -48.078   9.814  1.00  0.00    -0.356 N 
HETATM   18  C   UNL     1     -44.833 -47.160   9.380  1.00  0.00     0.050 A 
ATOM     19  HN  UNL     1     -44.240 -49.047  10.017  1.00  0.00     0.166 HD
HETATM   20  S   UNL     1     -44.145 -45.610   9.095  1.00  0.00    -0.087 SA
HETATM   21  C   UNL     1     -42.624 -46.202   9.610  1.00  0.00     0.077 A 
BRANCH  18  22
HETATM   22  C   UNL     1     -46.296 -47.390   9.160  1.00  0.00     0.060 C 
HETATM   23  C   UNL     1     -46.559 -48.692   8.420  1.00  0.00     0.012 C 
ENDBRANCH  18  22
ENDBRANCH  15  16
ENDBRANCH   1  15
TORSDOF 6
ENDMDL
MODEL 5
REMARK VINA RESULT:      -5.6      1.852      2.544
REMARK  6 active torsions:
REMARK  status: ('A' for Active; 'I' for Inactive)
REMARK    1  A    between atoms: C_2  and  C_3 
REMARK    2  A    between atoms: C_6  and  C_7 
REMARK    3  A    between atoms: C_7  and  C_8 
REMARK       I    between atoms: C_8  and  N_10 
REMARK    4  A    between atoms: N_10  and  C_11 
REMARK    5  A    between atoms: C_11  and  C_13 
REMARK       I    between atoms: C_13  and  N_15 
REMARK    6  A    between atoms: N_15  and  C_16 
ROOT
HETATM    1  C   UNL     1     -40.626 -51.579  12.601  1.00  0.00     0.224 C 
HETATM    2  O   UNL     1     -40.729 -51.315  13.799  1.00  0.00    -0.273 OA
HETATM    3  N   UNL     1     -39.725 -50.944  11.782  1.00  0.00    -0.348 N 
HETATM    4  H   UNL     1     -39.810 -51.060  10.771  1.00  0.00     0.163 HD
ENDROOT
BRANCH   3   5
HETATM    5  C   UNL     1     -38.844 -49.883  12.260  1.00  0.00     0.172 C 
HETATM    6  C   UNL     1     -37.594 -49.797  11.389  1.00  0.00     0.042 C 
BRANCH   5   7
HETATM    7  C   UNL     1     -39.614 -48.548  12.255  1.00  0.00     0.240 C 
HETATM    8  O   UNL     1     -39.421 -47.688  13.114  1.00  0.00    -0.271 OA
HETATM    9  N   UNL     1     -40.520 -48.406  11.219  1.00  0.00    -0.351 N 
HETATM   10  H   UNL     1     -40.522 -49.117  10.497  1.00  0.00     0.163 HD
BRANCH   9  11
HETATM   11  C   UNL     1     -41.335 -47.204  10.982  1.00  0.00     0.022 C 
HETATM   12  C   UNL     1     -40.444 -46.017  10.579  1.00  0.00     0.037 C 
HETATM   13  C   UNL     1     -42.309 -47.494   9.824  1.00  0.00     0.037 C 
HETATM   14  C   UNL     1     -42.169 -46.848  12.225  1.00  0.00     0.037 C 
ENDBRANCH   9  11
ENDBRANCH   5   7
ENDBRANCH   3   5
BRANCH   1  15
HETATM   15  C   UNL     1     -41.418 -52.701  11.960  1.00  0.00     0.160 C 
BRANCH  15  16
HETATM   16  C   UNL     1     -42.751 -52.910  12.594  1.00  0.00     0.025 A 
HETATM   17  N   UNL     1     -43.679 -51.878  12.555  1.00  0.00    -0.356 N 
HETATM   18  C   UNL     1     -44.813 -52.264  13.105  1.00  0.00     0.050 A 
ATOM     19  HN  UNL     1     -43.507 -50.953  12.158  1.00  0.00     0.166 HD
HETATM   20  S   UNL     1     -44.823 -53.870  13.718  1.00  0.00    -0.087 SA
HETATM   21  C   UNL     1     -43.206 -54.070  13.191  1.00  0.00     0.077 A 
BRANCH  18  22
HETATM   22  C   UNL     1     -46.043 -51.414  13.191  1.00  0.00     0.060 C 
HETATM   23  C   UNL     1     -46.640 -51.422  14.589  1.00  0.00     0.012 C 
ENDBRANCH  18  22
ENDBRANCH  15  16
ENDBRANCH   1  15
TORSDOF 6
ENDMDL
MODEL 6
REMARK VINA RESULT:      -5.3      3.861      5.857
REMARK  6 active torsions:
REMARK  status: ('A' for Active; 'I' for Inactive)
REMARK    1  A    between atoms: C_2  and  C_3 
REMARK    2  A    between atoms: C_6  and  C_7 
REMARK    3  A    between atoms: C_7  and  C_8 
REMARK       I    between atoms: C_8  and  N_10 
REMARK    4  A    between atoms: N_10  and  C_11 
REMARK    5  A    between atoms: C_11  and  C_13 
REMARK       I    between atoms: C_13  and  N_15 
REMARK    6  A    between atoms: N_15  and  C_16 
ROOT
HETATM    1  C   UNL     1     -40.244 -52.068  12.433  1.00  0.00     0.224 C 
HETATM    2  O   UNL     1     -39.728 -52.920  13.155  1.00  0.00    -0.273 OA
HETATM    3  N   UNL     1     -39.557 -50.964  11.990  1.00  0.00    -0.348 N 
HETATM    4  H   UNL     1     -40.077 -50.198  11.559  1.00  0.00     0.163 HD
ENDROOT
BRANCH   3   5
HETATM    5  C   UNL     1     -38.173 -50.698  12.371  1.00  0.00     0.172 C 
HETATM    6  C   UNL     1     -37.437 -49.987  11.238  1.00  0.00     0.042 C 
BRANCH   5   7
HETATM    7  C   UNL     1     -38.157 -49.850  13.658  1.00  0.00     0.240 C 
HETATM    8  O   UNL     1     -39.035 -49.019  13.894  1.00  0.00    -0.271 OA
HETATM    9  N   UNL     1     -37.094 -50.103  14.505  1.00  0.00    -0.351 N 
HETATM   10  H   UNL     1     -36.491 -50.886  14.281  1.00  0.00     0.163 HD
BRANCH   9  11
HETATM   11  C   UNL     1     -36.893 -49.451  15.810  1.00  0.00     0.022 C 
HETATM   12  C   UNL     1     -38.081 -49.734  16.744  1.00  0.00     0.037 C 
HETATM   13  C   UNL     1     -35.620 -50.032  16.455  1.00  0.00     0.037 C 
HETATM   14  C   UNL     1     -36.692 -47.936  15.645  1.00  0.00     0.037 C 
ENDBRANCH   9  11
ENDBRANCH   5   7
ENDBRANCH   3   5
BRANCH   1  15
HETATM   15  C   UNL     1     -41.650 -52.225  11.892  1.00  0.00     0.160 C 
BRANCH  15  16
HETATM   16  C   UNL     1     -42.689 -51.646  12.791  1.00  0.00     0.025 A 
HETATM   17  N   UNL     1     -44.026 -51.906  12.522  1.00  0.00    -0.356 N 
HETATM   18  C   UNL     1     -44.790 -51.369  13.453  1.00  0.00     0.050 A 
ATOM     19  HN  UNL     1     -44.368 -52.435  11.720  1.00  0.00     0.166 HD
HETATM   20  S   UNL     1     -43.955 -50.506  14.683  1.00  0.00    -0.087 SA
HETATM   21  C   UNL     1     -42.467 -50.897  13.931  1.00  0.00     0.077 A 
BRANCH  18  22
HETATM   22  C   UNL     1     -46.282 -51.495  13.497  1.00  0.00     0.060 C 
HETATM   23  C   UNL     1     -46.814 -51.421  14.920  1.00  0.00     0.012 C 
ENDBRANCH  18  22
ENDBRANCH  15  16
ENDBRANCH   1  15
TORSDOF 6
ENDMDL
MODEL 7
REMARK VINA RESULT:      -5.2      2.888      6.447
REMARK  6 active torsions:
REMARK  status: ('A' for Active; 'I' for Inactive)
REMARK    1  A    between atoms: C_2  and  C_3 
REMARK    2  A    between atoms: C_6  and  C_7 
REMARK    3  A    between atoms: C_7  and  C_8 
REMARK       I    between atoms: C_8  and  N_10 
REMARK    4  A    between atoms: N_10  and  C_11 
REMARK    5  A    between atoms: C_11  and  C_13 
REMARK       I    between atoms: C_13  and  N_15 
REMARK    6  A    between atoms: N_15  and  C_16 
ROOT
HETATM    1  C   UNL     1     -41.767 -52.569  12.817  1.00  0.00     0.224 C 
HETATM    2  O   UNL     1     -42.300 -51.746  13.561  1.00  0.00    -0.273 OA
HETATM    3  N   UNL     1     -42.044 -53.913  12.887  1.00  0.00    -0.348 N 
HETATM    4  H   UNL     1     -41.442 -54.568  12.386  1.00  0.00     0.163 HD
ENDROOT
BRANCH   3   5
HETATM    5  C   UNL     1     -42.965 -54.473  13.872  1.00  0.00     0.172 C 
HETATM    6  C   UNL     1     -42.502 -54.134  15.286  1.00  0.00     0.042 C 
BRANCH   5   7
HETATM    7  C   UNL     1     -44.381 -53.924  13.608  1.00  0.00     0.240 C 
HETATM    8  O   UNL     1     -45.079 -54.354  12.690  1.00  0.00    -0.271 OA
HETATM    9  N   UNL     1     -44.787 -52.928  14.478  1.00  0.00    -0.351 N 
HETATM   10  H   UNL     1     -44.190 -52.726  15.271  1.00  0.00     0.163 HD
BRANCH   9  11
HETATM   11  C   UNL     1     -46.111 -52.286  14.451  1.00  0.00     0.022 C 
HETATM   12  C   UNL     1     -47.217 -53.314  14.742  1.00  0.00     0.037 C 
HETATM   13  C   UNL     1     -46.153 -51.204  15.548  1.00  0.00     0.037 C 
HETATM   14  C   UNL     1     -46.364 -51.598  13.098  1.00  0.00     0.037 C 
ENDBRANCH   9  11
ENDBRANCH   5   7
ENDBRANCH   3   5
BRANCH   1  15
HETATM   15  C   UNL     1     -40.839 -52.149  11.696  1.00  0.00     0.160 C 
BRANCH  15  16
HETATM   16  C   UNL     1     -40.589 -50.679  11.666  1.00  0.00     0.025 A 
HETATM   17  N   UNL     1     -41.568 -49.845  11.144  1.00  0.00    -0.356 N 
HETATM   18  C   UNL     1     -41.200 -48.584  11.258  1.00  0.00     0.050 A 
ATOM     19  HN  UNL     1     -42.446 -50.162  10.732  1.00  0.00     0.166 HD
HETATM   20  S   UNL     1     -39.656 -48.331  11.970  1.00  0.00    -0.087 SA
HETATM   21  C   UNL     1     -39.478 -50.023  12.160  1.00  0.00     0.077 A 
BRANCH  18  22
HETATM   22  C   UNL     1     -42.040 -47.418  10.838  1.00  0.00     0.060 C 
HETATM   23  C   UNL     1     -43.523 -47.687  11.038  1.00  0.00     0.012 C 
ENDBRANCH  18  22
ENDBRANCH  15  16
ENDBRANCH   1  15
TORSDOF 6
ENDMDL
MODEL 8
REMARK VINA RESULT:      -5.2      2.574      3.685
REMARK  6 active torsions:
REMARK  status: ('A' for Active; 'I' for Inactive)
REMARK    1  A    between atoms: C_2  and  C_3 
REMARK    2  A    between atoms: C_6  and  C_7 
REMARK    3  A    between atoms: C_7  and  C_8 
REMARK       I    between atoms: C_8  and  N_10 
REMARK    4  A    between atoms: N_10  and  C_11 
REMARK    5  A    between atoms: C_11  and  C_13 
REMARK       I    between atoms: C_13  and  N_15 
REMARK    6  A    between atoms: N_15  and  C_16 
ROOT
HETATM    1  C   UNL     1     -40.234 -51.838  12.670  1.00  0.00     0.224 C 
HETATM    2  O   UNL     1     -40.108 -51.713  13.888  1.00  0.00    -0.273 OA
HETATM    3  N   UNL     1     -39.573 -51.033  11.774  1.00  0.00    -0.348 N 
HETATM    4  H   UNL     1     -39.856 -51.050  10.793  1.00  0.00     0.163 HD
ENDROOT
BRANCH   3   5
HETATM    5  C   UNL     1     -38.697 -49.945  12.197  1.00  0.00     0.172 C 
HETATM    6  C   UNL     1     -37.481 -49.854  11.279  1.00  0.00     0.042 C 
BRANCH   5   7
HETATM    7  C   UNL     1     -39.494 -48.625  12.193  1.00  0.00     0.240 C 
HETATM    8  O   UNL     1     -39.230 -47.710  12.972  1.00  0.00    -0.271 OA
HETATM    9  N   UNL     1     -40.507 -48.565  11.253  1.00  0.00    -0.351 N 
HETATM   10  H   UNL     1     -40.569 -49.319  10.580  1.00  0.00     0.163 HD
BRANCH   9  11
HETATM   11  C   UNL     1     -41.369 -47.393  11.031  1.00  0.00     0.022 C 
HETATM   12  C   UNL     1     -40.528 -46.171  10.628  1.00  0.00     0.037 C 
HETATM   13  C   UNL     1     -42.343 -47.713   9.880  1.00  0.00     0.037 C 
HETATM   14  C   UNL     1     -42.205 -47.076  12.283  1.00  0.00     0.037 C 
ENDBRANCH   9  11
ENDBRANCH   5   7
ENDBRANCH   3   5
BRANCH   1  15
HETATM   15  C   UNL     1     -41.053 -52.960  12.063  1.00  0.00     0.160 C 
BRANCH  15  16
HETATM   16  C   UNL     1     -42.000 -53.581  13.033  1.00  0.00     0.025 A 
HETATM   17  N   UNL     1     -41.486 -54.320  14.089  1.00  0.00    -0.356 N 
HETATM   18  C   UNL     1     -42.463 -54.735  14.872  1.00  0.00     0.050 A 
ATOM     19  HN  UNL     1     -40.496 -54.515  14.238  1.00  0.00     0.166 HD
HETATM   20  S   UNL     1     -44.045 -54.285  14.374  1.00  0.00    -0.087 SA
HETATM   21  C   UNL     1     -43.377 -53.459  13.032  1.00  0.00     0.077 A 
BRANCH  18  22
HETATM   22  C   UNL     1     -42.261 -55.521  16.130  1.00  0.00     0.060 C 
HETATM   23  C   UNL     1     -40.786 -55.695  16.458  1.00  0.00     0.012 C 
ENDBRANCH  18  22
ENDBRANCH  15  16
ENDBRANCH   1  15
TORSDOF 6
ENDMDL
MODEL 9
REMARK VINA RESULT:      -5.2      4.409      6.930
REMARK  6 active torsions:
REMARK  status: ('A' for Active; 'I' for Inactive)
REMARK    1  A    between atoms: C_2  and  C_3 
REMARK    2  A    between atoms: C_6  and  C_7 
REMARK    3  A    between atoms: C_7  and  C_8 
REMARK       I    between atoms: C_8  and  N_10 
REMARK    4  A    between atoms: N_10  and  C_11 
REMARK    5  A    between atoms: C_11  and  C_13 
REMARK       I    between atoms: C_13  and  N_15 
REMARK    6  A    between atoms: N_15  and  C_16 
ROOT
HETATM    1  C   UNL     1     -40.027 -53.561  14.394  1.00  0.00     0.224 C 
HETATM    2  O   UNL     1     -39.706 -53.933  13.266  1.00  0.00    -0.273 OA
HETATM    3  N   UNL     1     -41.293 -53.742  14.896  1.00  0.00    -0.348 N 
HETATM    4  H   UNL     1     -41.560 -53.251  15.751  1.00  0.00     0.163 HD
ENDROOT
BRANCH   3   5
HETATM    5  C   UNL     1     -42.364 -54.356  14.118  1.00  0.00     0.172 C 
HETATM    6  C   UNL     1     -43.241 -55.227  15.013  1.00  0.00     0.042 C 
BRANCH   5   7
HETATM    7  C   UNL     1     -43.195 -53.248  13.440  1.00  0.00     0.240 C 
HETATM    8  O   UNL     1     -42.888 -52.795  12.338  1.00  0.00    -0.271 OA
HETATM    9  N   UNL     1     -44.292 -52.822  14.167  1.00  0.00    -0.351 N 
HETATM   10  H   UNL     1     -44.529 -53.338  15.006  1.00  0.00     0.163 HD
BRANCH   9  11
HETATM   11  C   UNL     1     -45.256 -51.810  13.704  1.00  0.00     0.022 C 
HETATM   12  C   UNL     1     -44.525 -50.545  13.226  1.00  0.00     0.037 C 
HETATM   13  C   UNL     1     -46.045 -52.393  12.516  1.00  0.00     0.037 C 
HETATM   14  C   UNL     1     -46.262 -51.459  14.813  1.00  0.00     0.037 C 
ENDBRANCH   9  11
ENDBRANCH   5   7
ENDBRANCH   3   5
BRANCH   1  15
HETATM   15  C   UNL     1     -39.019 -52.966  15.357  1.00  0.00     0.160 C 
BRANCH  15  16
HETATM   16  C   UNL     1     -38.599 -51.586  14.981  1.00  0.00     0.025 A 
HETATM   17  N   UNL     1     -38.575 -51.237  13.638  1.00  0.00    -0.356 N 
HETATM   18  C   UNL     1     -38.241 -49.969  13.503  1.00  0.00     0.050 A 
ATOM     19  HN  UNL     1     -38.784 -51.871  12.866  1.00  0.00     0.166 HD
HETATM   20  S   UNL     1     -37.916 -49.134  14.970  1.00  0.00    -0.087 SA
HETATM   21  C   UNL     1     -38.267 -50.562  15.847  1.00  0.00     0.077 A 
BRANCH  18  22
HETATM   22  C   UNL     1     -38.164 -49.250  12.191  1.00  0.00     0.060 C 
HETATM   23  C   UNL     1     -37.347 -50.025  11.169  1.00  0.00     0.012 C 
ENDBRANCH  18  22
ENDBRANCH  15  16
ENDBRANCH   1  15
TORSDOF 6
ENDMDL
