MODEL 1
REMARK VINA RESULT:      -5.0      0.000      0.000
REMARK  4 active torsions:
REMARK  status: ('A' for Active; 'I' for Inactive)
REMARK    1  A    between atoms: C_2  and  C_3 
REMARK    2  A    between atoms: C_2  and  N_10 
REMARK    3  A    between atoms: C_3  and  N_4 
REMARK       I    between atoms: N_10  and  C_11 
REMARK    4  A    between atoms: C_11  and  C_13 
ROOT
HETATM    1  C   UNL     1     -41.472 -47.087  11.734  1.00  0.00     0.034 C 
HETATM    2  C   UNL     1     -42.445 -48.066  11.078  1.00  0.00     0.098 C 
ENDROOT
BRANCH   2   3
HETATM    3  C   UNL     1     -42.719 -47.715   9.601  1.00  0.00     0.153 C 
BRANCH   3   4
HETATM    4  N   UNL     1     -44.047 -47.192   9.348  1.00  0.00    -0.350 N 
HETATM    5  C   UNL     1     -45.230 -47.851   9.546  1.00  0.00     0.108 A 
HETATM    6  C   UNL     1     -46.202 -46.948   9.178  1.00  0.00     0.106 A 
HETATM    7  N   UNL     1     -45.641 -45.765   8.774  1.00  0.00    -0.361 N 
HETATM    8  C   UNL     1     -44.343 -45.935   8.903  1.00  0.00     0.182 A 
ATOM      9  HN  UNL     1     -46.127 -44.931   8.444  1.00  0.00     0.166 HD
ENDBRANCH   3   4
ENDBRANCH   2   3
BRANCH   2  10
HETATM   10  N   UNL     1     -41.928 -49.428  11.208  1.00  0.00    -0.353 N 
HETATM   11  C   UNL     1     -42.249 -50.241  12.278  1.00  0.00     0.247 C 
HETATM   12  O   UNL     1     -43.038 -49.903  13.155  1.00  0.00    -0.271 OA
HETATM   13  H   UNL     1     -41.228 -49.786  10.562  1.00  0.00     0.163 HD
BRANCH  11  14
HETATM   14  C   UNL     1     -41.598 -51.633  12.212  1.00  0.00     0.213 C 
HETATM   15  C   UNL     1     -42.588 -52.758  12.469  1.00  0.00     0.043 C 
HETATM   16  C   UNL     1     -41.812 -53.791  13.257  1.00  0.00     0.029 C 
HETATM   17  C   UNL     1     -40.417 -53.220  13.375  1.00  0.00     0.168 C 
HETATM   18  O   UNL     1     -40.535 -51.809  13.157  1.00  0.00    -0.376 OA
ENDBRANCH  11  14
ENDBRANCH   2  10
TORSDOF 4
ENDMDL
MODEL 2
REMARK VINA RESULT:      -4.8      2.182      6.480
REMARK  4 active torsions:
REMARK  status: ('A' for Active; 'I' for Inactive)
REMARK    1  A    between atoms: C_2  and  C_3 
REMARK    2  A    between atoms: C_2  and  N_10 
REMARK    3  A    between atoms: C_3  and  N_4 
REMARK       I    between atoms: N_10  and  C_11 
REMARK    4  A    between atoms: C_11  and  C_13 
ROOT
HETATM    1  C   UNL     1     -43.115 -48.885  14.259  1.00  0.00     0.034 C 
HETATM    2  C   UNL     1     -42.722 -49.676  13.012  1.00  0.00     0.098 C 
ENDROOT
BRANCH   2   3
HETATM    3  C   UNL     1     -43.339 -51.089  12.998  1.00  0.00     0.153 C 
BRANCH   3   4
HETATM    4  N   UNL     1     -42.385 -52.156  12.772  1.00  0.00    -0.350 N 
HETATM    5  C   UNL     1     -42.265 -53.306  13.504  1.00  0.00     0.108 A 
HETATM    6  C   UNL     1     -41.241 -54.001  12.903  1.00  0.00     0.106 A 
HETATM    7  N   UNL     1     -40.747 -53.311  11.828  1.00  0.00    -0.361 N 
HETATM    8  C   UNL     1     -41.467 -52.211  11.762  1.00  0.00     0.182 A 
ATOM      9  HN  UNL     1     -39.985 -53.589  11.209  1.00  0.00     0.166 HD
ENDBRANCH   3   4
ENDBRANCH   2   3
BRANCH   2  10
HETATM   10  N   UNL     1     -43.104 -48.923  11.817  1.00  0.00    -0.353 N 
HETATM   11  C   UNL     1     -42.170 -48.417  10.934  1.00  0.00     0.247 C 
HETATM   12  O   UNL     1     -40.966 -48.618  11.053  1.00  0.00    -0.271 OA
HETATM   13  H   UNL     1     -44.072 -48.658  11.652  1.00  0.00     0.163 HD
BRANCH  11  14
HETATM   14  C   UNL     1     -42.792 -47.662   9.745  1.00  0.00     0.213 C 
HETATM   15  C   UNL     1     -42.519 -46.167   9.791  1.00  0.00     0.043 C 
HETATM   16  C   UNL     1     -43.785 -45.521   9.272  1.00  0.00     0.029 C 
HETATM   17  C   UNL     1     -44.695 -46.678   8.924  1.00  0.00     0.168 C 
HETATM   18  O   UNL     1     -44.215 -47.808   9.660  1.00  0.00    -0.376 OA
ENDBRANCH  11  14
ENDBRANCH   2  10
TORSDOF 4
ENDMDL
MODEL 3
REMARK VINA RESULT:      -4.8      4.380      5.636
REMARK  4 active torsions:
REMARK  status: ('A' for Active; 'I' for Inactive)
REMARK    1  A    between atoms: C_2  and  C_3 
REMARK    2  A    between atoms: C_2  and  N_10 
REMARK    3  A    between atoms: C_3  and  N_4 
REMARK       I    between atoms: N_10  and  C_11 
REMARK    4  A    between atoms: C_11  and  C_13 
ROOT
HETATM    1  C   UNL     1     -41.984 -54.635  14.990  1.00  0.00     0.034 C 
HETATM    2  C   UNL     1     -42.373 -53.384  14.204  1.00  0.00     0.098 C 
ENDROOT
BRANCH   2   3
HETATM    3  C   UNL     1     -43.583 -52.657  14.824  1.00  0.00     0.153 C 
BRANCH   3   4
HETATM    4  N   UNL     1     -44.653 -52.372  13.888  1.00  0.00    -0.350 N 
HETATM    5  C   UNL     1     -45.687 -51.497  14.080  1.00  0.00     0.108 A 
HETATM    6  C   UNL     1     -46.425 -51.562  12.920  1.00  0.00     0.106 A 
HETATM    7  N   UNL     1     -45.861 -52.441  12.032  1.00  0.00    -0.361 N 
HETATM    8  C   UNL     1     -44.786 -52.901  12.636  1.00  0.00     0.182 A 
ATOM      9  HN  UNL     1     -46.202 -52.686  11.103  1.00  0.00     0.166 HD
ENDBRANCH   3   4
ENDBRANCH   2   3
BRANCH   2  10
HETATM   10  N   UNL     1     -41.218 -52.492  14.105  1.00  0.00    -0.353 N 
HETATM   11  C   UNL     1     -40.627 -52.180  12.896  1.00  0.00     0.247 C 
HETATM   12  O   UNL     1     -41.066 -52.575  11.820  1.00  0.00    -0.271 OA
HETATM   13  H   UNL     1     -40.746 -52.151  14.939  1.00  0.00     0.163 HD
BRANCH  11  14
HETATM   14  C   UNL     1     -39.429 -51.222  13.023  1.00  0.00     0.213 C 
HETATM   15  C   UNL     1     -39.370 -50.201  11.898  1.00  0.00     0.043 C 
HETATM   16  C   UNL     1     -37.896 -50.030  11.601  1.00  0.00     0.029 C 
HETATM   17  C   UNL     1     -37.194 -50.930  12.593  1.00  0.00     0.168 C 
HETATM   18  O   UNL     1     -38.162 -51.893  13.025  1.00  0.00    -0.376 OA
ENDBRANCH  11  14
ENDBRANCH   2  10
TORSDOF 4
ENDMDL
MODEL 4
REMARK VINA RESULT:      -4.7     13.643     16.065
REMARK  4 active torsions:
REMARK  status: ('A' for Active; 'I' for Inactive)
REMARK    1  A    between atoms: C_2  and  C_3 
REMARK    2  A    between atoms: C_2  and  N_10 
REMARK    3  A    between atoms: C_3  and  N_4 
REMARK       I    between atoms: N_10  and  C_11 
REMARK    4  A    between atoms: C_11  and  C_13 
ROOT
HETATM    1  C   UNL     1     -53.140 -54.223  -0.534  1.00  0.00     0.034 C 
HETATM    2  C   UNL     1     -51.792 -53.689  -1.018  1.00  0.00     0.098 C 
ENDROOT
BRANCH   2   3
HETATM    3  C   UNL     1     -51.534 -54.015  -2.503  1.00  0.00     0.153 C 
BRANCH   3   4
HETATM    4  N   UNL     1     -50.516 -55.022  -2.726  1.00  0.00    -0.350 N 
HETATM    5  C   UNL     1     -50.675 -56.203  -3.398  1.00  0.00     0.108 A 
HETATM    6  C   UNL     1     -49.438 -56.803  -3.355  1.00  0.00     0.106 A 
HETATM    7  N   UNL     1     -48.537 -56.016  -2.687  1.00  0.00    -0.361 N 
HETATM    8  C   UNL     1     -49.210 -54.942  -2.334  1.00  0.00     0.182 A 
ATOM      9  HN  UNL     1     -47.554 -56.220  -2.502  1.00  0.00     0.166 HD
ENDBRANCH   3   4
ENDBRANCH   2   3
BRANCH   2  10
HETATM   10  N   UNL     1     -51.724 -52.248  -0.776  1.00  0.00    -0.353 N 
HETATM   11  C   UNL     1     -50.618 -51.646  -0.208  1.00  0.00     0.247 C 
HETATM   12  O   UNL     1     -49.595 -52.264   0.071  1.00  0.00    -0.271 OA
HETATM   13  H   UNL     1     -52.535 -51.653  -0.925  1.00  0.00     0.163 HD
BRANCH  11  14
HETATM   14  C   UNL     1     -50.758 -50.122  -0.048  1.00  0.00     0.213 C 
HETATM   15  C   UNL     1     -50.125 -49.605   1.234  1.00  0.00     0.043 C 
HETATM   16  C   UNL     1     -51.043 -48.498   1.706  1.00  0.00     0.029 C 
HETATM   17  C   UNL     1     -52.127 -48.418   0.653  1.00  0.00     0.168 C 
HETATM   18  O   UNL     1     -52.120 -49.676  -0.032  1.00  0.00    -0.376 OA
ENDBRANCH  11  14
ENDBRANCH   2  10
TORSDOF 4
ENDMDL
MODEL 5
REMARK VINA RESULT:      -4.7      3.546      6.470
REMARK  4 active torsions:
REMARK  status: ('A' for Active; 'I' for Inactive)
REMARK    1  A    between atoms: C_2  and  C_3 
REMARK    2  A    between atoms: C_2  and  N_10 
REMARK    3  A    between atoms: C_3  and  N_4 
REMARK       I    between atoms: N_10  and  C_11 
REMARK    4  A    between atoms: C_11  and  C_13 
ROOT
HETATM    1  C   UNL     1     -40.804 -46.782  15.138  1.00  0.00     0.034 C 
HETATM    2  C   UNL     1     -40.504 -47.313  13.736  1.00  0.00     0.098 C 
ENDROOT
BRANCH   2   3
HETATM    3  C   UNL     1     -40.232 -48.831  13.733  1.00  0.00     0.153 C 
BRANCH   3   4
HETATM    4  N   UNL     1     -39.312 -49.271  12.703  1.00  0.00    -0.350 N 
HETATM    5  C   UNL     1     -37.946 -49.231  12.763  1.00  0.00     0.108 A 
HETATM    6  C   UNL     1     -37.524 -49.763  11.567  1.00  0.00     0.106 A 
HETATM    7  N   UNL     1     -38.593 -50.132  10.793  1.00  0.00    -0.361 N 
HETATM    8  C   UNL     1     -39.657 -49.839  11.509  1.00  0.00     0.182 A 
ATOM      9  HN  UNL     1     -38.569 -50.545   9.860  1.00  0.00     0.166 HD
ENDBRANCH   3   4
ENDBRANCH   2   3
BRANCH   2  10
HETATM   10  N   UNL     1     -41.609 -46.975  12.840  1.00  0.00    -0.353 N 
HETATM   11  C   UNL     1     -41.403 -46.503  11.558  1.00  0.00     0.247 C 
HETATM   12  O   UNL     1     -40.286 -46.398  11.061  1.00  0.00    -0.271 OA
HETATM   13  H   UNL     1     -42.572 -46.978  13.171  1.00  0.00     0.163 HD
BRANCH  11  14
HETATM   14  C   UNL     1     -42.705 -46.214  10.790  1.00  0.00     0.213 C 
HETATM   15  C   UNL     1     -43.632 -47.418  10.729  1.00  0.00     0.043 C 
HETATM   16  C   UNL     1     -44.260 -47.360   9.354  1.00  0.00     0.029 C 
HETATM   17  C   UNL     1     -43.690 -46.111   8.720  1.00  0.00     0.168 C 
HETATM   18  O   UNL     1     -42.486 -45.806   9.433  1.00  0.00    -0.376 OA
ENDBRANCH  11  14
ENDBRANCH   2  10
TORSDOF 4
ENDMDL
MODEL 6
REMARK VINA RESULT:      -4.7      3.351      6.305
REMARK  4 active torsions:
REMARK  status: ('A' for Active; 'I' for Inactive)
REMARK    1  A    between atoms: C_2  and  C_3 
REMARK    2  A    between atoms: C_2  and  N_10 
REMARK    3  A    between atoms: C_3  and  N_4 
REMARK       I    between atoms: N_10  and  C_11 
REMARK    4  A    between atoms: C_11  and  C_13 
ROOT
HETATM    1  C   UNL     1     -38.188 -49.612  11.578  1.00  0.00     0.034 C 
HETATM    2  C   UNL     1     -39.702 -49.402  11.557  1.00  0.00     0.098 C 
ENDROOT
BRANCH   2   3
HETATM    3  C   UNL     1     -40.381 -49.922  12.841  1.00  0.00     0.153 C 
BRANCH   3   4
HETATM    4  N   UNL     1     -41.430 -50.895  12.610  1.00  0.00    -0.350 N 
HETATM    5  C   UNL     1     -42.701 -50.854  13.115  1.00  0.00     0.108 A 
HETATM    6  C   UNL     1     -43.318 -51.975  12.609  1.00  0.00     0.106 A 
HETATM    7  N   UNL     1     -42.462 -52.684  11.809  1.00  0.00    -0.361 N 
HETATM    8  C   UNL     1     -41.337 -52.002  11.814  1.00  0.00     0.182 A 
ATOM      9  HN  UNL     1     -42.655 -53.556  11.315  1.00  0.00     0.166 HD
ENDBRANCH   3   4
ENDBRANCH   2   3
BRANCH   2  10
HETATM   10  N   UNL     1     -39.995 -47.985  11.344  1.00  0.00    -0.353 N 
HETATM   11  C   UNL     1     -41.165 -47.553  10.751  1.00  0.00     0.247 C 
HETATM   12  O   UNL     1     -42.065 -48.320  10.423  1.00  0.00    -0.271 OA
HETATM   13  H   UNL     1     -39.295 -47.271  11.535  1.00  0.00     0.163 HD
BRANCH  11  14
HETATM   14  C   UNL     1     -41.267 -46.023  10.629  1.00  0.00     0.213 C 
HETATM   15  C   UNL     1     -39.916 -45.359  10.412  1.00  0.00     0.043 C 
HETATM   16  C   UNL     1     -39.985 -44.065  11.194  1.00  0.00     0.029 C 
HETATM   17  C   UNL     1     -41.377 -44.042  11.784  1.00  0.00     0.168 C 
HETATM   18  O   UNL     1     -41.841 -45.397  11.784  1.00  0.00    -0.376 OA
ENDBRANCH  11  14
ENDBRANCH   2  10
TORSDOF 4
ENDMDL
MODEL 7
REMARK VINA RESULT:      -4.7      2.398      3.683
REMARK  4 active torsions:
REMARK  status: ('A' for Active; 'I' for Inactive)
REMARK    1  A    between atoms: C_2  and  C_3 
REMARK    2  A    between atoms: C_2  and  N_10 
REMARK    3  A    between atoms: C_3  and  N_4 
REMARK       I    between atoms: N_10  and  C_11 
REMARK    4  A    between atoms: C_11  and  C_13 
ROOT
HETATM    1  C   UNL     1     -44.600 -51.050  13.822  1.00  0.00     0.034 C 
HETATM    2  C   UNL     1     -43.284 -51.104  13.046  1.00  0.00     0.098 C 
ENDROOT
BRANCH   2   3
HETATM    3  C   UNL     1     -42.474 -49.799  13.179  1.00  0.00     0.153 C 
BRANCH   3   4
HETATM    4  N   UNL     1     -42.330 -49.056  11.943  1.00  0.00    -0.350 N 
HETATM    5  C   UNL     1     -43.210 -48.135  11.442  1.00  0.00     0.108 A 
HETATM    6  C   UNL     1     -42.636 -47.701  10.269  1.00  0.00     0.106 A 
HETATM    7  N   UNL     1     -41.435 -48.323  10.054  1.00  0.00    -0.361 N 
HETATM    8  C   UNL     1     -41.268 -49.122  11.086  1.00  0.00     0.182 A 
ATOM      9  HN  UNL     1     -40.804 -48.195   9.262  1.00  0.00     0.166 HD
ENDBRANCH   3   4
ENDBRANCH   2   3
BRANCH   2  10
HETATM   10  N   UNL     1     -42.502 -52.257  13.492  1.00  0.00    -0.353 N 
HETATM   11  C   UNL     1     -41.605 -52.906  12.666  1.00  0.00     0.247 C 
HETATM   12  O   UNL     1     -41.354 -52.523  11.528  1.00  0.00    -0.271 OA
HETATM   13  H   UNL     1     -42.671 -52.684  14.400  1.00  0.00     0.163 HD
BRANCH  11  14
HETATM   14  C   UNL     1     -40.890 -54.089  13.341  1.00  0.00     0.213 C 
HETATM   15  C   UNL     1     -41.409 -54.369  14.743  1.00  0.00     0.043 C 
HETATM   16  C   UNL     1     -40.188 -54.774  15.539  1.00  0.00     0.029 C 
HETATM   17  C   UNL     1     -39.049 -54.742  14.546  1.00  0.00     0.168 C 
HETATM   18  O   UNL     1     -39.475 -53.902  13.467  1.00  0.00    -0.376 OA
ENDBRANCH  11  14
ENDBRANCH   2  10
TORSDOF 4
ENDMDL
MODEL 8
REMARK VINA RESULT:      -4.6      2.138      2.510
REMARK  4 active torsions:
REMARK  status: ('A' for Active; 'I' for Inactive)
REMARK    1  A    between atoms: C_2  and  C_3 
REMARK    2  A    between atoms: C_2  and  N_10 
REMARK    3  A    between atoms: C_3  and  N_4 
REMARK       I    between atoms: N_10  and  C_11 
REMARK    4  A    between atoms: C_11  and  C_13 
ROOT
HETATM    1  C   UNL     1     -41.763 -46.047  12.297  1.00  0.00     0.034 C 
HETATM    2  C   UNL     1     -42.098 -47.148  11.292  1.00  0.00     0.098 C 
ENDROOT
BRANCH   2   3
HETATM    3  C   UNL     1     -42.409 -46.585   9.891  1.00  0.00     0.153 C 
BRANCH   3   4
HETATM    4  N   UNL     1     -43.553 -47.193   9.242  1.00  0.00    -0.350 N 
HETATM    5  C   UNL     1     -44.834 -47.229   9.721  1.00  0.00     0.108 A 
HETATM    6  C   UNL     1     -45.553 -47.895   8.755  1.00  0.00     0.106 A 
HETATM    7  N   UNL     1     -44.748 -48.252   7.706  1.00  0.00    -0.361 N 
HETATM    8  C   UNL     1     -43.552 -47.802   8.019  1.00  0.00     0.182 A 
ATOM      9  HN  UNL     1     -45.018 -48.759   6.863  1.00  0.00     0.166 HD
ENDBRANCH   3   4
ENDBRANCH   2   3
BRANCH   2  10
HETATM   10  N   UNL     1     -40.999 -48.112  11.240  1.00  0.00    -0.353 N 
HETATM   11  C   UNL     1     -41.119 -49.397  11.734  1.00  0.00     0.247 C 
HETATM   12  O   UNL     1     -42.170 -49.838  12.187  1.00  0.00    -0.271 OA
HETATM   13  H   UNL     1     -40.072 -47.832  10.930  1.00  0.00     0.163 HD
BRANCH  11  14
HETATM   14  C   UNL     1     -39.843 -50.241  11.573  1.00  0.00     0.213 C 
HETATM   15  C   UNL     1     -39.458 -50.973  12.850  1.00  0.00     0.043 C 
HETATM   16  C   UNL     1     -37.945 -50.932  12.883  1.00  0.00     0.029 C 
HETATM   17  C   UNL     1     -37.548 -50.216  11.612  1.00  0.00     0.168 C 
HETATM   18  O   UNL     1     -38.696 -49.471  11.190  1.00  0.00    -0.376 OA
ENDBRANCH  11  14
ENDBRANCH   2  10
TORSDOF 4
ENDMDL
MODEL 9
REMARK VINA RESULT:      -4.6      5.504      8.711
REMARK  4 active torsions:
REMARK  status: ('A' for Active; 'I' for Inactive)
REMARK    1  A    between atoms: C_2  and  C_3 
REMARK    2  A    between atoms: C_2  and  N_10 
REMARK    3  A    between atoms: C_3  and  N_4 
REMARK       I    between atoms: N_10  and  C_11 
REMARK    4  A    between atoms: C_11  and  C_13 
ROOT
HETATM    1  C   UNL     1     -41.027 -53.930  12.807  1.00  0.00     0.034 C 
HETATM    2  C   UNL     1     -41.869 -54.271  14.036  1.00  0.00     0.098 C 
ENDROOT
BRANCH   2   3
HETATM    3  C   UNL     1     -41.190 -53.830  15.349  1.00  0.00     0.153 C 
BRANCH   3   4
HETATM    4  N   UNL     1     -40.207 -54.766  15.857  1.00  0.00    -0.350 N 
HETATM    5  C   UNL     1     -38.848 -54.652  15.754  1.00  0.00     0.108 A 
HETATM    6  C   UNL     1     -38.350 -55.765  16.392  1.00  0.00     0.106 A 
HETATM    7  N   UNL     1     -39.367 -56.540  16.885  1.00  0.00    -0.361 N 
HETATM    8  C   UNL     1     -40.474 -55.905  16.563  1.00  0.00     0.182 A 
ATOM      9  HN  UNL     1     -39.284 -57.421  17.393  1.00  0.00     0.166 HD
ENDBRANCH   3   4
ENDBRANCH   2   3
BRANCH   2  10
HETATM   10  N   UNL     1     -43.195 -53.669  13.902  1.00  0.00    -0.353 N 
HETATM   11  C   UNL     1     -44.354 -54.362  14.192  1.00  0.00     0.247 C 
HETATM   12  O   UNL     1     -44.350 -55.503  14.643  1.00  0.00    -0.271 OA
HETATM   13  H   UNL     1     -43.312 -52.746  13.489  1.00  0.00     0.163 HD
BRANCH  11  14
HETATM   14  C   UNL     1     -45.635 -53.536  13.984  1.00  0.00     0.213 C 
HETATM   15  C   UNL     1     -45.690 -52.870  12.618  1.00  0.00     0.043 C 
HETATM   16  C   UNL     1     -46.339 -51.525  12.864  1.00  0.00     0.029 C 
HETATM   17  C   UNL     1     -46.653 -51.511  14.343  1.00  0.00     0.168 C 
HETATM   18  O   UNL     1     -45.801 -52.489  14.949  1.00  0.00    -0.376 OA
ENDBRANCH  11  14
ENDBRANCH   2  10
TORSDOF 4
ENDMDL
