MODEL 1
REMARK VINA RESULT:      -5.1      0.000      0.000
REMARK  7 active torsions:
REMARK  status: ('A' for Active; 'I' for Inactive)
REMARK    1  A    between atoms: C_2  and  C_3 
REMARK    2  A    between atoms: C_3  and  N_4 
REMARK    3  A    between atoms: C_5  and  N_6 
REMARK    4  A    between atoms: C_7  and  N_8 
REMARK    5  A    between atoms: N_8  and  C_9 
REMARK    6  A    between atoms: C_9  and  C_10 
REMARK    7  A    between atoms: C_10  and  O_11 
ROOT
HETATM    1  N   UNL     1     -43.315 -54.000  13.635  1.00  0.00    -0.288 N 
HETATM    2  C   UNL     1     -42.428 -53.360  12.773  1.00  0.00     0.111 A 
HETATM    3  C   UNL     1     -41.093 -53.401  13.001  1.00  0.00     0.116 A 
HETATM    4  C   UNL     1     -40.599 -54.196  14.171  1.00  0.00     0.274 A 
HETATM    5  O   UNL     1     -39.397 -54.280  14.420  1.00  0.00    -0.266 OA
HETATM    6  N   UNL     1     -41.543 -54.813  14.926  1.00  0.00    -0.274 N 
HETATM    7  C   UNL     1     -42.887 -54.765  14.714  1.00  0.00     0.330 A 
HETATM    8  O   UNL     1     -43.636 -55.381  15.470  1.00  0.00    -0.246 OA
HETATM    9  H   UNL     1     -41.226 -55.359  15.712  1.00  0.00     0.173 HD
ENDROOT
BRANCH   3  10
HETATM   10  N   UNL     1     -40.114 -52.765  12.192  1.00  0.00    -0.284 NA
HETATM   11  H   UNL     1     -39.246 -53.280  12.380  1.00  0.00     0.128 HD
BRANCH  10  12
HETATM   12  C   UNL     1     -39.793 -51.341  12.462  1.00  0.00     0.118 C 
BRANCH  12  13
HETATM   13  C   UNL     1     -38.411 -51.188  13.107  1.00  0.00     0.181 C 
BRANCH  13  14
HETATM   14  O   UNL     1     -37.402 -51.226  12.096  1.00  0.00    -0.395 OA
HETATM   15  C   UNL     1     -37.401 -50.058  11.292  1.00  0.00     0.201 C 
ENDBRANCH  13  14
ENDBRANCH  12  13
ENDBRANCH  10  12
ENDBRANCH   3  10
BRANCH   2  16
HETATM   16  N   UNL     1     -42.881 -52.661  11.654  1.00  0.00    -0.287 NA
HETATM   17  H   UNL     1     -43.880 -52.514  11.692  1.00  0.00     0.125 HD
HETATM   18  H   UNL     1     -42.417 -51.744  11.667  1.00  0.00     0.125 HD
ENDBRANCH   2  16
BRANCH   1  19
HETATM   19  C   UNL     1     -44.760 -53.940  13.400  1.00  0.00     0.135 C 
BRANCH  19  20
HETATM   20  C   UNL     1     -45.424 -52.767  14.121  1.00  0.00     0.016 C 
HETATM   21  C   UNL     1     -46.145 -51.857  13.140  1.00  0.00     0.006 C 
ENDBRANCH  19  20
ENDBRANCH   1  19
TORSDOF 7
ENDMDL
MODEL 2
REMARK VINA RESULT:      -5.1      2.509      3.767
REMARK  7 active torsions:
REMARK  status: ('A' for Active; 'I' for Inactive)
REMARK    1  A    between atoms: C_2  and  C_3 
REMARK    2  A    between atoms: C_3  and  N_4 
REMARK    3  A    between atoms: C_5  and  N_6 
REMARK    4  A    between atoms: C_7  and  N_8 
REMARK    5  A    between atoms: N_8  and  C_9 
REMARK    6  A    between atoms: C_9  and  C_10 
REMARK    7  A    between atoms: C_10  and  O_11 
ROOT
HETATM    1  N   UNL     1     -42.542 -51.730  12.815  1.00  0.00    -0.288 N 
HETATM    2  C   UNL     1     -41.347 -51.536  12.129  1.00  0.00     0.111 A 
HETATM    3  C   UNL     1     -41.047 -50.329  11.590  1.00  0.00     0.116 A 
HETATM    4  C   UNL     1     -42.012 -49.202  11.801  1.00  0.00     0.274 A 
HETATM    5  O   UNL     1     -41.788 -48.081  11.347  1.00  0.00    -0.266 OA
HETATM    6  N   UNL     1     -43.129 -49.487  12.516  1.00  0.00    -0.274 N 
HETATM    7  C   UNL     1     -43.445 -50.700  13.048  1.00  0.00     0.330 A 
HETATM    8  O   UNL     1     -44.489 -50.821  13.687  1.00  0.00    -0.246 OA
HETATM    9  H   UNL     1     -43.784 -48.737  12.674  1.00  0.00     0.173 HD
ENDROOT
BRANCH   3  10
HETATM   10  N   UNL     1     -39.865 -50.040  10.858  1.00  0.00    -0.284 NA
HETATM   11  H   UNL     1     -39.515 -50.956  10.556  1.00  0.00     0.128 HD
BRANCH  10  12
HETATM   12  C   UNL     1     -38.733 -49.399  11.571  1.00  0.00     0.118 C 
BRANCH  12  13
HETATM   13  C   UNL     1     -37.459 -50.248  11.480  1.00  0.00     0.181 C 
BRANCH  13  14
HETATM   14  O   UNL     1     -37.556 -51.358  12.375  1.00  0.00    -0.395 OA
HETATM   15  C   UNL     1     -37.754 -50.950  13.719  1.00  0.00     0.201 C 
ENDBRANCH  13  14
ENDBRANCH  12  13
ENDBRANCH  10  12
ENDBRANCH   3  10
BRANCH   2  16
HETATM   16  N   UNL     1     -40.422 -52.570  11.973  1.00  0.00    -0.287 NA
HETATM   17  H   UNL     1     -39.960 -52.783  12.846  1.00  0.00     0.125 HD
HETATM   18  H   UNL     1     -40.950 -53.400  11.674  1.00  0.00     0.125 HD
ENDBRANCH   2  16
BRANCH   1  19
HETATM   19  C   UNL     1     -42.875 -53.041  13.380  1.00  0.00     0.135 C 
BRANCH  19  20
HETATM   20  C   UNL     1     -43.887 -53.808  12.530  1.00  0.00     0.016 C 
HETATM   21  C   UNL     1     -44.924 -54.499  13.401  1.00  0.00     0.006 C 
ENDBRANCH  19  20
ENDBRANCH   1  19
TORSDOF 7
ENDMDL
MODEL 3
REMARK VINA RESULT:      -4.8      2.192      5.313
REMARK  7 active torsions:
REMARK  status: ('A' for Active; 'I' for Inactive)
REMARK    1  A    between atoms: C_2  and  C_3 
REMARK    2  A    between atoms: C_3  and  N_4 
REMARK    3  A    between atoms: C_5  and  N_6 
REMARK    4  A    between atoms: C_7  and  N_8 
REMARK    5  A    between atoms: N_8  and  C_9 
REMARK    6  A    between atoms: C_9  and  C_10 
REMARK    7  A    between atoms: C_10  and  O_11 
ROOT
HETATM    1  N   UNL     1     -42.057 -54.016  13.596  1.00  0.00    -0.288 N 
HETATM    2  C   UNL     1     -43.117 -53.574  12.809  1.00  0.00     0.111 A 
HETATM    3  C   UNL     1     -44.395 -53.885  13.134  1.00  0.00     0.116 A 
HETATM    4  C   UNL     1     -44.635 -54.669  14.389  1.00  0.00     0.274 A 
HETATM    5  O   UNL     1     -45.774 -54.970  14.741  1.00  0.00    -0.266 OA
HETATM    6  N   UNL     1     -43.536 -55.017  15.105  1.00  0.00    -0.274 N 
HETATM    7  C   UNL     1     -42.248 -54.722  14.777  1.00  0.00     0.330 A 
HETATM    8  O   UNL     1     -41.341 -55.090  15.522  1.00  0.00    -0.246 OA
HETATM    9  H   UNL     1     -43.681 -55.537  15.956  1.00  0.00     0.173 HD
ENDROOT
BRANCH   3  10
HETATM   10  N   UNL     1     -45.538 -53.500  12.385  1.00  0.00    -0.284 NA
HETATM   11  H   UNL     1     -45.162 -53.141  11.501  1.00  0.00     0.128 HD
BRANCH  10  12
HETATM   12  C   UNL     1     -46.396 -52.412  12.917  1.00  0.00     0.118 C 
BRANCH  12  13
HETATM   13  C   UNL     1     -45.558 -51.237  13.436  1.00  0.00     0.181 C 
BRANCH  13  14
HETATM   14  O   UNL     1     -45.698 -51.137  14.855  1.00  0.00    -0.395 OA
HETATM   15  C   UNL     1     -46.989 -51.522  15.297  1.00  0.00     0.201 C 
ENDBRANCH  13  14
ENDBRANCH  12  13
ENDBRANCH  10  12
ENDBRANCH   3  10
BRANCH   2  16
HETATM   16  N   UNL     1     -42.901 -52.802  11.667  1.00  0.00    -0.287 NA
HETATM   17  H   UNL     1     -43.560 -53.033  10.937  1.00  0.00     0.125 HD
HETATM   18  H   UNL     1     -43.047 -51.822  11.938  1.00  0.00     0.125 HD
ENDBRANCH   2  16
BRANCH   1  19
HETATM   19  C   UNL     1     -40.673 -53.696  13.234  1.00  0.00     0.135 C 
BRANCH  19  20
HETATM   20  C   UNL     1     -40.182 -52.399  13.876  1.00  0.00     0.016 C 
HETATM   21  C   UNL     1     -39.711 -51.409  12.823  1.00  0.00     0.006 C 
ENDBRANCH  19  20
ENDBRANCH   1  19
TORSDOF 7
ENDMDL
MODEL 4
REMARK VINA RESULT:      -4.7      2.458      6.248
REMARK  7 active torsions:
REMARK  status: ('A' for Active; 'I' for Inactive)
REMARK    1  A    between atoms: C_2  and  C_3 
REMARK    2  A    between atoms: C_3  and  N_4 
REMARK    3  A    between atoms: C_5  and  N_6 
REMARK    4  A    between atoms: C_7  and  N_8 
REMARK    5  A    between atoms: N_8  and  C_9 
REMARK    6  A    between atoms: C_9  and  C_10 
REMARK    7  A    between atoms: C_10  and  O_11 
ROOT
HETATM    1  N   UNL     1     -40.569 -50.925  12.804  1.00  0.00    -0.288 N 
HETATM    2  C   UNL     1     -41.318 -51.986  12.303  1.00  0.00     0.111 A 
HETATM    3  C   UNL     1     -42.653 -52.055  12.525  1.00  0.00     0.116 A 
HETATM    4  C   UNL     1     -43.303 -50.934  13.277  1.00  0.00     0.274 A 
HETATM    5  O   UNL     1     -44.514 -50.935  13.498  1.00  0.00    -0.266 OA
HETATM    6  N   UNL     1     -42.491 -49.928  13.689  1.00  0.00    -0.274 N 
HETATM    7  C   UNL     1     -41.146 -49.859  13.483  1.00  0.00     0.330 A 
HETATM    8  O   UNL     1     -40.526 -48.882  13.902  1.00  0.00    -0.246 OA
HETATM    9  H   UNL     1     -42.914 -49.162  14.188  1.00  0.00     0.173 HD
ENDROOT
BRANCH   3  10
HETATM   10  N   UNL     1     -43.496 -53.105  12.073  1.00  0.00    -0.284 NA
HETATM   11  H   UNL     1     -44.411 -52.663  11.936  1.00  0.00     0.128 HD
BRANCH  10  12
HETATM   12  C   UNL     1     -43.744 -54.251  12.983  1.00  0.00     0.118 C 
BRANCH  12  13
HETATM   13  C   UNL     1     -45.233 -54.387  13.323  1.00  0.00     0.181 C 
BRANCH  13  14
HETATM   14  O   UNL     1     -45.378 -54.971  14.619  1.00  0.00    -0.395 OA
HETATM   15  C   UNL     1     -45.631 -54.001  15.622  1.00  0.00     0.201 C 
ENDBRANCH  13  14
ENDBRANCH  12  13
ENDBRANCH  10  12
ENDBRANCH   3  10
BRANCH   2  16
HETATM   16  N   UNL     1     -40.724 -53.007  11.560  1.00  0.00    -0.287 NA
HETATM   17  H   UNL     1     -39.812 -53.244  11.925  1.00  0.00     0.125 HD
HETATM   18  H   UNL     1     -41.332 -53.831  11.645  1.00  0.00     0.125 HD
ENDBRANCH   2  16
BRANCH   1  19
HETATM   19  C   UNL     1     -39.122 -50.860  12.581  1.00  0.00     0.135 C 
BRANCH  19  20
HETATM   20  C   UNL     1     -38.742 -49.889  11.463  1.00  0.00     0.016 C 
HETATM   21  C   UNL     1     -37.263 -49.990  11.128  1.00  0.00     0.006 C 
ENDBRANCH  19  20
ENDBRANCH   1  19
TORSDOF 7
ENDMDL
MODEL 5
REMARK VINA RESULT:      -4.7      2.602      4.082
REMARK  7 active torsions:
REMARK  status: ('A' for Active; 'I' for Inactive)
REMARK    1  A    between atoms: C_2  and  C_3 
REMARK    2  A    between atoms: C_3  and  N_4 
REMARK    3  A    between atoms: C_5  and  N_6 
REMARK    4  A    between atoms: C_7  and  N_8 
REMARK    5  A    between atoms: N_8  and  C_9 
REMARK    6  A    between atoms: C_9  and  C_10 
REMARK    7  A    between atoms: C_10  and  O_11 
ROOT
HETATM    1  N   UNL     1     -44.408 -54.281  13.585  1.00  0.00    -0.288 N 
HETATM    2  C   UNL     1     -43.206 -54.628  14.196  1.00  0.00     0.111 A 
HETATM    3  C   UNL     1     -42.029 -54.141  13.731  1.00  0.00     0.116 A 
HETATM    4  C   UNL     1     -42.066 -53.182  12.580  1.00  0.00     0.274 A 
HETATM    5  O   UNL     1     -41.032 -52.698  12.123  1.00  0.00    -0.266 OA
HETATM    6  N   UNL     1     -43.292 -52.880  12.082  1.00  0.00    -0.274 N 
HETATM    7  C   UNL     1     -44.477 -53.376  12.533  1.00  0.00     0.330 A 
HETATM    8  O   UNL     1     -45.522 -53.011  11.997  1.00  0.00    -0.246 OA
HETATM    9  H   UNL     1     -43.334 -52.230  11.313  1.00  0.00     0.173 HD
ENDROOT
BRANCH   3  10
HETATM   10  N   UNL     1     -40.754 -54.452  14.273  1.00  0.00    -0.284 NA
HETATM   11  H   UNL     1     -40.849 -55.408  14.633  1.00  0.00     0.128 HD
BRANCH  10  12
HETATM   12  C   UNL     1     -40.259 -53.647  15.417  1.00  0.00     0.118 C 
BRANCH  12  13
HETATM   13  C   UNL     1     -39.909 -54.533  16.619  1.00  0.00     0.181 C 
BRANCH  13  14
HETATM   14  O   UNL     1     -40.352 -55.870  16.375  1.00  0.00    -0.395 OA
HETATM   15  C   UNL     1     -39.668 -56.819  17.176  1.00  0.00     0.201 C 
ENDBRANCH  13  14
ENDBRANCH  12  13
ENDBRANCH  10  12
ENDBRANCH   3  10
BRANCH   2  16
HETATM   16  N   UNL     1     -43.171 -55.481  15.299  1.00  0.00    -0.287 NA
HETATM   17  H   UNL     1     -43.859 -55.215  15.991  1.00  0.00     0.125 HD
HETATM   18  H   UNL     1     -43.402 -56.422  14.957  1.00  0.00     0.125 HD
ENDBRANCH   2  16
BRANCH   1  19
HETATM   19  C   UNL     1     -45.678 -54.823  14.076  1.00  0.00     0.135 C 
BRANCH  19  20
HETATM   20  C   UNL     1     -46.162 -54.127  15.348  1.00  0.00     0.016 C 
HETATM   21  C   UNL     1     -47.014 -52.912  15.019  1.00  0.00     0.006 C 
ENDBRANCH  19  20
ENDBRANCH   1  19
TORSDOF 7
ENDMDL
MODEL 6
REMARK VINA RESULT:      -4.6      2.176      2.672
REMARK  7 active torsions:
REMARK  status: ('A' for Active; 'I' for Inactive)
REMARK    1  A    between atoms: C_2  and  C_3 
REMARK    2  A    between atoms: C_3  and  N_4 
REMARK    3  A    between atoms: C_5  and  N_6 
REMARK    4  A    between atoms: C_7  and  N_8 
REMARK    5  A    between atoms: N_8  and  C_9 
REMARK    6  A    between atoms: C_9  and  C_10 
REMARK    7  A    between atoms: C_10  and  O_11 
ROOT
HETATM    1  N   UNL     1     -45.386 -52.862  14.196  1.00  0.00    -0.288 N 
HETATM    2  C   UNL     1     -44.602 -52.228  13.236  1.00  0.00     0.111 A 
HETATM    3  C   UNL     1     -43.383 -52.717  12.905  1.00  0.00     0.116 A 
HETATM    4  C   UNL     1     -42.929 -53.986  13.561  1.00  0.00     0.274 A 
HETATM    5  O   UNL     1     -41.837 -54.485  13.292  1.00  0.00    -0.266 OA
HETATM    6  N   UNL     1     -43.783 -54.546  14.454  1.00  0.00    -0.274 N 
HETATM    7  C   UNL     1     -45.003 -54.052  14.804  1.00  0.00     0.330 A 
HETATM    8  O   UNL     1     -45.686 -54.666  15.622  1.00  0.00    -0.246 OA
HETATM    9  H   UNL     1     -43.496 -55.404  14.898  1.00  0.00     0.173 HD
ENDROOT
BRANCH   3  10
HETATM   10  N   UNL     1     -42.505 -52.131  11.956  1.00  0.00    -0.284 NA
HETATM   11  H   UNL     1     -42.024 -52.925  11.520  1.00  0.00     0.128 HD
BRANCH  10  12
HETATM   12  C   UNL     1     -41.425 -51.240  12.449  1.00  0.00     0.118 C 
BRANCH  12  13
HETATM   13  C   UNL     1     -41.522 -49.841  11.828  1.00  0.00     0.181 C 
BRANCH  13  14
HETATM   14  O   UNL     1     -40.411 -49.624  10.957  1.00  0.00    -0.395 OA
HETATM   15  C   UNL     1     -39.173 -49.644  11.648  1.00  0.00     0.201 C 
ENDBRANCH  13  14
ENDBRANCH  12  13
ENDBRANCH  10  12
ENDBRANCH   3  10
BRANCH   2  16
HETATM   16  N   UNL     1     -45.043 -51.074  12.586  1.00  0.00    -0.287 NA
HETATM   17  H   UNL     1     -44.789 -51.084  11.608  1.00  0.00     0.125 HD
HETATM   18  H   UNL     1     -46.068 -51.065  12.656  1.00  0.00     0.125 HD
ENDBRANCH   2  16
BRANCH   1  19
HETATM   19  C   UNL     1     -46.696 -52.322  14.568  1.00  0.00     0.135 C 
BRANCH  19  20
HETATM   20  C   UNL     1     -46.606 -51.271  15.674  1.00  0.00     0.016 C 
HETATM   21  C   UNL     1     -47.760 -51.407  16.655  1.00  0.00     0.006 C 
ENDBRANCH  19  20
ENDBRANCH   1  19
TORSDOF 7
ENDMDL
MODEL 7
REMARK VINA RESULT:      -4.6      2.708      4.151
REMARK  7 active torsions:
REMARK  status: ('A' for Active; 'I' for Inactive)
REMARK    1  A    between atoms: C_2  and  C_3 
REMARK    2  A    between atoms: C_3  and  N_4 
REMARK    3  A    between atoms: C_5  and  N_6 
REMARK    4  A    between atoms: C_7  and  N_8 
REMARK    5  A    between atoms: N_8  and  C_9 
REMARK    6  A    between atoms: C_9  and  C_10 
REMARK    7  A    between atoms: C_10  and  O_11 
ROOT
HETATM    1  N   UNL     1     -40.257 -52.845  13.238  1.00  0.00    -0.288 N 
HETATM    2  C   UNL     1     -40.468 -52.012  12.143  1.00  0.00     0.111 A 
HETATM    3  C   UNL     1     -39.829 -50.820  12.048  1.00  0.00     0.116 A 
HETATM    4  C   UNL     1     -38.853 -50.454  13.125  1.00  0.00     0.274 A 
HETATM    5  O   UNL     1     -38.234 -49.392  13.086  1.00  0.00    -0.266 OA
HETATM    6  N   UNL     1     -38.692 -51.354  14.128  1.00  0.00    -0.274 N 
HETATM    7  C   UNL     1     -39.341 -52.545  14.239  1.00  0.00     0.330 A 
HETATM    8  O   UNL     1     -39.094 -53.275  15.198  1.00  0.00    -0.246 OA
HETATM    9  H   UNL     1     -38.032 -51.126  14.855  1.00  0.00     0.173 HD
ENDROOT
BRANCH   3  10
HETATM   10  N   UNL     1     -39.994 -49.895  10.984  1.00  0.00    -0.284 NA
HETATM   11  H   UNL     1     -39.158 -49.302  11.022  1.00  0.00     0.128 HD
BRANCH  10  12
HETATM   12  C   UNL     1     -41.145 -48.959  11.034  1.00  0.00     0.118 C 
BRANCH  12  13
HETATM   13  C   UNL     1     -40.735 -47.594  11.600  1.00  0.00     0.181 C 
BRANCH  13  14
HETATM   14  O   UNL     1     -40.969 -46.579  10.622  1.00  0.00    -0.395 OA
HETATM   15  C   UNL     1     -39.897 -45.655  10.537  1.00  0.00     0.201 C 
ENDBRANCH  13  14
ENDBRANCH  12  13
ENDBRANCH  10  12
ENDBRANCH   3  10
BRANCH   2  16
HETATM   16  N   UNL     1     -41.339 -52.372  11.114  1.00  0.00    -0.287 NA
HETATM   17  H   UNL     1     -41.578 -53.352  11.161  1.00  0.00     0.125 HD
HETATM   18  H   UNL     1     -42.197 -51.821  11.242  1.00  0.00     0.125 HD
ENDBRANCH   2  16
BRANCH   1  19
HETATM   19  C   UNL     1     -40.963 -54.124  13.350  1.00  0.00     0.135 C 
BRANCH  19  20
HETATM   20  C   UNL     1     -42.329 -53.985  14.022  1.00  0.00     0.016 C 
HETATM   21  C   UNL     1     -42.448 -54.913  15.220  1.00  0.00     0.006 C 
ENDBRANCH  19  20
ENDBRANCH   1  19
TORSDOF 7
ENDMDL
MODEL 8
REMARK VINA RESULT:      -4.6      2.185      5.804
REMARK  7 active torsions:
REMARK  status: ('A' for Active; 'I' for Inactive)
REMARK    1  A    between atoms: C_2  and  C_3 
REMARK    2  A    between atoms: C_3  and  N_4 
REMARK    3  A    between atoms: C_5  and  N_6 
REMARK    4  A    between atoms: C_7  and  N_8 
REMARK    5  A    between atoms: N_8  and  C_9 
REMARK    6  A    between atoms: C_9  and  C_10 
REMARK    7  A    between atoms: C_10  and  O_11 
ROOT
HETATM    1  N   UNL     1     -39.332 -50.331  12.377  1.00  0.00    -0.288 N 
HETATM    2  C   UNL     1     -40.553 -50.775  11.877  1.00  0.00     0.111 A 
HETATM    3  C   UNL     1     -41.026 -52.003  12.200  1.00  0.00     0.116 A 
HETATM    4  C   UNL     1     -40.226 -52.843  13.148  1.00  0.00     0.274 A 
HETATM    5  O   UNL     1     -40.611 -53.961  13.487  1.00  0.00    -0.266 OA
HETATM    6  N   UNL     1     -39.069 -52.302  13.608  1.00  0.00    -0.274 N 
HETATM    7  C   UNL     1     -38.579 -51.075  13.277  1.00  0.00     0.330 A 
HETATM    8  O   UNL     1     -37.519 -50.699  13.776  1.00  0.00    -0.246 OA
HETATM    9  H   UNL     1     -38.524 -52.850  14.254  1.00  0.00     0.173 HD
ENDROOT
BRANCH   3  10
HETATM   10  N   UNL     1     -42.247 -52.551  11.725  1.00  0.00    -0.284 NA
HETATM   11  H   UNL     1     -42.492 -51.976  10.911  1.00  0.00     0.128 HD
BRANCH  10  12
HETATM   12  C   UNL     1     -43.435 -52.502  12.613  1.00  0.00     0.118 C 
BRANCH  12  13
HETATM   13  C   UNL     1     -44.100 -53.878  12.740  1.00  0.00     0.181 C 
BRANCH  13  14
HETATM   14  O   UNL     1     -45.501 -53.760  12.481  1.00  0.00    -0.395 OA
HETATM   15  C   UNL     1     -45.965 -52.428  12.628  1.00  0.00     0.201 C 
ENDBRANCH  13  14
ENDBRANCH  12  13
ENDBRANCH  10  12
ENDBRANCH   3  10
BRANCH   2  16
HETATM   16  N   UNL     1     -41.325 -49.976  11.033  1.00  0.00    -0.287 NA
HETATM   17  H   UNL     1     -40.793 -49.668  10.231  1.00  0.00     0.125 HD
HETATM   18  H   UNL     1     -42.104 -50.559  10.701  1.00  0.00     0.125 HD
ENDBRANCH   2  16
BRANCH   1  19
HETATM   19  C   UNL     1     -38.811 -49.011  12.013  1.00  0.00     0.135 C 
BRANCH  19  20
HETATM   20  C   UNL     1     -39.272 -47.912  12.970  1.00  0.00     0.016 C 
HETATM   21  C   UNL     1     -39.913 -46.759  12.214  1.00  0.00     0.006 C 
ENDBRANCH  19  20
ENDBRANCH   1  19
TORSDOF 7
ENDMDL
MODEL 9
REMARK VINA RESULT:      -4.5      1.923      2.575
REMARK  7 active torsions:
REMARK  status: ('A' for Active; 'I' for Inactive)
REMARK    1  A    between atoms: C_2  and  C_3 
REMARK    2  A    between atoms: C_3  and  N_4 
REMARK    3  A    between atoms: C_5  and  N_6 
REMARK    4  A    between atoms: C_7  and  N_8 
REMARK    5  A    between atoms: N_8  and  C_9 
REMARK    6  A    between atoms: C_9  and  C_10 
REMARK    7  A    between atoms: C_10  and  O_11 
ROOT
HETATM    1  N   UNL     1     -43.154 -54.044  13.594  1.00  0.00    -0.288 N 
HETATM    2  C   UNL     1     -41.806 -53.937  13.926  1.00  0.00     0.111 A 
HETATM    3  C   UNL     1     -40.970 -53.174  13.181  1.00  0.00     0.116 A 
HETATM    4  C   UNL     1     -41.547 -52.410  12.029  1.00  0.00     0.274 A 
HETATM    5  O   UNL     1     -40.839 -51.692  11.324  1.00  0.00    -0.266 OA
HETATM    6  N   UNL     1     -42.879 -52.553  11.814  1.00  0.00    -0.274 N 
HETATM    7  C   UNL     1     -43.724 -53.330  12.547  1.00  0.00     0.330 A 
HETATM    8  O   UNL     1     -44.917 -53.362  12.251  1.00  0.00    -0.246 OA
HETATM    9  H   UNL     1     -43.285 -52.039  11.047  1.00  0.00     0.173 HD
ENDROOT
BRANCH   3  10
HETATM   10  N   UNL     1     -39.580 -53.019  13.428  1.00  0.00    -0.284 NA
HETATM   11  H   UNL     1     -39.330 -53.816  14.023  1.00  0.00     0.128 HD
BRANCH  10  12
HETATM   12  C   UNL     1     -39.124 -51.816  14.168  1.00  0.00     0.118 C 
BRANCH  12  13
HETATM   13  C   UNL     1     -37.919 -51.158  13.486  1.00  0.00     0.181 C 
BRANCH  13  14
HETATM   14  O   UNL     1     -38.358 -50.043  12.708  1.00  0.00    -0.395 OA
HETATM   15  C   UNL     1     -37.594 -49.878  11.524  1.00  0.00     0.201 C 
ENDBRANCH  13  14
ENDBRANCH  12  13
ENDBRANCH  10  12
ENDBRANCH   3  10
BRANCH   2  16
HETATM   16  N   UNL     1     -41.275 -54.607  15.029  1.00  0.00    -0.287 NA
HETATM   17  H   UNL     1     -40.546 -55.249  14.752  1.00  0.00     0.125 HD
HETATM   18  H   UNL     1     -40.863 -53.892  15.642  1.00  0.00     0.125 HD
ENDBRANCH   2  16
BRANCH   1  19
HETATM   19  C   UNL     1     -44.055 -54.884  14.388  1.00  0.00     0.135 C 
BRANCH  19  20
HETATM   20  C   UNL     1     -44.709 -54.121  15.540  1.00  0.00     0.016 C 
HETATM   21  C   UNL     1     -46.223 -54.117  15.405  1.00  0.00     0.006 C 
ENDBRANCH  19  20
ENDBRANCH   1  19
TORSDOF 7
ENDMDL
