MODEL 1
REMARK VINA RESULT:      -6.7      0.000      0.000
REMARK  4 active torsions:
REMARK  status: ('A' for Active; 'I' for Inactive)
REMARK       I    between atoms: N_1  and  C_2 
REMARK    1  A    between atoms: C_2  and  C_4 
REMARK       I    between atoms: N_7  and  C_10 
REMARK       I    between atoms: C_10  and  N_12 
REMARK    2  A    between atoms: N_12  and  C_13 
REMARK    3  A    between atoms: C_13  and  C_14 
REMARK    4  A    between atoms: C_14  and  C_15 
ROOT
HETATM    1  C   UNL     1     -44.456 -53.637  14.880  1.00  0.00     0.081 C 
HETATM    2  C   UNL     1     -44.606 -52.162  14.477  1.00  0.00     0.034 C 
HETATM    3  C   UNL     1     -44.237 -51.915  13.015  1.00  0.00     0.128 C 
HETATM    4  N   UNL     1     -42.898 -52.429  12.730  1.00  0.00    -0.334 N 
HETATM    5  C   UNL     1     -42.717 -53.848  13.023  1.00  0.00     0.128 C 
HETATM    6  C   UNL     1     -43.080 -54.177  14.473  1.00  0.00     0.034 C 
HETATM    7  C   UNL     1     -41.825 -51.704  12.230  1.00  0.00     0.318 C 
HETATM    8  O   UNL     1     -40.690 -52.166  12.140  1.00  0.00    -0.247 OA
HETATM    9  N   UNL     1     -42.112 -50.416  11.846  1.00  0.00    -0.343 N 
HETATM   10  H   UNL     1     -43.016 -50.329  11.407  1.00  0.00     0.164 HD
ENDROOT
BRANCH   9  11
HETATM   11  C   UNL     1     -41.061 -49.582  11.263  1.00  0.00     0.130 C 
BRANCH  11  12
HETATM   12  C   UNL     1     -41.486 -48.117  11.183  1.00  0.00     0.076 C 
BRANCH  12  13
HETATM   13  C   UNL     1     -42.642 -47.884  10.244  1.00  0.00     0.010 A 
HETATM   14  C   UNL     1     -43.915 -47.604  10.736  1.00  0.00     0.025 A 
HETATM   15  C   UNL     1     -44.970 -47.460   9.838  1.00  0.00     0.003 A 
HETATM   16  C   UNL     1     -44.730 -47.590   8.476  1.00  0.00     0.017 A 
HETATM   17  C   UNL     1     -43.433 -47.853   8.067  1.00  0.00     0.088 A 
HETATM   18  N   UNL     1     -42.390 -48.002   8.916  1.00  0.00    -0.369 N 
ATOM     19  HN  UNL     1     -41.450 -48.195   8.571  1.00  0.00     0.165 HD
ENDBRANCH  12  13
ENDBRANCH  11  12
ENDBRANCH   9  11
BRANCH   1  20
HETATM   20  C   UNL     1     -45.611 -54.478  14.349  1.00  0.00     0.219 C 
HETATM   21  N   UNL     1     -46.827 -53.862  14.327  1.00  0.00    -0.370 N 
HETATM   22  H   UNL     1     -47.582 -54.369  13.882  1.00  0.00     0.159 HD
HETATM   23  H   UNL     1     -46.930 -52.862  14.434  1.00  0.00     0.159 HD
HETATM   24  O   UNL     1     -45.495 -55.622  13.924  1.00  0.00    -0.273 OA
ENDBRANCH   1  20
TORSDOF 4
ENDMDL
MODEL 2
REMARK VINA RESULT:      -6.4      2.069      2.360
REMARK  4 active torsions:
REMARK  status: ('A' for Active; 'I' for Inactive)
REMARK       I    between atoms: N_1  and  C_2 
REMARK    1  A    between atoms: C_2  and  C_4 
REMARK       I    between atoms: N_7  and  C_10 
REMARK       I    between atoms: C_10  and  N_12 
REMARK    2  A    between atoms: N_12  and  C_13 
REMARK    3  A    between atoms: C_13  and  C_14 
REMARK    4  A    between atoms: C_14  and  C_15 
ROOT
HETATM    1  C   UNL     1     -46.651 -51.845  14.973  1.00  0.00     0.081 C 
HETATM    2  C   UNL     1     -46.390 -51.546  13.488  1.00  0.00     0.034 C 
HETATM    3  C   UNL     1     -44.905 -51.597  13.134  1.00  0.00     0.128 C 
HETATM    4  N   UNL     1     -44.137 -50.717  14.014  1.00  0.00    -0.334 N 
HETATM    5  C   UNL     1     -44.286 -51.003  15.439  1.00  0.00     0.128 C 
HETATM    6  C   UNL     1     -45.754 -50.982  15.870  1.00  0.00     0.034 C 
HETATM    7  C   UNL     1     -43.316 -49.669  13.622  1.00  0.00     0.318 C 
HETATM    8  O   UNL     1     -42.805 -48.885  14.418  1.00  0.00    -0.247 OA
HETATM    9  N   UNL     1     -43.114 -49.554  12.267  1.00  0.00    -0.343 N 
HETATM   10  H   UNL     1     -43.033 -50.447  11.804  1.00  0.00     0.164 HD
ENDROOT
BRANCH   9  11
HETATM   11  C   UNL     1     -42.229 -48.511  11.751  1.00  0.00     0.130 C 
BRANCH  11  12
HETATM   12  C   UNL     1     -43.018 -47.315  11.223  1.00  0.00     0.076 C 
BRANCH  12  13
HETATM   13  C   UNL     1     -43.700 -47.587   9.907  1.00  0.00     0.010 A 
HETATM   14  C   UNL     1     -45.087 -47.682   9.829  1.00  0.00     0.025 A 
HETATM   15  C   UNL     1     -45.675 -48.000   8.607  1.00  0.00     0.003 A 
HETATM   16  C   UNL     1     -44.869 -48.206   7.494  1.00  0.00     0.017 A 
HETATM   17  C   UNL     1     -43.499 -48.077   7.652  1.00  0.00     0.088 A 
HETATM   18  N   UNL     1     -42.900 -47.774   8.826  1.00  0.00    -0.369 N 
ATOM     19  HN  UNL     1     -41.887 -47.688   8.897  1.00  0.00     0.165 HD
ENDBRANCH  12  13
ENDBRANCH  11  12
ENDBRANCH   9  11
BRANCH   1  20
HETATM   20  C   UNL     1     -46.535 -53.336  15.268  1.00  0.00     0.219 C 
HETATM   21  N   UNL     1     -46.984 -54.168  14.285  1.00  0.00    -0.370 N 
HETATM   22  H   UNL     1     -46.820 -55.157  14.421  1.00  0.00     0.159 HD
HETATM   23  H   UNL     1     -47.168 -53.846  13.345  1.00  0.00     0.159 HD
HETATM   24  O   UNL     1     -46.043 -53.802  16.289  1.00  0.00    -0.273 OA
ENDBRANCH   1  20
TORSDOF 4
ENDMDL
MODEL 3
REMARK VINA RESULT:      -6.1      1.669      2.214
REMARK  4 active torsions:
REMARK  status: ('A' for Active; 'I' for Inactive)
REMARK       I    between atoms: N_1  and  C_2 
REMARK    1  A    between atoms: C_2  and  C_4 
REMARK       I    between atoms: N_7  and  C_10 
REMARK       I    between atoms: C_10  and  N_12 
REMARK    2  A    between atoms: N_12  and  C_13 
REMARK    3  A    between atoms: C_13  and  C_14 
REMARK    4  A    between atoms: C_14  and  C_15 
ROOT
HETATM    1  C   UNL     1     -44.491 -53.701  14.889  1.00  0.00     0.081 C 
HETATM    2  C   UNL     1     -44.701 -52.205  14.606  1.00  0.00     0.034 C 
HETATM    3  C   UNL     1     -44.414 -51.840  13.151  1.00  0.00     0.128 C 
HETATM    4  N   UNL     1     -43.078 -52.290  12.763  1.00  0.00    -0.334 N 
HETATM    5  C   UNL     1     -42.845 -53.722  12.938  1.00  0.00     0.128 C 
HETATM    6  C   UNL     1     -43.124 -54.168  14.375  1.00  0.00     0.034 C 
HETATM    7  C   UNL     1     -42.051 -51.499  12.267  1.00  0.00     0.318 C 
HETATM    8  O   UNL     1     -40.910 -51.918  12.086  1.00  0.00    -0.247 OA
HETATM    9  N   UNL     1     -42.392 -50.195  11.995  1.00  0.00    -0.343 N 
HETATM   10  H   UNL     1     -43.319 -50.102  11.609  1.00  0.00     0.164 HD
ENDROOT
BRANCH   9  11
HETATM   11  C   UNL     1     -41.394 -49.288  11.427  1.00  0.00     0.130 C 
BRANCH  11  12
HETATM   12  C   UNL     1     -42.031 -48.278  10.475  1.00  0.00     0.076 C 
BRANCH  12  13
HETATM   13  C   UNL     1     -41.544 -46.868  10.693  1.00  0.00     0.010 A 
HETATM   14  C   UNL     1     -42.434 -45.849  11.024  1.00  0.00     0.025 A 
HETATM   15  C   UNL     1     -41.955 -44.548  11.152  1.00  0.00     0.003 A 
HETATM   16  C   UNL     1     -40.603 -44.296  10.956  1.00  0.00     0.017 A 
HETATM   17  C   UNL     1     -39.781 -45.367  10.646  1.00  0.00     0.088 A 
HETATM   18  N   UNL     1     -40.219 -46.640  10.511  1.00  0.00    -0.369 N 
ATOM     19  HN  UNL     1     -39.578 -47.399  10.281  1.00  0.00     0.165 HD
ENDBRANCH  12  13
ENDBRANCH  11  12
ENDBRANCH   9  11
BRANCH   1  20
HETATM   20  C   UNL     1     -45.650 -54.534  14.353  1.00  0.00     0.219 C 
HETATM   21  N   UNL     1     -46.874 -53.935  14.391  1.00  0.00    -0.370 N 
HETATM   22  H   UNL     1     -47.635 -54.433  13.946  1.00  0.00     0.159 HD
HETATM   23  H   UNL     1     -46.987 -52.943  14.545  1.00  0.00     0.159 HD
HETATM   24  O   UNL     1     -45.530 -55.657  13.876  1.00  0.00    -0.273 OA
ENDBRANCH   1  20
TORSDOF 4
ENDMDL
MODEL 4
REMARK VINA RESULT:      -6.1      2.657      4.029
REMARK  4 active torsions:
REMARK  status: ('A' for Active; 'I' for Inactive)
REMARK       I    between atoms: N_1  and  C_2 
REMARK    1  A    between atoms: C_2  and  C_4 
REMARK       I    between atoms: N_7  and  C_10 
REMARK       I    between atoms: C_10  and  N_12 
REMARK    2  A    between atoms: N_12  and  C_13 
REMARK    3  A    between atoms: C_13  and  C_14 
REMARK    4  A    between atoms: C_14  and  C_15 
ROOT
HETATM    1  C   UNL     1     -46.598 -51.836  15.071  1.00  0.00     0.081 C 
HETATM    2  C   UNL     1     -46.454 -51.474  13.584  1.00  0.00     0.034 C 
HETATM    3  C   UNL     1     -44.998 -51.456  13.126  1.00  0.00     0.128 C 
HETATM    4  N   UNL     1     -44.201 -50.579  13.983  1.00  0.00    -0.334 N 
HETATM    5  C   UNL     1     -44.237 -50.922  15.403  1.00  0.00     0.128 C 
HETATM    6  C   UNL     1     -45.671 -50.972  15.935  1.00  0.00     0.034 C 
HETATM    7  C   UNL     1     -43.447 -49.487  13.575  1.00  0.00     0.318 C 
HETATM    8  O   UNL     1     -42.909 -48.714  14.364  1.00  0.00    -0.247 OA
HETATM    9  N   UNL     1     -43.347 -49.317  12.215  1.00  0.00    -0.343 N 
HETATM   10  H   UNL     1     -43.267 -50.188  11.713  1.00  0.00     0.164 HD
ENDROOT
BRANCH   9  11
HETATM   11  C   UNL     1     -42.537 -48.222  11.680  1.00  0.00     0.130 C 
BRANCH  11  12
HETATM   12  C   UNL     1     -41.416 -48.739  10.781  1.00  0.00     0.076 C 
BRANCH  12  13
HETATM   13  C   UNL     1     -40.127 -48.986  11.522  1.00  0.00     0.010 A 
HETATM   14  C   UNL     1     -39.815 -48.263  12.671  1.00  0.00     0.025 A 
HETATM   15  C   UNL     1     -38.584 -48.475  13.289  1.00  0.00     0.003 A 
HETATM   16  C   UNL     1     -37.703 -49.406  12.754  1.00  0.00     0.017 A 
HETATM   17  C   UNL     1     -38.096 -50.095  11.619  1.00  0.00     0.088 A 
HETATM   18  N   UNL     1     -39.282 -49.907  10.995  1.00  0.00    -0.369 N 
ATOM     19  HN  UNL     1     -39.530 -50.438  10.161  1.00  0.00     0.165 HD
ENDBRANCH  12  13
ENDBRANCH  11  12
ENDBRANCH   9  11
BRANCH   1  20
HETATM   20  C   UNL     1     -46.409 -53.331  15.299  1.00  0.00     0.219 C 
HETATM   21  N   UNL     1     -46.965 -54.146  14.358  1.00  0.00    -0.370 N 
HETATM   22  H   UNL     1     -46.761 -55.134  14.438  1.00  0.00     0.159 HD
HETATM   23  H   UNL     1     -47.280 -53.802  13.461  1.00  0.00     0.159 HD
HETATM   24  O   UNL     1     -45.774 -53.814  16.231  1.00  0.00    -0.273 OA
ENDBRANCH   1  20
TORSDOF 4
ENDMDL
MODEL 5
REMARK VINA RESULT:      -5.9      4.776      9.836
REMARK  4 active torsions:
REMARK  status: ('A' for Active; 'I' for Inactive)
REMARK       I    between atoms: N_1  and  C_2 
REMARK    1  A    between atoms: C_2  and  C_4 
REMARK       I    between atoms: N_7  and  C_10 
REMARK       I    between atoms: C_10  and  N_12 
REMARK    2  A    between atoms: N_12  and  C_13 
REMARK    3  A    between atoms: C_13  and  C_14 
REMARK    4  A    between atoms: C_14  and  C_15 
ROOT
HETATM    1  C   UNL     1     -44.345 -54.589  13.392  1.00  0.00     0.081 C 
HETATM    2  C   UNL     1     -45.651 -54.982  14.101  1.00  0.00     0.034 C 
HETATM    3  C   UNL     1     -45.996 -54.041  15.252  1.00  0.00     0.128 C 
HETATM    4  N   UNL     1     -44.874 -53.937  16.185  1.00  0.00    -0.334 N 
HETATM    5  C   UNL     1     -43.621 -53.492  15.581  1.00  0.00     0.128 C 
HETATM    6  C   UNL     1     -43.213 -54.384  14.406  1.00  0.00     0.034 C 
HETATM    7  C   UNL     1     -44.901 -54.222  17.544  1.00  0.00     0.318 C 
HETATM    8  O   UNL     1     -43.891 -54.243  18.243  1.00  0.00    -0.247 OA
HETATM    9  N   UNL     1     -46.144 -54.494  18.064  1.00  0.00    -0.343 N 
HETATM   10  H   UNL     1     -46.872 -53.921  17.664  1.00  0.00     0.164 HD
ENDROOT
BRANCH   9  11
HETATM   11  C   UNL     1     -46.288 -54.762  19.495  1.00  0.00     0.130 C 
BRANCH  11  12
HETATM   12  C   UNL     1     -46.509 -56.248  19.768  1.00  0.00     0.076 C 
BRANCH  12  13
HETATM   13  C   UNL     1     -47.964 -56.618  19.903  1.00  0.00     0.010 A 
HETATM   14  C   UNL     1     -48.883 -55.715  20.434  1.00  0.00     0.025 A 
HETATM   15  C   UNL     1     -50.206 -56.118  20.603  1.00  0.00     0.003 A 
HETATM   16  C   UNL     1     -50.580 -57.403  20.232  1.00  0.00     0.017 A 
HETATM   17  C   UNL     1     -49.611 -58.234  19.697  1.00  0.00     0.088 A 
HETATM   18  N   UNL     1     -48.318 -57.872  19.525  1.00  0.00    -0.369 N 
ATOM     19  HN  UNL     1     -47.636 -58.517  19.127  1.00  0.00     0.165 HD
ENDBRANCH  12  13
ENDBRANCH  11  12
ENDBRANCH   9  11
BRANCH   1  20
HETATM   20  C   UNL     1     -44.552 -53.390  12.473  1.00  0.00     0.219 C 
HETATM   21  N   UNL     1     -43.413 -52.806  12.002  1.00  0.00    -0.370 N 
HETATM   22  H   UNL     1     -43.533 -52.076  11.311  1.00  0.00     0.159 HD
HETATM   23  H   UNL     1     -42.510 -53.254  12.061  1.00  0.00     0.159 HD
HETATM   24  O   UNL     1     -45.648 -52.968  12.124  1.00  0.00    -0.273 OA
ENDBRANCH   1  20
TORSDOF 4
ENDMDL
MODEL 6
REMARK VINA RESULT:      -5.9      2.676      3.446
REMARK  4 active torsions:
REMARK  status: ('A' for Active; 'I' for Inactive)
REMARK       I    between atoms: N_1  and  C_2 
REMARK    1  A    between atoms: C_2  and  C_4 
REMARK       I    between atoms: N_7  and  C_10 
REMARK       I    between atoms: C_10  and  N_12 
REMARK    2  A    between atoms: N_12  and  C_13 
REMARK    3  A    between atoms: C_13  and  C_14 
REMARK    4  A    between atoms: C_14  and  C_15 
ROOT
HETATM    1  C   UNL     1     -46.685 -51.792  14.989  1.00  0.00     0.081 C 
HETATM    2  C   UNL     1     -46.481 -51.486  13.497  1.00  0.00     0.034 C 
HETATM    3  C   UNL     1     -45.013 -51.556  13.082  1.00  0.00     0.128 C 
HETATM    4  N   UNL     1     -44.197 -50.693  13.936  1.00  0.00    -0.334 N 
HETATM    5  C   UNL     1     -44.291 -50.988  15.364  1.00  0.00     0.128 C 
HETATM    6  C   UNL     1     -45.740 -50.949  15.854  1.00  0.00     0.034 C 
HETATM    7  C   UNL     1     -43.377 -49.654  13.518  1.00  0.00     0.318 C 
HETATM    8  O   UNL     1     -42.823 -48.884  14.298  1.00  0.00    -0.247 OA
HETATM    9  N   UNL     1     -43.230 -49.532  12.156  1.00  0.00    -0.343 N 
HETATM   10  H   UNL     1     -43.181 -50.422  11.684  1.00  0.00     0.164 HD
ENDROOT
BRANCH   9  11
HETATM   11  C   UNL     1     -42.351 -48.497  11.612  1.00  0.00     0.130 C 
BRANCH  11  12
HETATM   12  C   UNL     1     -43.115 -47.208  11.320  1.00  0.00     0.076 C 
BRANCH  12  13
HETATM   13  C   UNL     1     -42.218 -46.006  11.173  1.00  0.00     0.010 A 
HETATM   14  C   UNL     1     -40.901 -46.147  10.741  1.00  0.00     0.025 A 
HETATM   15  C   UNL     1     -40.084 -45.020  10.681  1.00  0.00     0.003 A 
HETATM   16  C   UNL     1     -40.602 -43.782  11.043  1.00  0.00     0.017 A 
HETATM   17  C   UNL     1     -41.926 -43.724  11.445  1.00  0.00     0.088 A 
HETATM   18  N   UNL     1     -42.741 -44.802  11.517  1.00  0.00    -0.369 N 
ATOM     19  HN  UNL     1     -43.710 -44.713  11.819  1.00  0.00     0.165 HD
ENDBRANCH  12  13
ENDBRANCH  11  12
ENDBRANCH   9  11
BRANCH   1  20
HETATM   20  C   UNL     1     -46.580 -53.287  15.269  1.00  0.00     0.219 C 
HETATM   21  N   UNL     1     -47.076 -54.105  14.297  1.00  0.00    -0.370 N 
HETATM   22  H   UNL     1     -46.921 -55.098  14.419  1.00  0.00     0.159 HD
HETATM   23  H   UNL     1     -47.290 -53.773  13.367  1.00  0.00     0.159 HD
HETATM   24  O   UNL     1     -46.057 -53.768  16.268  1.00  0.00    -0.273 OA
ENDBRANCH   1  20
TORSDOF 4
ENDMDL
MODEL 7
REMARK VINA RESULT:      -5.8      3.315      6.928
REMARK  4 active torsions:
REMARK  status: ('A' for Active; 'I' for Inactive)
REMARK       I    between atoms: N_1  and  C_2 
REMARK    1  A    between atoms: C_2  and  C_4 
REMARK       I    between atoms: N_7  and  C_10 
REMARK       I    between atoms: C_10  and  N_12 
REMARK    2  A    between atoms: N_12  and  C_13 
REMARK    3  A    between atoms: C_13  and  C_14 
REMARK    4  A    between atoms: C_14  and  C_15 
ROOT
HETATM    1  C   UNL     1     -39.030 -50.955  13.373  1.00  0.00     0.081 C 
HETATM    2  C   UNL     1     -39.460 -52.392  13.708  1.00  0.00     0.034 C 
HETATM    3  C   UNL     1     -40.409 -52.976  12.663  1.00  0.00     0.128 C 
HETATM    4  N   UNL     1     -41.556 -52.092  12.461  1.00  0.00    -0.334 N 
HETATM    5  C   UNL     1     -41.210 -50.729  12.064  1.00  0.00     0.128 C 
HETATM    6  C   UNL     1     -40.248 -50.078  13.061  1.00  0.00     0.034 C 
HETATM    7  C   UNL     1     -42.895 -52.427  12.614  1.00  0.00     0.318 C 
HETATM    8  O   UNL     1     -43.802 -51.600  12.558  1.00  0.00    -0.247 OA
HETATM    9  N   UNL     1     -43.145 -53.759  12.846  1.00  0.00    -0.343 N 
HETATM   10  H   UNL     1     -42.539 -54.370  12.321  1.00  0.00     0.164 HD
ENDROOT
BRANCH   9  11
HETATM   11  C   UNL     1     -44.526 -54.224  12.977  1.00  0.00     0.130 C 
BRANCH  11  12
HETATM   12  C   UNL     1     -44.873 -54.550  14.428  1.00  0.00     0.076 C 
BRANCH  12  13
HETATM   13  C   UNL     1     -45.688 -53.474  15.100  1.00  0.00     0.010 A 
HETATM   14  C   UNL     1     -46.382 -52.530  14.347  1.00  0.00     0.025 A 
HETATM   15  C   UNL     1     -47.069 -51.513  15.006  1.00  0.00     0.003 A 
HETATM   16  C   UNL     1     -47.055 -51.468  16.394  1.00  0.00     0.017 A 
HETATM   17  C   UNL     1     -46.355 -52.454  17.069  1.00  0.00     0.088 A 
HETATM   18  N   UNL     1     -45.675 -53.450  16.456  1.00  0.00    -0.369 N 
ATOM     19  HN  UNL     1     -45.172 -54.156  16.994  1.00  0.00     0.165 HD
ENDBRANCH  12  13
ENDBRANCH  11  12
ENDBRANCH   9  11
BRANCH   1  20
HETATM   20  C   UNL     1     -37.978 -50.935  12.269  1.00  0.00     0.219 C 
HETATM   21  N   UNL     1     -38.224 -50.080  11.236  1.00  0.00    -0.370 N 
HETATM   22  H   UNL     1     -37.488 -49.978  10.549  1.00  0.00     0.159 HD
HETATM   23  H   UNL     1     -38.921 -49.350  11.291  1.00  0.00     0.159 HD
HETATM   24  O   UNL     1     -36.945 -51.595  12.286  1.00  0.00    -0.273 OA
ENDBRANCH   1  20
TORSDOF 4
ENDMDL
MODEL 8
REMARK VINA RESULT:      -5.8      2.494      3.432
REMARK  4 active torsions:
REMARK  status: ('A' for Active; 'I' for Inactive)
REMARK       I    between atoms: N_1  and  C_2 
REMARK    1  A    between atoms: C_2  and  C_4 
REMARK       I    between atoms: N_7  and  C_10 
REMARK       I    between atoms: C_10  and  N_12 
REMARK    2  A    between atoms: N_12  and  C_13 
REMARK    3  A    between atoms: C_13  and  C_14 
REMARK    4  A    between atoms: C_14  and  C_15 
ROOT
HETATM    1  C   UNL     1     -45.778 -52.961  13.562  1.00  0.00     0.081 C 
HETATM    2  C   UNL     1     -44.679 -53.155  12.506  1.00  0.00     0.034 C 
HETATM    3  C   UNL     1     -43.363 -52.491  12.903  1.00  0.00     0.128 C 
HETATM    4  N   UNL     1     -43.576 -51.079  13.220  1.00  0.00    -0.334 N 
HETATM    5  C   UNL     1     -44.557 -50.835  14.274  1.00  0.00     0.128 C 
HETATM    6  C   UNL     1     -45.905 -51.483  13.952  1.00  0.00     0.034 C 
HETATM    7  C   UNL     1     -42.951 -49.994  12.620  1.00  0.00     0.318 C 
HETATM    8  O   UNL     1     -43.274 -48.830  12.840  1.00  0.00    -0.247 OA
HETATM    9  N   UNL     1     -41.940 -50.309  11.742  1.00  0.00    -0.343 N 
HETATM   10  H   UNL     1     -41.384 -51.094  12.047  1.00  0.00     0.164 HD
ENDROOT
BRANCH   9  11
HETATM   11  C   UNL     1     -41.187 -49.238  11.090  1.00  0.00     0.130 C 
BRANCH  11  12
HETATM   12  C   UNL     1     -40.066 -48.714  11.985  1.00  0.00     0.076 C 
BRANCH  12  13
HETATM   13  C   UNL     1     -39.851 -47.227  11.860  1.00  0.00     0.010 A 
HETATM   14  C   UNL     1     -39.545 -46.454  12.978  1.00  0.00     0.025 A 
HETATM   15  C   UNL     1     -39.420 -45.075  12.833  1.00  0.00     0.003 A 
HETATM   16  C   UNL     1     -39.592 -44.502  11.579  1.00  0.00     0.017 A 
HETATM   17  C   UNL     1     -39.878 -45.342  10.515  1.00  0.00     0.088 A 
HETATM   18  N   UNL     1     -40.011 -46.684  10.627  1.00  0.00    -0.369 N 
ATOM     19  HN  UNL     1     -40.222 -47.264   9.816  1.00  0.00     0.165 HD
ENDBRANCH  12  13
ENDBRANCH  11  12
ENDBRANCH   9  11
BRANCH   1  20
HETATM   20  C   UNL     1     -45.566 -53.881  14.759  1.00  0.00     0.219 C 
HETATM   21  N   UNL     1     -46.110 -53.453  15.934  1.00  0.00    -0.370 N 
HETATM   22  H   UNL     1     -46.068 -54.099  16.713  1.00  0.00     0.159 HD
HETATM   23  H   UNL     1     -46.792 -52.708  15.977  1.00  0.00     0.159 HD
HETATM   24  O   UNL     1     -44.987 -54.960  14.708  1.00  0.00    -0.273 OA
ENDBRANCH   1  20
TORSDOF 4
ENDMDL
MODEL 9
REMARK VINA RESULT:      -5.8      2.316      3.838
REMARK  4 active torsions:
REMARK  status: ('A' for Active; 'I' for Inactive)
REMARK       I    between atoms: N_1  and  C_2 
REMARK    1  A    between atoms: C_2  and  C_4 
REMARK       I    between atoms: N_7  and  C_10 
REMARK       I    between atoms: C_10  and  N_12 
REMARK    2  A    between atoms: N_12  and  C_13 
REMARK    3  A    between atoms: C_13  and  C_14 
REMARK    4  A    between atoms: C_14  and  C_15 
ROOT
HETATM    1  C   UNL     1     -44.420 -53.725  14.816  1.00  0.00     0.081 C 
HETATM    2  C   UNL     1     -44.470 -52.260  14.356  1.00  0.00     0.034 C 
HETATM    3  C   UNL     1     -44.014 -52.086  12.909  1.00  0.00     0.128 C 
HETATM    4  N   UNL     1     -42.690 -52.678  12.714  1.00  0.00    -0.334 N 
HETATM    5  C   UNL     1     -42.601 -54.094  13.062  1.00  0.00     0.128 C 
HETATM    6  C   UNL     1     -43.055 -54.351  14.501  1.00  0.00     0.034 C 
HETATM    7  C   UNL     1     -41.556 -52.029  12.248  1.00  0.00     0.318 C 
HETATM    8  O   UNL     1     -40.444 -52.551  12.234  1.00  0.00    -0.247 OA
HETATM    9  N   UNL     1     -41.754 -50.742  11.805  1.00  0.00    -0.343 N 
HETATM   10  H   UNL     1     -42.627 -50.624  11.316  1.00  0.00     0.164 HD
ENDROOT
BRANCH   9  11
HETATM   11  C   UNL     1     -40.631 -49.985  11.252  1.00  0.00     0.130 C 
BRANCH  11  12
HETATM   12  C   UNL     1     -40.699 -48.511  11.646  1.00  0.00     0.076 C 
BRANCH  12  13
HETATM   13  C   UNL     1     -39.613 -48.103  12.609  1.00  0.00     0.010 A 
HETATM   14  C   UNL     1     -38.584 -48.982  12.938  1.00  0.00     0.025 A 
HETATM   15  C   UNL     1     -37.637 -48.591  13.881  1.00  0.00     0.003 A 
HETATM   16  C   UNL     1     -37.734 -47.334  14.465  1.00  0.00     0.017 A 
HETATM   17  C   UNL     1     -38.777 -46.513  14.072  1.00  0.00     0.088 A 
HETATM   18  N   UNL     1     -39.714 -46.868  13.162  1.00  0.00    -0.369 N 
ATOM     19  HN  UNL     1     -40.467 -46.231  12.901  1.00  0.00     0.165 HD
ENDBRANCH  12  13
ENDBRANCH  11  12
ENDBRANCH   9  11
BRANCH   1  20
HETATM   20  C   UNL     1     -45.590 -54.524  14.252  1.00  0.00     0.219 C 
HETATM   21  N   UNL     1     -46.754 -53.833  14.094  1.00  0.00    -0.370 N 
HETATM   22  H   UNL     1     -47.508 -54.319  13.626  1.00  0.00     0.159 HD
HETATM   23  H   UNL     1     -46.793 -52.823  14.127  1.00  0.00     0.159 HD
HETATM   24  O   UNL     1     -45.524 -55.701  13.914  1.00  0.00    -0.273 OA
ENDBRANCH   1  20
TORSDOF 4
ENDMDL
