MODEL 1
REMARK VINA RESULT:      -5.9      0.000      0.000
REMARK  4 active torsions:
REMARK  status: ('A' for Active; 'I' for Inactive)
REMARK    1  A    between atoms: S_2  and  C_3 
REMARK    2  A    between atoms: C_3  and  C_5 
REMARK       I    between atoms: C_5  and  N_7 
REMARK    3  A    between atoms: N_7  and  C_8 
REMARK    4  A    between atoms: C_11  and  N_15 
ROOT
HETATM    1  C   UNL     1     -42.699 -51.358  12.941  1.00  0.00     0.050 A 
HETATM    2  C   UNL     1     -43.438 -50.199  13.094  1.00  0.00     0.035 A 
HETATM    3  C   UNL     1     -43.084 -49.061  12.364  1.00  0.00     0.051 A 
HETATM    4  C   UNL     1     -42.049 -49.097  11.434  1.00  0.00     0.103 A 
HETATM    5  N   UNL     1     -41.346 -50.243  11.264  1.00  0.00    -0.350 N 
ATOM      6  HN  UNL     1     -40.591 -50.290  10.580  1.00  0.00     0.166 HD
HETATM    7  C   UNL     1     -41.663 -51.330  12.018  1.00  0.00     0.119 A 
ENDROOT
BRANCH   1   8
HETATM    8  N   UNL     1     -43.039 -52.477  13.720  1.00  0.00    -0.325 N 
HETATM    9  C   UNL     1     -43.855 -53.502  13.272  1.00  0.00     0.235 C 
HETATM   10  O   UNL     1     -44.377 -53.542  12.161  1.00  0.00    -0.272 OA
HETATM   11  H   UNL     1     -42.420 -52.728  14.486  1.00  0.00     0.169 HD
BRANCH   9  12
HETATM   12  C   UNL     1     -44.099 -54.615  14.293  1.00  0.00     0.135 C 
HETATM   13  C   UNL     1     -45.419 -55.305  13.979  1.00  0.00     0.031 C 
BRANCH  12  14
HETATM   14  S   UNL     1     -44.143 -53.975  16.019  1.00  0.00    -0.160 SA
HETATM   15  C   UNL     1     -45.929 -53.727  16.202  1.00  0.00     0.090 C 
ENDBRANCH  12  14
ENDBRANCH   9  12
ENDBRANCH   1   8
BRANCH   4  16
HETATM   16  N   UNL     1     -41.673 -47.978  10.721  1.00  0.00    -0.362 N 
HETATM   17  C   UNL     1     -40.614 -47.064  11.168  1.00  0.00     0.156 C 
HETATM   18  C   UNL     1     -41.205 -45.685  11.535  1.00  0.00     0.136 C 
HETATM   19  C   UNL     1     -40.093 -44.694  11.855  1.00  0.00     0.041 C 
HETATM   20  O   UNL     1     -41.967 -45.140  10.444  1.00  0.00    -0.378 OA
HETATM   21  C   UNL     1     -43.069 -46.010  10.111  1.00  0.00     0.136 C 
HETATM   22  C   UNL     1     -43.825 -45.340   8.969  1.00  0.00     0.041 C 
HETATM   23  C   UNL     1     -42.566 -47.411   9.695  1.00  0.00     0.156 C 
ENDBRANCH   4  16
TORSDOF 4
ENDMDL
MODEL 2
REMARK VINA RESULT:      -5.7      2.870      8.156
REMARK  4 active torsions:
REMARK  status: ('A' for Active; 'I' for Inactive)
REMARK    1  A    between atoms: S_2  and  C_3 
REMARK    2  A    between atoms: C_3  and  C_5 
REMARK       I    between atoms: C_5  and  N_7 
REMARK    3  A    between atoms: N_7  and  C_8 
REMARK    4  A    between atoms: C_11  and  N_15 
ROOT
HETATM    1  C   UNL     1     -41.410 -49.309  11.804  1.00  0.00     0.050 A 
HETATM    2  C   UNL     1     -42.441 -49.569  12.689  1.00  0.00     0.035 A 
HETATM    3  C   UNL     1     -42.748 -50.894  13.010  1.00  0.00     0.051 A 
HETATM    4  C   UNL     1     -41.988 -51.949  12.513  1.00  0.00     0.103 A 
HETATM    5  N   UNL     1     -40.958 -51.689  11.671  1.00  0.00    -0.350 N 
ATOM      6  HN  UNL     1     -40.385 -52.449  11.305  1.00  0.00     0.166 HD
HETATM    7  C   UNL     1     -40.701 -50.399  11.321  1.00  0.00     0.119 A 
ENDROOT
BRANCH   1   8
HETATM    8  N   UNL     1     -41.148 -47.973  11.455  1.00  0.00    -0.325 N 
HETATM    9  C   UNL     1     -41.815 -47.303  10.442  1.00  0.00     0.235 C 
HETATM   10  O   UNL     1     -42.689 -47.798   9.736  1.00  0.00    -0.272 OA
HETATM   11  H   UNL     1     -40.724 -47.373  12.156  1.00  0.00     0.169 HD
BRANCH   9  12
HETATM   12  C   UNL     1     -41.360 -45.858  10.229  1.00  0.00     0.135 C 
HETATM   13  C   UNL     1     -39.894 -45.730  10.620  1.00  0.00     0.031 C 
BRANCH  12  14
HETATM   14  S   UNL     1     -42.358 -44.664  11.211  1.00  0.00    -0.160 SA
HETATM   15  C   UNL     1     -41.168 -43.301  11.328  1.00  0.00     0.090 C 
ENDBRANCH  12  14
ENDBRANCH   9  12
ENDBRANCH   1   8
BRANCH   4  16
HETATM   16  N   UNL     1     -42.289 -53.262  12.803  1.00  0.00    -0.362 N 
HETATM   17  C   UNL     1     -43.638 -53.825  12.651  1.00  0.00     0.156 C 
HETATM   18  C   UNL     1     -44.234 -54.190  14.029  1.00  0.00     0.136 C 
HETATM   19  C   UNL     1     -45.567 -54.908  13.862  1.00  0.00     0.041 C 
HETATM   20  O   UNL     1     -43.359 -55.068  14.756  1.00  0.00    -0.378 OA
HETATM   21  C   UNL     1     -42.083 -54.435  14.989  1.00  0.00     0.136 C 
HETATM   22  C   UNL     1     -41.240 -55.427  15.782  1.00  0.00     0.041 C 
HETATM   23  C   UNL     1     -41.394 -54.064  13.656  1.00  0.00     0.156 C 
ENDBRANCH   4  16
TORSDOF 4
ENDMDL
MODEL 3
REMARK VINA RESULT:      -5.6      2.436      2.854
REMARK  4 active torsions:
REMARK  status: ('A' for Active; 'I' for Inactive)
REMARK    1  A    between atoms: S_2  and  C_3 
REMARK    2  A    between atoms: C_3  and  C_5 
REMARK       I    between atoms: C_5  and  N_7 
REMARK    3  A    between atoms: N_7  and  C_8 
REMARK    4  A    between atoms: C_11  and  N_15 
ROOT
HETATM    1  C   UNL     1     -41.129 -50.981  13.233  1.00  0.00     0.050 A 
HETATM    2  C   UNL     1     -40.043 -50.129  13.162  1.00  0.00     0.035 A 
HETATM    3  C   UNL     1     -40.080 -49.045  12.280  1.00  0.00     0.051 A 
HETATM    4  C   UNL     1     -41.220 -48.769  11.530  1.00  0.00     0.103 A 
HETATM    5  N   UNL     1     -42.295 -49.588  11.625  1.00  0.00    -0.350 N 
ATOM      6  HN  UNL     1     -43.141 -49.395  11.090  1.00  0.00     0.166 HD
HETATM    7  C   UNL     1     -42.228 -50.671  12.445  1.00  0.00     0.119 A 
ENDROOT
BRANCH   1   8
HETATM    8  N   UNL     1     -41.053 -52.094  14.089  1.00  0.00    -0.325 N 
HETATM    9  C   UNL     1     -40.609 -53.341  13.683  1.00  0.00     0.235 C 
HETATM   10  O   UNL     1     -40.248 -53.616  12.542  1.00  0.00    -0.272 OA
HETATM   11  H   UNL     1     -40.986 -51.921  15.088  1.00  0.00     0.169 HD
BRANCH   9  12
HETATM   12  C   UNL     1     -40.619 -54.408  14.780  1.00  0.00     0.135 C 
HETATM   13  C   UNL     1     -42.026 -54.528  15.350  1.00  0.00     0.031 C 
BRANCH  12  14
HETATM   14  S   UNL     1     -39.443 -54.016  16.141  1.00  0.00    -0.160 SA
HETATM   15  C   UNL     1     -38.371 -55.474  16.042  1.00  0.00     0.090 C 
ENDBRANCH  12  14
ENDBRANCH   9  12
ENDBRANCH   1   8
BRANCH   4  16
HETATM   16  N   UNL     1     -41.267 -47.716  10.640  1.00  0.00    -0.362 N 
HETATM   17  C   UNL     1     -40.484 -46.486  10.816  1.00  0.00     0.156 C 
HETATM   18  C   UNL     1     -41.415 -45.285  11.096  1.00  0.00     0.136 C 
HETATM   19  C   UNL     1     -40.618 -43.987  11.131  1.00  0.00     0.041 C 
HETATM   20  O   UNL     1     -42.412 -45.151  10.069  1.00  0.00    -0.378 OA
HETATM   21  C   UNL     1     -43.236 -46.333  10.006  1.00  0.00     0.136 C 
HETATM   22  C   UNL     1     -44.271 -46.088   8.913  1.00  0.00     0.041 C 
HETATM   23  C   UNL     1     -42.389 -47.587   9.694  1.00  0.00     0.156 C 
ENDBRANCH   4  16
TORSDOF 4
ENDMDL
MODEL 4
REMARK VINA RESULT:      -5.3      3.042      8.043
REMARK  4 active torsions:
REMARK  status: ('A' for Active; 'I' for Inactive)
REMARK    1  A    between atoms: S_2  and  C_3 
REMARK    2  A    between atoms: C_3  and  C_5 
REMARK       I    between atoms: C_5  and  N_7 
REMARK    3  A    between atoms: N_7  and  C_8 
REMARK    4  A    between atoms: C_11  and  N_15 
ROOT
HETATM    1  C   UNL     1     -41.750 -47.955  12.073  1.00  0.00     0.050 A 
HETATM    2  C   UNL     1     -40.610 -48.674  11.766  1.00  0.00     0.035 A 
HETATM    3  C   UNL     1     -40.644 -50.070  11.828  1.00  0.00     0.051 A 
HETATM    4  C   UNL     1     -41.824 -50.747  12.121  1.00  0.00     0.103 A 
HETATM    5  N   UNL     1     -42.948 -50.041  12.391  1.00  0.00    -0.350 N 
ATOM      6  HN  UNL     1     -43.824 -50.520  12.598  1.00  0.00     0.166 HD
HETATM    7  C   UNL     1     -42.891 -48.681  12.382  1.00  0.00     0.119 A 
ENDROOT
BRANCH   1   8
HETATM    8  N   UNL     1     -41.682 -46.552  12.054  1.00  0.00    -0.325 N 
HETATM    9  C   UNL     1     -42.004 -45.785  10.946  1.00  0.00     0.235 C 
HETATM   10  O   UNL     1     -42.368 -46.240   9.865  1.00  0.00    -0.272 OA
HETATM   11  H   UNL     1     -41.737 -46.061  12.943  1.00  0.00     0.169 HD
BRANCH   9  12
HETATM   12  C   UNL     1     -41.848 -44.276  11.149  1.00  0.00     0.135 C 
HETATM   13  C   UNL     1     -40.377 -43.902  11.020  1.00  0.00     0.031 C 
BRANCH  12  14
HETATM   14  S   UNL     1     -42.473 -43.728  12.791  1.00  0.00    -0.160 SA
HETATM   15  C   UNL     1     -40.905 -43.262  13.571  1.00  0.00     0.090 C 
ENDBRANCH  12  14
ENDBRANCH   9  12
ENDBRANCH   1   8
BRANCH   4  16
HETATM   16  N   UNL     1     -41.871 -52.123  12.206  1.00  0.00    -0.362 N 
HETATM   17  C   UNL     1     -43.105 -52.863  12.500  1.00  0.00     0.156 C 
HETATM   18  C   UNL     1     -43.011 -53.550  13.880  1.00  0.00     0.136 C 
HETATM   19  C   UNL     1     -44.227 -54.438  14.121  1.00  0.00     0.041 C 
HETATM   20  O   UNL     1     -41.844 -54.385  13.965  1.00  0.00    -0.378 OA
HETATM   21  C   UNL     1     -40.646 -53.603  13.788  1.00  0.00     0.136 C 
HETATM   22  C   UNL     1     -39.470 -54.564  13.918  1.00  0.00     0.041 C 
HETATM   23  C   UNL     1     -40.637 -52.902  12.411  1.00  0.00     0.156 C 
ENDBRANCH   4  16
TORSDOF 4
ENDMDL
MODEL 5
REMARK VINA RESULT:      -5.0      4.465      8.656
REMARK  4 active torsions:
REMARK  status: ('A' for Active; 'I' for Inactive)
REMARK    1  A    between atoms: S_2  and  C_3 
REMARK    2  A    between atoms: C_3  and  C_5 
REMARK       I    between atoms: C_5  and  N_7 
REMARK    3  A    between atoms: N_7  and  C_8 
REMARK    4  A    between atoms: C_11  and  N_15 
ROOT
HETATM    1  C   UNL     1     -40.565 -44.886  12.059  1.00  0.00     0.050 A 
HETATM    2  C   UNL     1     -40.009 -45.645  13.072  1.00  0.00     0.035 A 
HETATM    3  C   UNL     1     -39.724 -46.994  12.839  1.00  0.00     0.051 A 
HETATM    4  C   UNL     1     -39.920 -47.563  11.584  1.00  0.00     0.103 A 
HETATM    5  N   UNL     1     -40.435 -46.808  10.584  1.00  0.00    -0.350 N 
ATOM      6  HN  UNL     1     -40.577 -47.206   9.656  1.00  0.00     0.166 HD
HETATM    7  C   UNL     1     -40.761 -45.512  10.836  1.00  0.00     0.119 A 
ENDROOT
BRANCH   1   8
HETATM    8  N   UNL     1     -40.892 -43.546  12.328  1.00  0.00    -0.325 N 
HETATM    9  C   UNL     1     -42.102 -43.148  12.872  1.00  0.00     0.235 C 
HETATM   10  O   UNL     1     -43.018 -43.911  13.166  1.00  0.00    -0.272 OA
HETATM   11  H   UNL     1     -40.128 -42.888  12.457  1.00  0.00     0.169 HD
BRANCH   9  12
HETATM   12  C   UNL     1     -42.244 -41.638  13.070  1.00  0.00     0.135 C 
HETATM   13  C   UNL     1     -43.701 -41.241  12.871  1.00  0.00     0.031 C 
BRANCH  12  14
HETATM   14  S   UNL     1     -41.189 -40.682  11.903  1.00  0.00    -0.160 SA
HETATM   15  C   UNL     1     -39.922 -40.092  13.057  1.00  0.00     0.090 C 
ENDBRANCH  12  14
ENDBRANCH   9  12
ENDBRANCH   1   8
BRANCH   4  16
HETATM   16  N   UNL     1     -39.663 -48.896  11.342  1.00  0.00    -0.362 N 
HETATM   17  C   UNL     1     -40.725 -49.897  11.176  1.00  0.00     0.156 C 
HETATM   18  C   UNL     1     -40.714 -50.902  12.349  1.00  0.00     0.136 C 
HETATM   19  C   UNL     1     -41.715 -52.024  12.102  1.00  0.00     0.041 C 
HETATM   20  O   UNL     1     -39.418 -51.506  12.502  1.00  0.00    -0.378 OA
HETATM   21  C   UNL     1     -38.420 -50.502  12.781  1.00  0.00     0.136 C 
HETATM   22  C   UNL     1     -37.095 -51.237  12.950  1.00  0.00     0.041 C 
HETATM   23  C   UNL     1     -38.337 -49.467  11.636  1.00  0.00     0.156 C 
ENDBRANCH   4  16
TORSDOF 4
ENDMDL
MODEL 6
REMARK VINA RESULT:      -5.0      2.623      3.383
REMARK  4 active torsions:
REMARK  status: ('A' for Active; 'I' for Inactive)
REMARK    1  A    between atoms: S_2  and  C_3 
REMARK    2  A    between atoms: C_3  and  C_5 
REMARK       I    between atoms: C_5  and  N_7 
REMARK    3  A    between atoms: N_7  and  C_8 
REMARK    4  A    between atoms: C_11  and  N_15 
ROOT
HETATM    1  C   UNL     1     -41.926 -51.359  13.441  1.00  0.00     0.050 A 
HETATM    2  C   UNL     1     -42.357 -50.363  14.298  1.00  0.00     0.035 A 
HETATM    3  C   UNL     1     -42.535 -49.067  13.805  1.00  0.00     0.051 A 
HETATM    4  C   UNL     1     -42.359 -48.781  12.455  1.00  0.00     0.103 A 
HETATM    5  N   UNL     1     -41.966 -49.766  11.611  1.00  0.00    -0.350 N 
ATOM      6  HN  UNL     1     -41.841 -49.576  10.617  1.00  0.00     0.166 HD
HETATM    7  C   UNL     1     -41.742 -51.012  12.110  1.00  0.00     0.119 A 
ENDROOT
BRANCH   1   8
HETATM    8  N   UNL     1     -41.703 -52.643  13.965  1.00  0.00    -0.325 N 
HETATM    9  C   UNL     1     -40.452 -53.118  14.323  1.00  0.00     0.235 C 
HETATM   10  O   UNL     1     -39.407 -52.481  14.213  1.00  0.00    -0.272 OA
HETATM   11  H   UNL     1     -42.483 -53.114  14.415  1.00  0.00     0.169 HD
BRANCH   9  12
HETATM   12  C   UNL     1     -40.444 -54.550  14.862  1.00  0.00     0.135 C 
HETATM   13  C   UNL     1     -41.563 -54.707  15.883  1.00  0.00     0.031 C 
BRANCH  12  14
HETATM   14  S   UNL     1     -38.838 -54.987  15.647  1.00  0.00    -0.160 SA
HETATM   15  C   UNL     1     -39.257 -54.677  17.383  1.00  0.00     0.090 C 
ENDBRANCH  12  14
ENDBRANCH   9  12
ENDBRANCH   1   8
BRANCH   4  16
HETATM   16  N   UNL     1     -42.511 -47.504  11.956  1.00  0.00    -0.362 N 
HETATM   17  C   UNL     1     -43.534 -47.151  10.963  1.00  0.00     0.156 C 
HETATM   18  C   UNL     1     -42.878 -46.770   9.618  1.00  0.00     0.136 C 
HETATM   19  C   UNL     1     -43.927 -46.261   8.636  1.00  0.00     0.041 C 
HETATM   20  O   UNL     1     -41.908 -45.723   9.793  1.00  0.00    -0.378 OA
HETATM   21  C   UNL     1     -40.856 -46.150  10.683  1.00  0.00     0.136 C 
HETATM   22  C   UNL     1     -39.872 -44.991  10.785  1.00  0.00     0.041 C 
HETATM   23  C   UNL     1     -41.420 -46.521  12.073  1.00  0.00     0.156 C 
ENDBRANCH   4  16
TORSDOF 4
ENDMDL
MODEL 7
REMARK VINA RESULT:      -4.9      3.413      8.086
REMARK  4 active torsions:
REMARK  status: ('A' for Active; 'I' for Inactive)
REMARK    1  A    between atoms: S_2  and  C_3 
REMARK    2  A    between atoms: C_3  and  C_5 
REMARK       I    between atoms: C_5  and  N_7 
REMARK    3  A    between atoms: N_7  and  C_8 
REMARK    4  A    between atoms: C_11  and  N_15 
ROOT
HETATM    1  C   UNL     1     -42.776 -46.645  12.391  1.00  0.00     0.050 A 
HETATM    2  C   UNL     1     -42.621 -46.898  13.741  1.00  0.00     0.035 A 
HETATM    3  C   UNL     1     -42.841 -48.191  14.225  1.00  0.00     0.051 A 
HETATM    4  C   UNL     1     -43.140 -49.240  13.361  1.00  0.00     0.103 A 
HETATM    5  N   UNL     1     -43.261 -48.995  12.033  1.00  0.00    -0.350 N 
ATOM      6  HN  UNL     1     -43.471 -49.754  11.385  1.00  0.00     0.166 HD
HETATM    7  C   UNL     1     -43.099 -47.723  11.579  1.00  0.00     0.119 A 
ENDROOT
BRANCH   1   8
HETATM    8  N   UNL     1     -42.600 -45.329  11.931  1.00  0.00    -0.325 N 
HETATM    9  C   UNL     1     -41.368 -44.799  11.583  1.00  0.00     0.235 C 
HETATM   10  O   UNL     1     -40.303 -45.407  11.649  1.00  0.00    -0.272 OA
HETATM   11  H   UNL     1     -43.399 -44.861  11.514  1.00  0.00     0.169 HD
BRANCH   9  12
HETATM   12  C   UNL     1     -41.411 -43.342  11.118  1.00  0.00     0.135 C 
HETATM   13  C   UNL     1     -40.541 -42.495  12.038  1.00  0.00     0.031 C 
BRANCH  12  14
HETATM   14  S   UNL     1     -43.123 -42.666  11.110  1.00  0.00    -0.160 SA
HETATM   15  C   UNL     1     -43.083 -41.721  12.656  1.00  0.00     0.090 C 
ENDBRANCH  12  14
ENDBRANCH   9  12
ENDBRANCH   1   8
BRANCH   4  16
HETATM   16  N   UNL     1     -43.380 -50.516  13.823  1.00  0.00    -0.362 N 
HETATM   17  C   UNL     1     -42.346 -51.559  13.866  1.00  0.00     0.156 C 
HETATM   18  C   UNL     1     -42.670 -52.689  12.865  1.00  0.00     0.136 C 
HETATM   19  C   UNL     1     -41.680 -53.837  13.015  1.00  0.00     0.041 C 
HETATM   20  O   UNL     1     -43.986 -53.221  13.092  1.00  0.00    -0.378 OA
HETATM   21  C   UNL     1     -44.985 -52.194  12.925  1.00  0.00     0.136 C 
HETATM   22  C   UNL     1     -46.337 -52.856  13.160  1.00  0.00     0.041 C 
HETATM   23  C   UNL     1     -44.758 -51.030  13.917  1.00  0.00     0.156 C 
ENDBRANCH   4  16
TORSDOF 4
ENDMDL
MODEL 8
REMARK VINA RESULT:      -4.8      2.055      2.252
REMARK  4 active torsions:
REMARK  status: ('A' for Active; 'I' for Inactive)
REMARK    1  A    between atoms: S_2  and  C_3 
REMARK    2  A    between atoms: C_3  and  C_5 
REMARK       I    between atoms: C_5  and  N_7 
REMARK    3  A    between atoms: N_7  and  C_8 
REMARK    4  A    between atoms: C_11  and  N_15 
ROOT
HETATM    1  C   UNL     1     -42.775 -50.582  14.032  1.00  0.00     0.050 A 
HETATM    2  C   UNL     1     -43.005 -49.225  14.162  1.00  0.00     0.035 A 
HETATM    3  C   UNL     1     -42.702 -48.375  13.095  1.00  0.00     0.051 A 
HETATM    4  C   UNL     1     -42.243 -48.880  11.882  1.00  0.00     0.103 A 
HETATM    5  N   UNL     1     -42.048 -50.214  11.747  1.00  0.00    -0.350 N 
ATOM      6  HN  UNL     1     -41.722 -50.602  10.862  1.00  0.00     0.166 HD
HETATM    7  C   UNL     1     -42.295 -51.028  12.809  1.00  0.00     0.119 A 
ENDROOT
BRANCH   1   8
HETATM    8  N   UNL     1     -43.039 -51.415  15.133  1.00  0.00    -0.325 N 
HETATM    9  C   UNL     1     -42.051 -51.940  15.950  1.00  0.00     0.235 C 
HETATM   10  O   UNL     1     -40.848 -51.749  15.798  1.00  0.00    -0.272 OA
HETATM   11  H   UNL     1     -43.961 -51.362  15.558  1.00  0.00     0.169 HD
BRANCH   9  12
HETATM   12  C   UNL     1     -42.568 -52.828  17.083  1.00  0.00     0.135 C 
HETATM   13  C   UNL     1     -41.391 -53.532  17.745  1.00  0.00     0.031 C 
BRANCH  12  14
HETATM   14  S   UNL     1     -43.771 -54.086  16.485  1.00  0.00    -0.160 SA
HETATM   15  C   UNL     1     -44.947 -54.058  17.864  1.00  0.00     0.090 C 
ENDBRANCH  12  14
ENDBRANCH   9  12
ENDBRANCH   1   8
BRANCH   4  16
HETATM   16  N   UNL     1     -41.919 -48.054  10.826  1.00  0.00    -0.362 N 
HETATM   17  C   UNL     1     -40.715 -47.213  10.809  1.00  0.00     0.156 C 
HETATM   18  C   UNL     1     -41.095 -45.717  10.861  1.00  0.00     0.136 C 
HETATM   19  C   UNL     1     -39.857 -44.845  10.693  1.00  0.00     0.041 C 
HETATM   20  O   UNL     1     -42.008 -45.378   9.803  1.00  0.00    -0.378 OA
HETATM   21  C   UNL     1     -43.227 -46.139   9.922  1.00  0.00     0.136 C 
HETATM   22  C   UNL     1     -44.134 -45.694   8.780  1.00  0.00     0.041 C 
HETATM   23  C   UNL     1     -42.945 -47.657   9.846  1.00  0.00     0.156 C 
ENDBRANCH   4  16
TORSDOF 4
ENDMDL
MODEL 9
REMARK VINA RESULT:      -4.6      5.265      6.921
REMARK  4 active torsions:
REMARK  status: ('A' for Active; 'I' for Inactive)
REMARK    1  A    between atoms: S_2  and  C_3 
REMARK    2  A    between atoms: C_3  and  C_5 
REMARK       I    between atoms: C_5  and  N_7 
REMARK    3  A    between atoms: N_7  and  C_8 
REMARK    4  A    between atoms: C_11  and  N_15 
ROOT
HETATM    1  C   UNL     1     -39.530 -55.323  16.245  1.00  0.00     0.050 A 
HETATM    2  C   UNL     1     -38.878 -55.109  15.045  1.00  0.00     0.035 A 
HETATM    3  C   UNL     1     -39.525 -54.394  14.032  1.00  0.00     0.051 A 
HETATM    4  C   UNL     1     -40.782 -53.833  14.240  1.00  0.00     0.103 A 
HETATM    5  N   UNL     1     -41.406 -54.018  15.428  1.00  0.00    -0.350 N 
ATOM      6  HN  UNL     1     -42.322 -53.606  15.601  1.00  0.00     0.166 HD
HETATM    7  C   UNL     1     -40.791 -54.761  16.388  1.00  0.00     0.119 A 
ENDROOT
BRANCH   1   8
HETATM    8  N   UNL     1     -38.884 -56.086  17.232  1.00  0.00    -0.325 N 
HETATM    9  C   UNL     1     -39.188 -57.412  17.495  1.00  0.00     0.235 C 
HETATM   10  O   UNL     1     -40.055 -58.057  16.912  1.00  0.00    -0.272 OA
HETATM   11  H   UNL     1     -37.956 -55.795  17.525  1.00  0.00     0.169 HD
BRANCH   9  12
HETATM   12  C   UNL     1     -38.364 -58.042  18.620  1.00  0.00     0.135 C 
HETATM   13  C   UNL     1     -39.147 -57.956  19.924  1.00  0.00     0.031 C 
BRANCH  12  14
HETATM   14  S   UNL     1     -36.734 -57.215  18.834  1.00  0.00    -0.160 SA
HETATM   15  C   UNL     1     -36.700 -57.078  20.641  1.00  0.00     0.090 C 
ENDBRANCH  12  14
ENDBRANCH   9  12
ENDBRANCH   1   8
BRANCH   4  16
HETATM   16  N   UNL     1     -41.443 -53.143  13.246  1.00  0.00    -0.362 N 
HETATM   17  C   UNL     1     -40.749 -52.315  12.250  1.00  0.00     0.156 C 
HETATM   18  C   UNL     1     -41.091 -50.823  12.450  1.00  0.00     0.136 C 
HETATM   19  C   UNL     1     -40.492 -49.982  11.329  1.00  0.00     0.041 C 
HETATM   20  O   UNL     1     -42.513 -50.611  12.435  1.00  0.00    -0.378 OA
HETATM   21  C   UNL     1     -43.147 -51.347  13.501  1.00  0.00     0.136 C 
HETATM   22  C   UNL     1     -44.638 -51.041  13.419  1.00  0.00     0.041 C 
HETATM   23  C   UNL     1     -42.885 -52.864  13.362  1.00  0.00     0.156 C 
ENDBRANCH   4  16
TORSDOF 4
ENDMDL
