MODEL 1
REMARK VINA RESULT:      -5.4      0.000      0.000
REMARK  5 active torsions:
REMARK  status: ('A' for Active; 'I' for Inactive)
REMARK    1  A    between atoms: C_2  and  C_3 
REMARK    2  A    between atoms: C_2  and  N_10 
REMARK    3  A    between atoms: C_3  and  N_4 
REMARK       I    between atoms: N_10  and  C_11 
REMARK    4  A    between atoms: C_11  and  C_13 
REMARK    5  A    between atoms: C_13  and  N_14 
ROOT
HETATM    1  N   UNL     1     -43.027 -53.904  13.714  1.00  0.00    -0.354 N 
HETATM    2  C   UNL     1     -43.840 -54.830  14.330  1.00  0.00     0.235 C 
HETATM    3  O   UNL     1     -43.423 -55.640  15.154  1.00  0.00    -0.272 OA
HETATM    4  H   UNL     1     -43.349 -53.540  12.816  1.00  0.00     0.163 HD
ENDROOT
BRANCH   1   5
HETATM    5  C   UNL     1     -41.603 -53.808  14.048  1.00  0.00     0.098 C 
HETATM    6  C   UNL     1     -40.773 -54.392  12.903  1.00  0.00     0.034 C 
BRANCH   5   7
HETATM    7  C   UNL     1     -41.220 -52.342  14.347  1.00  0.00     0.153 C 
BRANCH   7   8
HETATM    8  N   UNL     1     -41.938 -51.364  13.564  1.00  0.00    -0.350 N 
HETATM    9  C   UNL     1     -42.961 -50.569  14.008  1.00  0.00     0.108 A 
HETATM   10  C   UNL     1     -43.252 -49.744  12.947  1.00  0.00     0.106 A 
HETATM   11  N   UNL     1     -42.430 -50.012  11.884  1.00  0.00    -0.361 N 
HETATM   12  C   UNL     1     -41.639 -50.980  12.290  1.00  0.00     0.182 A 
ATOM     13  HN  UNL     1     -42.430 -49.556  10.972  1.00  0.00     0.166 HD
ENDBRANCH   7   8
ENDBRANCH   5   7
ENDBRANCH   1   5
BRANCH   2  14
HETATM   14  C   UNL     1     -45.282 -54.817  13.854  1.00  0.00     0.228 C 
BRANCH  14  15
HETATM   15  N   UNL     1     -45.901 -53.535  14.121  1.00  0.00    -0.343 N 
HETATM   16  C   UNL     1     -46.464 -53.206  15.404  1.00  0.00     0.127 C 
HETATM   17  C   UNL     1     -47.018 -51.802  15.241  1.00  0.00     0.029 C 
HETATM   18  C   UNL     1     -46.653 -51.360  13.827  1.00  0.00     0.104 C 
HETATM   19  C   UNL     1     -46.220 -52.623  13.141  1.00  0.00     0.220 C 
HETATM   20  O   UNL     1     -46.105 -52.792  11.939  1.00  0.00    -0.273 OA
ENDBRANCH  14  15
ENDBRANCH   2  14
TORSDOF 5
ENDMDL
MODEL 2
REMARK VINA RESULT:      -5.4      2.854      4.788
REMARK  5 active torsions:
REMARK  status: ('A' for Active; 'I' for Inactive)
REMARK    1  A    between atoms: C_2  and  C_3 
REMARK    2  A    between atoms: C_2  and  N_10 
REMARK    3  A    between atoms: C_3  and  N_4 
REMARK       I    between atoms: N_10  and  C_11 
REMARK    4  A    between atoms: C_11  and  C_13 
REMARK    5  A    between atoms: C_13  and  N_14 
ROOT
HETATM    1  N   UNL     1     -41.656 -50.216  11.543  1.00  0.00    -0.354 N 
HETATM    2  C   UNL     1     -42.256 -51.114  12.399  1.00  0.00     0.235 C 
HETATM    3  O   UNL     1     -42.928 -50.765  13.366  1.00  0.00    -0.272 OA
HETATM    4  H   UNL     1     -40.849 -50.557  11.018  1.00  0.00     0.163 HD
ENDROOT
BRANCH   1   5
HETATM    5  C   UNL     1     -41.826 -48.772  11.723  1.00  0.00     0.098 C 
HETATM    6  C   UNL     1     -40.751 -48.250  12.679  1.00  0.00     0.034 C 
BRANCH   5   7
HETATM    7  C   UNL     1     -41.780 -48.053  10.357  1.00  0.00     0.153 C 
BRANCH   7   8
HETATM    8  N   UNL     1     -43.073 -47.832   9.752  1.00  0.00    -0.350 N 
HETATM    9  C   UNL     1     -44.244 -47.593  10.419  1.00  0.00     0.108 A 
HETATM   10  C   UNL     1     -45.170 -47.352   9.431  1.00  0.00     0.106 A 
HETATM   11  N   UNL     1     -44.587 -47.428   8.192  1.00  0.00    -0.361 N 
HETATM   12  C   UNL     1     -43.322 -47.703   8.418  1.00  0.00     0.182 A 
ATOM     13  HN  UNL     1     -45.040 -47.299   7.288  1.00  0.00     0.166 HD
ENDBRANCH   7   8
ENDBRANCH   5   7
ENDBRANCH   1   5
BRANCH   2  14
HETATM   14  C   UNL     1     -41.961 -52.572  12.091  1.00  0.00     0.228 C 
BRANCH  14  15
HETATM   15  N   UNL     1     -42.500 -53.434  13.123  1.00  0.00    -0.343 N 
HETATM   16  C   UNL     1     -41.675 -54.007  14.153  1.00  0.00     0.127 C 
HETATM   17  C   UNL     1     -42.620 -54.847  14.993  1.00  0.00     0.029 C 
HETATM   18  C   UNL     1     -44.014 -54.634  14.409  1.00  0.00     0.104 C 
HETATM   19  C   UNL     1     -43.766 -53.971  13.084  1.00  0.00     0.220 C 
HETATM   20  O   UNL     1     -44.561 -53.867  12.166  1.00  0.00    -0.273 OA
ENDBRANCH  14  15
ENDBRANCH   2  14
TORSDOF 5
ENDMDL
MODEL 3
REMARK VINA RESULT:      -5.3      3.196      5.933
REMARK  5 active torsions:
REMARK  status: ('A' for Active; 'I' for Inactive)
REMARK    1  A    between atoms: C_2  and  C_3 
REMARK    2  A    between atoms: C_2  and  N_10 
REMARK    3  A    between atoms: C_3  and  N_4 
REMARK       I    between atoms: N_10  and  C_11 
REMARK    4  A    between atoms: C_11  and  C_13 
REMARK    5  A    between atoms: C_13  and  N_14 
ROOT
HETATM    1  N   UNL     1     -41.222 -52.835  14.562  1.00  0.00    -0.354 N 
HETATM    2  C   UNL     1     -40.243 -52.804  13.592  1.00  0.00     0.235 C 
HETATM    3  O   UNL     1     -40.367 -53.359  12.503  1.00  0.00    -0.272 OA
HETATM    4  H   UNL     1     -40.915 -52.685  15.524  1.00  0.00     0.163 HD
ENDROOT
BRANCH   1   5
HETATM    5  C   UNL     1     -42.501 -53.509  14.323  1.00  0.00     0.098 C 
HETATM    6  C   UNL     1     -42.470 -54.898  14.967  1.00  0.00     0.034 C 
BRANCH   5   7
HETATM    7  C   UNL     1     -43.668 -52.652  14.861  1.00  0.00     0.153 C 
BRANCH   7   8
HETATM    8  N   UNL     1     -44.723 -52.409  13.905  1.00  0.00    -0.350 N 
HETATM    9  C   UNL     1     -45.758 -51.526  14.055  1.00  0.00     0.108 A 
HETATM   10  C   UNL     1     -46.437 -51.573  12.860  1.00  0.00     0.106 A 
HETATM   11  N   UNL     1     -45.835 -52.450  11.994  1.00  0.00    -0.361 N 
HETATM   12  C   UNL     1     -44.797 -52.926  12.646  1.00  0.00     0.182 A 
ATOM     13  HN  UNL     1     -46.130 -52.683  11.047  1.00  0.00     0.166 HD
ENDBRANCH   7   8
ENDBRANCH   5   7
ENDBRANCH   1   5
BRANCH   2  14
HETATM   14  C   UNL     1     -38.969 -52.089  14.005  1.00  0.00     0.228 C 
BRANCH  14  15
HETATM   15  N   UNL     1     -38.678 -50.995  13.102  1.00  0.00    -0.343 N 
HETATM   16  C   UNL     1     -39.630 -49.951  12.828  1.00  0.00     0.127 C 
HETATM   17  C   UNL     1     -38.938 -49.040  11.830  1.00  0.00     0.029 C 
HETATM   18  C   UNL     1     -37.533 -49.604  11.639  1.00  0.00     0.104 C 
HETATM   19  C   UNL     1     -37.594 -50.973  12.255  1.00  0.00     0.220 C 
HETATM   20  O   UNL     1     -36.792 -51.877  12.092  1.00  0.00    -0.273 OA
ENDBRANCH  14  15
ENDBRANCH   2  14
TORSDOF 5
ENDMDL
MODEL 4
REMARK VINA RESULT:      -5.3      1.935      2.183
REMARK  5 active torsions:
REMARK  status: ('A' for Active; 'I' for Inactive)
REMARK    1  A    between atoms: C_2  and  C_3 
REMARK    2  A    between atoms: C_2  and  N_10 
REMARK    3  A    between atoms: C_3  and  N_4 
REMARK       I    between atoms: N_10  and  C_11 
REMARK    4  A    between atoms: C_11  and  C_13 
REMARK    5  A    between atoms: C_13  and  N_14 
ROOT
HETATM    1  N   UNL     1     -42.006 -54.551  15.093  1.00  0.00    -0.354 N 
HETATM    2  C   UNL     1     -42.940 -53.557  15.284  1.00  0.00     0.235 C 
HETATM    3  O   UNL     1     -42.634 -52.387  15.502  1.00  0.00    -0.272 OA
HETATM    4  H   UNL     1     -42.311 -55.506  15.284  1.00  0.00     0.163 HD
ENDROOT
BRANCH   1   5
HETATM    5  C   UNL     1     -40.571 -54.251  15.100  1.00  0.00     0.098 C 
HETATM    6  C   UNL     1     -39.836 -55.308  15.929  1.00  0.00     0.034 C 
BRANCH   5   7
HETATM    7  C   UNL     1     -40.032 -54.175  13.655  1.00  0.00     0.153 C 
BRANCH   7   8
HETATM    8  N   UNL     1     -40.283 -52.920  12.987  1.00  0.00    -0.350 N 
HETATM    9  C   UNL     1     -39.639 -51.736  13.227  1.00  0.00     0.108 A 
HETATM   10  C   UNL     1     -40.145 -50.864  12.292  1.00  0.00     0.106 A 
HETATM   11  N   UNL     1     -41.065 -51.490  11.491  1.00  0.00    -0.361 N 
HETATM   12  C   UNL     1     -41.115 -52.731  11.923  1.00  0.00     0.182 A 
ATOM     13  HN  UNL     1     -41.596 -51.081  10.723  1.00  0.00     0.166 HD
ENDBRANCH   7   8
ENDBRANCH   5   7
ENDBRANCH   1   5
BRANCH   2  14
HETATM   14  C   UNL     1     -44.381 -54.036  15.273  1.00  0.00     0.228 C 
BRANCH  14  15
HETATM   15  N   UNL     1     -45.232 -53.092  14.578  1.00  0.00    -0.343 N 
HETATM   16  C   UNL     1     -46.099 -52.181  15.276  1.00  0.00     0.127 C 
HETATM   17  C   UNL     1     -46.815 -51.405  14.185  1.00  0.00     0.029 C 
HETATM   18  C   UNL     1     -46.229 -51.890  12.862  1.00  0.00     0.104 C 
HETATM   19  C   UNL     1     -45.471 -53.134  13.223  1.00  0.00     0.220 C 
HETATM   20  O   UNL     1     -45.078 -53.993  12.452  1.00  0.00    -0.273 OA
ENDBRANCH  14  15
ENDBRANCH   2  14
TORSDOF 5
ENDMDL
MODEL 5
REMARK VINA RESULT:      -5.1      5.310      7.370
REMARK  5 active torsions:
REMARK  status: ('A' for Active; 'I' for Inactive)
REMARK    1  A    between atoms: C_2  and  C_3 
REMARK    2  A    between atoms: C_2  and  N_10 
REMARK    3  A    between atoms: C_3  and  N_4 
REMARK       I    between atoms: N_10  and  C_11 
REMARK    4  A    between atoms: C_11  and  C_13 
REMARK    5  A    between atoms: C_13  and  N_14 
ROOT
HETATM    1  N   UNL     1     -41.009 -47.728  10.824  1.00  0.00    -0.354 N 
HETATM    2  C   UNL     1     -41.211 -49.014  11.275  1.00  0.00     0.235 C 
HETATM    3  O   UNL     1     -42.231 -49.360  11.867  1.00  0.00    -0.272 OA
HETATM    4  H   UNL     1     -40.038 -47.440  10.688  1.00  0.00     0.163 HD
ENDROOT
BRANCH   1   5
HETATM    5  C   UNL     1     -42.036 -46.697  10.992  1.00  0.00     0.098 C 
HETATM    6  C   UNL     1     -41.459 -45.534  11.802  1.00  0.00     0.034 C 
BRANCH   5   7
HETATM    7  C   UNL     1     -42.564 -46.235   9.616  1.00  0.00     0.153 C 
BRANCH   7   8
HETATM    8  N   UNL     1     -43.628 -47.050   9.079  1.00  0.00    -0.350 N 
HETATM    9  C   UNL     1     -44.882 -47.191   9.610  1.00  0.00     0.108 A 
HETATM   10  C   UNL     1     -45.561 -47.975   8.707  1.00  0.00     0.106 A 
HETATM   11  N   UNL     1     -44.757 -48.300   7.645  1.00  0.00    -0.361 N 
HETATM   12  C   UNL     1     -43.604 -47.716   7.889  1.00  0.00     0.182 A 
ATOM     13  HN  UNL     1     -45.001 -48.872   6.838  1.00  0.00     0.166 HD
ENDBRANCH   7   8
ENDBRANCH   5   7
ENDBRANCH   1   5
BRANCH   2  14
HETATM   14  C   UNL     1     -40.041 -49.954  11.046  1.00  0.00     0.228 C 
BRANCH  14  15
HETATM   15  N   UNL     1     -39.264 -50.113  12.259  1.00  0.00    -0.343 N 
HETATM   16  C   UNL     1     -38.260 -49.164  12.657  1.00  0.00     0.127 C 
HETATM   17  C   UNL     1     -37.685 -49.718  13.948  1.00  0.00     0.029 C 
HETATM   18  C   UNL     1     -38.487 -50.976  14.267  1.00  0.00     0.104 C 
HETATM   19  C   UNL     1     -39.238 -51.272  13.000  1.00  0.00     0.220 C 
HETATM   20  O   UNL     1     -39.783 -52.323  12.710  1.00  0.00    -0.273 OA
ENDBRANCH  14  15
ENDBRANCH   2  14
TORSDOF 5
ENDMDL
MODEL 6
REMARK VINA RESULT:      -4.9      2.665      3.800
REMARK  5 active torsions:
REMARK  status: ('A' for Active; 'I' for Inactive)
REMARK    1  A    between atoms: C_2  and  C_3 
REMARK    2  A    between atoms: C_2  and  N_10 
REMARK    3  A    between atoms: C_3  and  N_4 
REMARK       I    between atoms: N_10  and  C_11 
REMARK    4  A    between atoms: C_11  and  C_13 
REMARK    5  A    between atoms: C_13  and  N_14 
ROOT
HETATM    1  N   UNL     1     -42.282 -50.423  12.923  1.00  0.00    -0.354 N 
HETATM    2  C   UNL     1     -42.182 -51.784  12.734  1.00  0.00     0.235 C 
HETATM    3  O   UNL     1     -41.582 -52.283  11.785  1.00  0.00    -0.272 OA
HETATM    4  H   UNL     1     -43.069 -50.098  13.487  1.00  0.00     0.163 HD
ENDROOT
BRANCH   1   5
HETATM    5  C   UNL     1     -41.631 -49.483  12.007  1.00  0.00     0.098 C 
HETATM    6  C   UNL     1     -42.639 -48.415  11.575  1.00  0.00     0.034 C 
BRANCH   5   7
HETATM    7  C   UNL     1     -40.384 -48.861  12.674  1.00  0.00     0.153 C 
BRANCH   7   8
HETATM    8  N   UNL     1     -39.175 -49.637  12.524  1.00  0.00    -0.350 N 
HETATM    9  C   UNL     1     -38.613 -50.445  13.476  1.00  0.00     0.108 A 
HETATM   10  C   UNL     1     -37.546 -51.042  12.846  1.00  0.00     0.106 A 
HETATM   11  N   UNL     1     -37.457 -50.625  11.543  1.00  0.00    -0.361 N 
HETATM   12  C   UNL     1     -38.460 -49.792  11.374  1.00  0.00     0.182 A 
ATOM     13  HN  UNL     1     -36.760 -50.902  10.852  1.00  0.00     0.166 HD
ENDBRANCH   7   8
ENDBRANCH   5   7
ENDBRANCH   1   5
BRANCH   2  14
HETATM   14  C   UNL     1     -42.935 -52.620  13.755  1.00  0.00     0.228 C 
BRANCH  14  15
HETATM   15  N   UNL     1     -44.310 -52.178  13.867  1.00  0.00    -0.343 N 
HETATM   16  C   UNL     1     -44.815 -51.535  15.050  1.00  0.00     0.127 C 
HETATM   17  C   UNL     1     -46.280 -51.267  14.756  1.00  0.00     0.029 C 
HETATM   18  C   UNL     1     -46.519 -51.728  13.321  1.00  0.00     0.104 C 
HETATM   19  C   UNL     1     -45.300 -52.535  12.981  1.00  0.00     0.220 C 
HETATM   20  O   UNL     1     -45.183 -53.314  12.050  1.00  0.00    -0.273 OA
ENDBRANCH  14  15
ENDBRANCH   2  14
TORSDOF 5
ENDMDL
MODEL 7
REMARK VINA RESULT:      -4.8      1.413      1.763
REMARK  5 active torsions:
REMARK  status: ('A' for Active; 'I' for Inactive)
REMARK    1  A    between atoms: C_2  and  C_3 
REMARK    2  A    between atoms: C_2  and  N_10 
REMARK    3  A    between atoms: C_3  and  N_4 
REMARK       I    between atoms: N_10  and  C_11 
REMARK    4  A    between atoms: C_11  and  C_13 
REMARK    5  A    between atoms: C_13  and  N_14 
ROOT
HETATM    1  N   UNL     1     -42.403 -53.564  13.646  1.00  0.00    -0.354 N 
HETATM    2  C   UNL     1     -42.926 -53.558  14.921  1.00  0.00     0.235 C 
HETATM    3  O   UNL     1     -42.283 -53.195  15.903  1.00  0.00    -0.272 OA
HETATM    4  H   UNL     1     -42.842 -54.199  12.977  1.00  0.00     0.163 HD
ENDROOT
BRANCH   1   5
HETATM    5  C   UNL     1     -41.042 -53.090  13.385  1.00  0.00     0.098 C 
HETATM    6  C   UNL     1     -40.062 -54.258  13.524  1.00  0.00     0.034 C 
BRANCH   5   7
HETATM    7  C   UNL     1     -40.961 -52.435  11.989  1.00  0.00     0.153 C 
BRANCH   7   8
HETATM    8  N   UNL     1     -40.987 -50.991  12.002  1.00  0.00    -0.350 N 
HETATM    9  C   UNL     1     -39.977 -50.162  11.592  1.00  0.00     0.108 A 
HETATM   10  C   UNL     1     -40.497 -48.893  11.699  1.00  0.00     0.106 A 
HETATM   11  N   UNL     1     -41.791 -48.936  12.150  1.00  0.00    -0.361 N 
HETATM   12  C   UNL     1     -42.064 -50.212  12.309  1.00  0.00     0.182 A 
ATOM     13  HN  UNL     1     -42.411 -48.145  12.325  1.00  0.00     0.166 HD
ENDBRANCH   7   8
ENDBRANCH   5   7
ENDBRANCH   1   5
BRANCH   2  14
HETATM   14  C   UNL     1     -44.339 -54.104  15.026  1.00  0.00     0.228 C 
BRANCH  14  15
HETATM   15  N   UNL     1     -45.312 -53.076  14.718  1.00  0.00    -0.343 N 
HETATM   16  C   UNL     1     -46.077 -52.413  15.740  1.00  0.00     0.127 C 
HETATM   17  C   UNL     1     -46.976 -51.445  14.992  1.00  0.00     0.029 C 
HETATM   18  C   UNL     1     -46.599 -51.564  13.518  1.00  0.00     0.104 C 
HETATM   19  C   UNL     1     -45.764 -52.810  13.446  1.00  0.00     0.220 C 
HETATM   20  O   UNL     1     -45.480 -53.435  12.438  1.00  0.00    -0.273 OA
ENDBRANCH  14  15
ENDBRANCH   2  14
TORSDOF 5
ENDMDL
MODEL 8
REMARK VINA RESULT:      -4.8      3.008      5.782
REMARK  5 active torsions:
REMARK  status: ('A' for Active; 'I' for Inactive)
REMARK    1  A    between atoms: C_2  and  C_3 
REMARK    2  A    between atoms: C_2  and  N_10 
REMARK    3  A    between atoms: C_3  and  N_4 
REMARK       I    between atoms: N_10  and  C_11 
REMARK    4  A    between atoms: C_11  and  C_13 
REMARK    5  A    between atoms: C_13  and  N_14 
ROOT
HETATM    1  N   UNL     1     -41.977 -52.384  14.209  1.00  0.00    -0.354 N 
HETATM    2  C   UNL     1     -41.570 -51.795  13.031  1.00  0.00     0.235 C 
HETATM    3  O   UNL     1     -41.629 -52.367  11.945  1.00  0.00    -0.272 OA
HETATM    4  H   UNL     1     -41.569 -52.013  15.068  1.00  0.00     0.163 HD
ENDROOT
BRANCH   1   5
HETATM    5  C   UNL     1     -42.549 -53.733  14.221  1.00  0.00     0.098 C 
HETATM    6  C   UNL     1     -41.667 -54.650  15.072  1.00  0.00     0.034 C 
BRANCH   5   7
HETATM    7  C   UNL     1     -44.004 -53.693  14.737  1.00  0.00     0.153 C 
BRANCH   7   8
HETATM    8  N   UNL     1     -44.922 -52.972  13.886  1.00  0.00    -0.350 N 
HETATM    9  C   UNL     1     -45.719 -51.926  14.264  1.00  0.00     0.108 A 
HETATM   10  C   UNL     1     -46.331 -51.512  13.104  1.00  0.00     0.106 A 
HETATM   11  N   UNL     1     -45.918 -52.271  12.040  1.00  0.00    -0.361 N 
HETATM   12  C   UNL     1     -45.058 -53.132  12.538  1.00  0.00     0.182 A 
ATOM     13  HN  UNL     1     -46.215 -52.186  11.068  1.00  0.00     0.166 HD
ENDBRANCH   7   8
ENDBRANCH   5   7
ENDBRANCH   1   5
BRANCH   2  14
HETATM   14  C   UNL     1     -40.977 -50.407  13.192  1.00  0.00     0.228 C 
BRANCH  14  15
HETATM   15  N   UNL     1     -39.600 -50.381  12.742  1.00  0.00    -0.343 N 
HETATM   16  C   UNL     1     -38.597 -51.255  13.288  1.00  0.00     0.127 C 
HETATM   17  C   UNL     1     -37.315 -50.884  12.564  1.00  0.00     0.029 C 
HETATM   18  C   UNL     1     -37.696 -49.818  11.541  1.00  0.00     0.104 C 
HETATM   19  C   UNL     1     -39.076 -49.387  11.948  1.00  0.00     0.220 C 
HETATM   20  O   UNL     1     -39.656 -48.376  11.587  1.00  0.00    -0.273 OA
ENDBRANCH  14  15
ENDBRANCH   2  14
TORSDOF 5
ENDMDL
MODEL 9
REMARK VINA RESULT:      -4.7      3.043      4.182
REMARK  5 active torsions:
REMARK  status: ('A' for Active; 'I' for Inactive)
REMARK    1  A    between atoms: C_2  and  C_3 
REMARK    2  A    between atoms: C_2  and  N_10 
REMARK    3  A    between atoms: C_3  and  N_4 
REMARK       I    between atoms: N_10  and  C_11 
REMARK    4  A    between atoms: C_11  and  C_13 
REMARK    5  A    between atoms: C_13  and  N_14 
ROOT
HETATM    1  N   UNL     1     -41.893 -50.503  11.746  1.00  0.00    -0.354 N 
HETATM    2  C   UNL     1     -41.917 -51.259  12.898  1.00  0.00     0.235 C 
HETATM    3  O   UNL     1     -41.289 -50.954  13.908  1.00  0.00    -0.272 OA
HETATM    4  H   UNL     1     -42.120 -50.989  10.877  1.00  0.00     0.163 HD
ENDROOT
BRANCH   1   5
HETATM    5  C   UNL     1     -41.135 -49.250  11.680  1.00  0.00     0.098 C 
HETATM    6  C   UNL     1     -39.663 -49.562  11.399  1.00  0.00     0.034 C 
BRANCH   5   7
HETATM    7  C   UNL     1     -41.739 -48.314  10.611  1.00  0.00     0.153 C 
BRANCH   7   8
HETATM    8  N   UNL     1     -41.836 -46.930  11.013  1.00  0.00    -0.350 N 
HETATM    9  C   UNL     1     -42.575 -46.444  12.058  1.00  0.00     0.108 A 
HETATM   10  C   UNL     1     -42.275 -45.103  12.108  1.00  0.00     0.106 A 
HETATM   11  N   UNL     1     -41.372 -44.771  11.132  1.00  0.00    -0.361 N 
HETATM   12  C   UNL     1     -41.114 -45.894  10.499  1.00  0.00     0.182 A 
ATOM     13  HN  UNL     1     -40.983 -43.849  10.938  1.00  0.00     0.166 HD
ENDBRANCH   7   8
ENDBRANCH   5   7
ENDBRANCH   1   5
BRANCH   2  14
HETATM   14  C   UNL     1     -42.727 -52.540  12.794  1.00  0.00     0.228 C 
BRANCH  14  15
HETATM   15  N   UNL     1     -44.121 -52.293  13.101  1.00  0.00    -0.343 N 
HETATM   16  C   UNL     1     -44.544 -51.179  13.906  1.00  0.00     0.127 C 
HETATM   17  C   UNL     1     -46.054 -51.310  13.996  1.00  0.00     0.029 C 
HETATM   18  C   UNL     1     -46.431 -52.509  13.131  1.00  0.00     0.104 C 
HETATM   19  C   UNL     1     -45.125 -53.204  12.867  1.00  0.00     0.220 C 
HETATM   20  O   UNL     1     -44.981 -54.342  12.455  1.00  0.00    -0.273 OA
ENDBRANCH  14  15
ENDBRANCH   2  14
TORSDOF 5
ENDMDL
