MODEL 1
REMARK VINA RESULT:      -6.6      0.000      0.000
REMARK  5 active torsions:
REMARK  status: ('A' for Active; 'I' for Inactive)
REMARK    1  A    between atoms: N_4  and  C_9 
REMARK    2  A    between atoms: C_12  and  N_13 
REMARK       I    between atoms: N_13  and  C_14 
REMARK       I    between atoms: C_14  and  N_16 
REMARK    3  A    between atoms: N_16  and  C_17 
REMARK    4  A    between atoms: C_17  and  C_18 
REMARK    5  A    between atoms: C_18  and  C_21 
REMARK       I    between atoms: C_21  and  N_23 
ROOT
HETATM    1  C   UNL     1     -40.377 -53.181  13.730  1.00  0.00     0.103 A 
HETATM    2  C   UNL     1     -39.451 -52.145  13.676  1.00  0.00     0.051 A 
HETATM    3  C   UNL     1     -39.566 -51.127  12.732  1.00  0.00     0.035 A 
HETATM    4  C   UNL     1     -40.599 -51.144  11.809  1.00  0.00     0.051 A 
HETATM    5  C   UNL     1     -41.470 -52.222  11.897  1.00  0.00     0.119 A 
HETATM    6  N   UNL     1     -41.379 -53.220  12.822  1.00  0.00    -0.350 N 
ATOM      7  HN  UNL     1     -42.056 -53.983  12.829  1.00  0.00     0.166 HD
ENDROOT
BRANCH   4   8
HETATM    8  N   UNL     1     -40.789 -50.122  10.853  1.00  0.00    -0.308 N 
HETATM    9  C   UNL     1     -41.512 -48.972  11.068  1.00  0.00     0.320 C 
HETATM   10  O   UNL     1     -41.953 -48.593  12.149  1.00  0.00    -0.247 OA
HETATM   11  N   UNL     1     -41.761 -48.266   9.912  1.00  0.00    -0.342 N 
HETATM   12  H   UNL     1     -41.049 -48.304   9.193  1.00  0.00     0.164 HD
HETATM   13  H   UNL     1     -40.304 -50.204   9.970  1.00  0.00     0.170 HD
BRANCH  11  14
HETATM   14  C   UNL     1     -42.447 -46.986  10.026  1.00  0.00     0.142 C 
BRANCH  14  15
HETATM   15  C   UNL     1     -43.747 -46.872   9.205  1.00  0.00     0.049 C 
HETATM   16  C   UNL     1     -44.892 -47.618   9.911  1.00  0.00     0.027 C 
HETATM   17  C   UNL     1     -44.100 -45.377   9.100  1.00  0.00     0.027 C 
BRANCH  15  18
HETATM   18  C   UNL     1     -43.531 -47.452   7.805  1.00  0.00     0.225 C 
HETATM   19  O   UNL     1     -44.040 -48.500   7.413  1.00  0.00    -0.273 OA
HETATM   20  N   UNL     1     -42.752 -46.724   6.955  1.00  0.00    -0.369 N 
HETATM   21  H   UNL     1     -42.360 -45.822   7.189  1.00  0.00     0.159 HD
HETATM   22  H   UNL     1     -42.615 -47.082   6.019  1.00  0.00     0.159 HD
ENDBRANCH  15  18
ENDBRANCH  14  15
ENDBRANCH  11  14
ENDBRANCH   4   8
BRANCH   1  23
HETATM   23  N   UNL     1     -40.267 -54.186  14.660  1.00  0.00    -0.362 N 
HETATM   24  C   UNL     1     -38.996 -54.893  14.852  1.00  0.00     0.156 C 
HETATM   25  C   UNL     1     -38.767 -55.111  16.369  1.00  0.00     0.136 C 
HETATM   26  C   UNL     1     -38.365 -53.816  17.075  1.00  0.00     0.041 C 
HETATM   27  O   UNL     1     -39.904 -55.728  17.018  1.00  0.00    -0.378 OA
HETATM   28  C   UNL     1     -41.137 -55.025  16.777  1.00  0.00     0.136 C 
HETATM   29  C   UNL     1     -41.404 -54.883  15.266  1.00  0.00     0.156 C 
HETATM   30  C   UNL     1     -42.267 -55.792  17.451  1.00  0.00     0.041 C 
ENDBRANCH   1  23
TORSDOF 5
ENDMDL
MODEL 2
REMARK VINA RESULT:      -6.5      3.139      4.102
REMARK  5 active torsions:
REMARK  status: ('A' for Active; 'I' for Inactive)
REMARK    1  A    between atoms: N_4  and  C_9 
REMARK    2  A    between atoms: C_12  and  N_13 
REMARK       I    between atoms: N_13  and  C_14 
REMARK       I    between atoms: C_14  and  N_16 
REMARK    3  A    between atoms: N_16  and  C_17 
REMARK    4  A    between atoms: C_17  and  C_18 
REMARK    5  A    between atoms: C_18  and  C_21 
REMARK       I    between atoms: C_21  and  N_23 
ROOT
HETATM    1  C   UNL     1     -41.809 -51.411  12.228  1.00  0.00     0.103 A 
HETATM    2  C   UNL     1     -42.631 -50.330  12.530  1.00  0.00     0.051 A 
HETATM    3  C   UNL     1     -42.374 -49.064  12.008  1.00  0.00     0.035 A 
HETATM    4  C   UNL     1     -41.274 -48.854  11.193  1.00  0.00     0.051 A 
HETATM    5  C   UNL     1     -40.477 -49.967  10.956  1.00  0.00     0.119 A 
HETATM    6  N   UNL     1     -40.719 -51.215  11.449  1.00  0.00    -0.350 N 
ATOM      7  HN  UNL     1     -40.091 -51.988  11.233  1.00  0.00     0.166 HD
ENDROOT
BRANCH   4   8
HETATM    8  N   UNL     1     -40.984 -47.604  10.606  1.00  0.00    -0.308 N 
HETATM    9  C   UNL     1     -40.448 -46.528  11.276  1.00  0.00     0.320 C 
HETATM   10  O   UNL     1     -40.000 -46.545  12.418  1.00  0.00    -0.247 OA
HETATM   11  N   UNL     1     -40.501 -45.359  10.550  1.00  0.00    -0.342 N 
HETATM   12  H   UNL     1     -40.410 -45.442   9.544  1.00  0.00     0.164 HD
HETATM   13  H   UNL     1     -41.113 -47.509   9.608  1.00  0.00     0.170 HD
BRANCH  11  14
HETATM   14  C   UNL     1     -39.887 -44.169  11.123  1.00  0.00     0.142 C 
BRANCH  14  15
HETATM   15  C   UNL     1     -40.832 -43.298  11.975  1.00  0.00     0.049 C 
HETATM   16  C   UNL     1     -40.510 -43.463  13.470  1.00  0.00     0.027 C 
HETATM   17  C   UNL     1     -40.608 -41.831  11.563  1.00  0.00     0.027 C 
BRANCH  15  18
HETATM   18  C   UNL     1     -42.286 -43.694  11.708  1.00  0.00     0.225 C 
HETATM   19  O   UNL     1     -42.850 -43.538  10.626  1.00  0.00    -0.273 OA
HETATM   20  N   UNL     1     -42.959 -44.281  12.738  1.00  0.00    -0.369 N 
HETATM   21  H   UNL     1     -42.537 -44.501  13.629  1.00  0.00     0.159 HD
HETATM   22  H   UNL     1     -43.915 -44.568  12.573  1.00  0.00     0.159 HD
ENDBRANCH  15  18
ENDBRANCH  14  15
ENDBRANCH  11  14
ENDBRANCH   4   8
BRANCH   1  23
HETATM   23  N   UNL     1     -42.059 -52.661  12.741  1.00  0.00    -0.362 N 
HETATM   24  C   UNL     1     -40.956 -53.547  13.125  1.00  0.00     0.156 C 
HETATM   25  C   UNL     1     -41.319 -54.254  14.456  1.00  0.00     0.136 C 
HETATM   26  C   UNL     1     -41.215 -53.304  15.649  1.00  0.00     0.041 C 
HETATM   27  O   UNL     1     -42.617 -54.891  14.408  1.00  0.00    -0.378 OA
HETATM   28  C   UNL     1     -43.667 -53.998  13.993  1.00  0.00     0.136 C 
HETATM   29  C   UNL     1     -43.341 -53.361  12.628  1.00  0.00     0.156 C 
HETATM   30  C   UNL     1     -44.968 -54.786  13.918  1.00  0.00     0.041 C 
ENDBRANCH   1  23
TORSDOF 5
ENDMDL
MODEL 3
REMARK VINA RESULT:      -6.4      1.158      2.069
REMARK  5 active torsions:
REMARK  status: ('A' for Active; 'I' for Inactive)
REMARK    1  A    between atoms: N_4  and  C_9 
REMARK    2  A    between atoms: C_12  and  N_13 
REMARK       I    between atoms: N_13  and  C_14 
REMARK       I    between atoms: C_14  and  N_16 
REMARK    3  A    between atoms: N_16  and  C_17 
REMARK    4  A    between atoms: C_17  and  C_18 
REMARK    5  A    between atoms: C_18  and  C_21 
REMARK       I    between atoms: C_21  and  N_23 
ROOT
HETATM    1  C   UNL     1     -40.330 -52.572  14.542  1.00  0.00     0.103 A 
HETATM    2  C   UNL     1     -41.622 -52.334  14.083  1.00  0.00     0.051 A 
HETATM    3  C   UNL     1     -41.850 -51.537  12.964  1.00  0.00     0.035 A 
HETATM    4  C   UNL     1     -40.789 -50.945  12.299  1.00  0.00     0.051 A 
HETATM    5  C   UNL     1     -39.529 -51.198  12.827  1.00  0.00     0.119 A 
HETATM    6  N   UNL     1     -39.286 -51.984  13.913  1.00  0.00    -0.350 N 
ATOM      7  HN  UNL     1     -38.333 -52.126  14.247  1.00  0.00     0.166 HD
ENDROOT
BRANCH   4   8
HETATM    8  N   UNL     1     -40.956 -50.158  11.138  1.00  0.00    -0.308 N 
HETATM    9  C   UNL     1     -41.535 -48.911  11.113  1.00  0.00     0.320 C 
HETATM   10  O   UNL     1     -41.840 -48.241  12.095  1.00  0.00    -0.247 OA
HETATM   11  N   UNL     1     -41.811 -48.469   9.838  1.00  0.00    -0.342 N 
HETATM   12  H   UNL     1     -41.172 -48.760   9.107  1.00  0.00     0.164 HD
HETATM   13  H   UNL     1     -40.561 -50.502  10.274  1.00  0.00     0.170 HD
BRANCH  11  14
HETATM   14  C   UNL     1     -42.349 -47.126   9.680  1.00  0.00     0.142 C 
BRANCH  14  15
HETATM   15  C   UNL     1     -43.804 -47.065   9.174  1.00  0.00     0.049 C 
HETATM   16  C   UNL     1     -44.769 -47.575  10.258  1.00  0.00     0.027 C 
HETATM   17  C   UNL     1     -44.124 -45.592   8.858  1.00  0.00     0.027 C 
BRANCH  15  18
HETATM   18  C   UNL     1     -43.950 -47.910   7.907  1.00  0.00     0.225 C 
HETATM   19  O   UNL     1     -43.012 -48.201   7.167  1.00  0.00    -0.273 OA
HETATM   20  N   UNL     1     -45.198 -48.380   7.625  1.00  0.00    -0.369 N 
HETATM   21  H   UNL     1     -45.999 -48.237   8.225  1.00  0.00     0.159 HD
HETATM   22  H   UNL     1     -45.309 -48.957   6.802  1.00  0.00     0.159 HD
ENDBRANCH  15  18
ENDBRANCH  14  15
ENDBRANCH  11  14
ENDBRANCH   4   8
BRANCH   1  23
HETATM   23  N   UNL     1     -40.101 -53.358  15.646  1.00  0.00    -0.362 N 
HETATM   24  C   UNL     1     -41.064 -53.396  16.751  1.00  0.00     0.156 C 
HETATM   25  C   UNL     1     -41.209 -54.860  17.241  1.00  0.00     0.136 C 
HETATM   26  C   UNL     1     -42.020 -55.708  16.261  1.00  0.00     0.041 C 
HETATM   27  O   UNL     1     -39.932 -55.475  17.531  1.00  0.00    -0.378 OA
HETATM   28  C   UNL     1     -39.003 -55.386  16.435  1.00  0.00     0.136 C 
HETATM   29  C   UNL     1     -38.796 -53.920  16.006  1.00  0.00     0.156 C 
HETATM   30  C   UNL     1     -37.682 -56.007  16.872  1.00  0.00     0.041 C 
ENDBRANCH   1  23
TORSDOF 5
ENDMDL
MODEL 4
REMARK VINA RESULT:      -6.2      2.303      2.730
REMARK  5 active torsions:
REMARK  status: ('A' for Active; 'I' for Inactive)
REMARK    1  A    between atoms: N_4  and  C_9 
REMARK    2  A    between atoms: C_12  and  N_13 
REMARK       I    between atoms: N_13  and  C_14 
REMARK       I    between atoms: C_14  and  N_16 
REMARK    3  A    between atoms: N_16  and  C_17 
REMARK    4  A    between atoms: C_17  and  C_18 
REMARK    5  A    between atoms: C_18  and  C_21 
REMARK       I    between atoms: C_21  and  N_23 
ROOT
HETATM    1  C   UNL     1     -40.060 -52.282  13.188  1.00  0.00     0.103 A 
HETATM    2  C   UNL     1     -38.878 -51.549  13.206  1.00  0.00     0.051 A 
HETATM    3  C   UNL     1     -38.760 -50.359  12.491  1.00  0.00     0.035 A 
HETATM    4  C   UNL     1     -39.817 -49.895  11.726  1.00  0.00     0.051 A 
HETATM    5  C   UNL     1     -40.957 -50.689  11.727  1.00  0.00     0.119 A 
HETATM    6  N   UNL     1     -41.094 -51.849  12.429  1.00  0.00    -0.350 N 
ATOM      7  HN  UNL     1     -41.962 -52.383  12.383  1.00  0.00     0.166 HD
ENDROOT
BRANCH   4   8
HETATM    8  N   UNL     1     -39.769 -48.678  11.012  1.00  0.00    -0.308 N 
HETATM    9  C   UNL     1     -39.726 -47.431  11.590  1.00  0.00     0.320 C 
HETATM   10  O   UNL     1     -39.561 -47.198  12.783  1.00  0.00    -0.247 OA
HETATM   11  N   UNL     1     -39.944 -46.411  10.690  1.00  0.00    -0.342 N 
HETATM   12  H   UNL     1     -39.609 -46.557   9.745  1.00  0.00     0.164 HD
HETATM   13  H   UNL     1     -39.692 -48.724  10.006  1.00  0.00     0.170 HD
BRANCH  11  14
HETATM   14  C   UNL     1     -39.838 -45.040  11.171  1.00  0.00     0.142 C 
BRANCH  14  15
HETATM   15  C   UNL     1     -41.180 -44.379  11.544  1.00  0.00     0.049 C 
HETATM   16  C   UNL     1     -41.357 -44.353  13.072  1.00  0.00     0.027 C 
HETATM   17  C   UNL     1     -41.150 -42.935  11.009  1.00  0.00     0.027 C 
BRANCH  15  18
HETATM   18  C   UNL     1     -42.336 -45.146  10.898  1.00  0.00     0.225 C 
HETATM   19  O   UNL     1     -42.548 -45.171   9.687  1.00  0.00    -0.273 OA
HETATM   20  N   UNL     1     -43.140 -45.860  11.736  1.00  0.00    -0.369 N 
HETATM   21  H   UNL     1     -42.983 -45.939  12.731  1.00  0.00     0.159 HD
HETATM   22  H   UNL     1     -43.897 -46.389  11.324  1.00  0.00     0.159 HD
ENDBRANCH  15  18
ENDBRANCH  14  15
ENDBRANCH  11  14
ENDBRANCH   4   8
BRANCH   1  23
HETATM   23  N   UNL     1     -40.181 -53.456  13.891  1.00  0.00    -0.362 N 
HETATM   24  C   UNL     1     -39.000 -54.271  14.196  1.00  0.00     0.156 C 
HETATM   25  C   UNL     1     -39.116 -54.799  15.649  1.00  0.00     0.136 C 
HETATM   26  C   UNL     1     -38.850 -53.699  16.676  1.00  0.00     0.041 C 
HETATM   27  O   UNL     1     -40.382 -55.453  15.900  1.00  0.00    -0.378 OA
HETATM   28  C   UNL     1     -41.515 -54.635  15.556  1.00  0.00     0.136 C 
HETATM   29  C   UNL     1     -41.440 -54.180  14.085  1.00  0.00     0.156 C 
HETATM   30  C   UNL     1     -42.784 -55.441  15.802  1.00  0.00     0.041 C 
ENDBRANCH   1  23
TORSDOF 5
ENDMDL
MODEL 5
REMARK VINA RESULT:      -6.1      5.091     10.429
REMARK  5 active torsions:
REMARK  status: ('A' for Active; 'I' for Inactive)
REMARK    1  A    between atoms: N_4  and  C_9 
REMARK    2  A    between atoms: C_12  and  N_13 
REMARK       I    between atoms: N_13  and  C_14 
REMARK       I    between atoms: C_14  and  N_16 
REMARK    3  A    between atoms: N_16  and  C_17 
REMARK    4  A    between atoms: C_17  and  C_18 
REMARK    5  A    between atoms: C_18  and  C_21 
REMARK       I    between atoms: C_21  and  N_23 
ROOT
HETATM    1  C   UNL     1     -41.486 -54.062  14.817  1.00  0.00     0.103 A 
HETATM    2  C   UNL     1     -41.560 -55.004  15.839  1.00  0.00     0.051 A 
HETATM    3  C   UNL     1     -40.409 -55.605  16.345  1.00  0.00     0.035 A 
HETATM    4  C   UNL     1     -39.167 -55.291  15.819  1.00  0.00     0.051 A 
HETATM    5  C   UNL     1     -39.167 -54.368  14.781  1.00  0.00     0.119 A 
HETATM    6  N   UNL     1     -40.280 -53.761  14.282  1.00  0.00    -0.350 N 
ATOM      7  HN  UNL     1     -40.207 -53.091  13.517  1.00  0.00     0.166 HD
ENDROOT
BRANCH   4   8
HETATM    8  N   UNL     1     -37.964 -55.839  16.315  1.00  0.00    -0.308 N 
HETATM    9  C   UNL     1     -37.241 -55.322  17.364  1.00  0.00     0.320 C 
HETATM   10  O   UNL     1     -37.608 -54.422  18.114  1.00  0.00    -0.247 OA
HETATM   11  N   UNL     1     -35.988 -55.882  17.485  1.00  0.00    -0.342 N 
HETATM   12  H   UNL     1     -35.898 -56.856  17.223  1.00  0.00     0.164 HD
HETATM   13  H   UNL     1     -37.645 -56.712  15.920  1.00  0.00     0.170 HD
BRANCH  11  14
HETATM   14  C   UNL     1     -35.162 -55.472  18.612  1.00  0.00     0.142 C 
BRANCH  14  15
HETATM   15  C   UNL     1     -33.764 -56.122  18.661  1.00  0.00     0.049 C 
HETATM   16  C   UNL     1     -32.769 -55.196  19.381  1.00  0.00     0.027 C 
HETATM   17  C   UNL     1     -33.893 -57.442  19.445  1.00  0.00     0.027 C 
BRANCH  15  18
HETATM   18  C   UNL     1     -33.275 -56.411  17.240  1.00  0.00     0.225 C 
HETATM   19  O   UNL     1     -33.674 -57.352  16.557  1.00  0.00    -0.273 OA
HETATM   20  N   UNL     1     -32.369 -55.538  16.716  1.00  0.00    -0.369 N 
HETATM   21  H   UNL     1     -32.050 -54.707  17.195  1.00  0.00     0.159 HD
HETATM   22  H   UNL     1     -32.049 -55.701  15.770  1.00  0.00     0.159 HD
ENDBRANCH  15  18
ENDBRANCH  14  15
ENDBRANCH  11  14
ENDBRANCH   4   8
BRANCH   1  23
HETATM   23  N   UNL     1     -42.619 -53.467  14.316  1.00  0.00    -0.362 N 
HETATM   24  C   UNL     1     -43.159 -53.865  13.012  1.00  0.00     0.156 C 
HETATM   25  C   UNL     1     -44.704 -53.938  13.111  1.00  0.00     0.136 C 
HETATM   26  C   UNL     1     -45.165 -55.173  13.885  1.00  0.00     0.041 C 
HETATM   27  O   UNL     1     -45.282 -52.731  13.660  1.00  0.00    -0.378 OA
HETATM   28  C   UNL     1     -44.701 -52.354  14.923  1.00  0.00     0.136 C 
HETATM   29  C   UNL     1     -43.172 -52.200  14.801  1.00  0.00     0.156 C 
HETATM   30  C   UNL     1     -45.337 -51.046  15.374  1.00  0.00     0.041 C 
ENDBRANCH   1  23
TORSDOF 5
ENDMDL
MODEL 6
REMARK VINA RESULT:      -6.0      2.971      3.993
REMARK  5 active torsions:
REMARK  status: ('A' for Active; 'I' for Inactive)
REMARK    1  A    between atoms: N_4  and  C_9 
REMARK    2  A    between atoms: C_12  and  N_13 
REMARK       I    between atoms: N_13  and  C_14 
REMARK       I    between atoms: C_14  and  N_16 
REMARK    3  A    between atoms: N_16  and  C_17 
REMARK    4  A    between atoms: C_17  and  C_18 
REMARK    5  A    between atoms: C_18  and  C_21 
REMARK       I    between atoms: C_21  and  N_23 
ROOT
HETATM    1  C   UNL     1     -42.757 -51.845  13.744  1.00  0.00     0.103 A 
HETATM    2  C   UNL     1     -41.624 -52.042  12.962  1.00  0.00     0.051 A 
HETATM    3  C   UNL     1     -41.194 -51.069  12.062  1.00  0.00     0.035 A 
HETATM    4  C   UNL     1     -41.908 -49.892  11.912  1.00  0.00     0.051 A 
HETATM    5  C   UNL     1     -43.047 -49.772  12.699  1.00  0.00     0.119 A 
HETATM    6  N   UNL     1     -43.475 -50.707  13.593  1.00  0.00    -0.350 N 
ATOM      7  HN  UNL     1     -44.322 -50.553  14.139  1.00  0.00     0.166 HD
ENDROOT
BRANCH   4   8
HETATM    8  N   UNL     1     -41.502 -48.855  11.043  1.00  0.00    -0.308 N 
HETATM    9  C   UNL     1     -40.785 -47.746  11.429  1.00  0.00     0.320 C 
HETATM   10  O   UNL     1     -40.263 -47.574  12.526  1.00  0.00    -0.247 OA
HETATM   11  N   UNL     1     -40.739 -46.769  10.458  1.00  0.00    -0.342 N 
HETATM   12  H   UNL     1     -40.732 -47.083   9.495  1.00  0.00     0.164 HD
HETATM   13  H   UNL     1     -41.689 -48.964  10.057  1.00  0.00     0.170 HD
BRANCH  11  14
HETATM   14  C   UNL     1     -39.938 -45.582  10.720  1.00  0.00     0.142 C 
BRANCH  14  15
HETATM   15  C   UNL     1     -40.686 -44.439  11.435  1.00  0.00     0.049 C 
HETATM   16  C   UNL     1     -40.290 -44.387  12.921  1.00  0.00     0.027 C 
HETATM   17  C   UNL     1     -40.280 -43.119  10.753  1.00  0.00     0.027 C 
BRANCH  15  18
HETATM   18  C   UNL     1     -42.197 -44.644  11.304  1.00  0.00     0.225 C 
HETATM   19  O   UNL     1     -42.797 -44.648  10.231  1.00  0.00    -0.273 OA
HETATM   20  N   UNL     1     -42.886 -44.867  12.460  1.00  0.00    -0.369 N 
HETATM   21  H   UNL     1     -42.448 -44.945  13.367  1.00  0.00     0.159 HD
HETATM   22  H   UNL     1     -43.883 -45.025  12.391  1.00  0.00     0.159 HD
ENDBRANCH  15  18
ENDBRANCH  14  15
ENDBRANCH  11  14
ENDBRANCH   4   8
BRANCH   1  23
HETATM   23  N   UNL     1     -43.183 -52.802  14.633  1.00  0.00    -0.362 N 
HETATM   24  C   UNL     1     -44.585 -52.854  15.062  1.00  0.00     0.156 C 
HETATM   25  C   UNL     1     -45.039 -54.335  15.113  1.00  0.00     0.136 C 
HETATM   26  C   UNL     1     -45.254 -54.911  13.713  1.00  0.00     0.041 C 
HETATM   27  O   UNL     1     -44.140 -55.164  15.886  1.00  0.00    -0.378 OA
HETATM   28  C   UNL     1     -42.769 -55.058  15.457  1.00  0.00     0.136 C 
HETATM   29  C   UNL     1     -42.294 -53.592  15.488  1.00  0.00     0.156 C 
HETATM   30  C   UNL     1     -41.910 -55.919  16.374  1.00  0.00     0.041 C 
ENDBRANCH   1  23
TORSDOF 5
ENDMDL
MODEL 7
REMARK VINA RESULT:      -5.9      3.347      3.980
REMARK  5 active torsions:
REMARK  status: ('A' for Active; 'I' for Inactive)
REMARK    1  A    between atoms: N_4  and  C_9 
REMARK    2  A    between atoms: C_12  and  N_13 
REMARK       I    between atoms: N_13  and  C_14 
REMARK       I    between atoms: C_14  and  N_16 
REMARK    3  A    between atoms: N_16  and  C_17 
REMARK    4  A    between atoms: C_17  and  C_18 
REMARK    5  A    between atoms: C_18  and  C_21 
REMARK       I    between atoms: C_21  and  N_23 
ROOT
HETATM    1  C   UNL     1     -41.750 -52.201  13.162  1.00  0.00     0.103 A 
HETATM    2  C   UNL     1     -40.400 -51.911  13.336  1.00  0.00     0.051 A 
HETATM    3  C   UNL     1     -39.870 -50.690  12.926  1.00  0.00     0.035 A 
HETATM    4  C   UNL     1     -40.677 -49.748  12.311  1.00  0.00     0.051 A 
HETATM    5  C   UNL     1     -42.007 -50.113  12.139  1.00  0.00     0.119 A 
HETATM    6  N   UNL     1     -42.545 -51.297  12.544  1.00  0.00    -0.350 N 
ATOM      7  HN  UNL     1     -43.532 -51.499  12.385  1.00  0.00     0.166 HD
ENDROOT
BRANCH   4   8
HETATM    8  N   UNL     1     -40.205 -48.480  11.908  1.00  0.00    -0.308 N 
HETATM    9  C   UNL     1     -40.063 -47.395  12.742  1.00  0.00     0.320 C 
HETATM   10  O   UNL     1     -40.168 -47.411  13.964  1.00  0.00    -0.247 OA
HETATM   11  N   UNL     1     -39.834 -46.219  12.063  1.00  0.00    -0.342 N 
HETATM   12  H   UNL     1     -39.303 -46.285  11.203  1.00  0.00     0.164 HD
HETATM   13  H   UNL     1     -39.882 -48.376  10.957  1.00  0.00     0.170 HD
BRANCH  11  14
HETATM   14  C   UNL     1     -39.584 -45.015  12.844  1.00  0.00     0.142 C 
BRANCH  14  15
HETATM   15  C   UNL     1     -40.640 -43.904  12.679  1.00  0.00     0.049 C 
HETATM   16  C   UNL     1     -42.023 -44.411  13.119  1.00  0.00     0.027 C 
HETATM   17  C   UNL     1     -40.218 -42.726  13.577  1.00  0.00     0.027 C 
BRANCH  15  18
HETATM   18  C   UNL     1     -40.691 -43.448  11.219  1.00  0.00     0.225 C 
HETATM   19  O   UNL     1     -40.751 -44.218  10.263  1.00  0.00    -0.273 OA
HETATM   20  N   UNL     1     -40.702 -42.102  10.999  1.00  0.00    -0.369 N 
HETATM   21  H   UNL     1     -40.724 -41.414  11.739  1.00  0.00     0.159 HD
HETATM   22  H   UNL     1     -40.756 -41.782  10.041  1.00  0.00     0.159 HD
ENDBRANCH  15  18
ENDBRANCH  14  15
ENDBRANCH  11  14
ENDBRANCH   4   8
BRANCH   1  23
HETATM   23  N   UNL     1     -42.277 -53.404  13.565  1.00  0.00    -0.362 N 
HETATM   24  C   UNL     1     -41.438 -54.402  14.237  1.00  0.00     0.156 C 
HETATM   25  C   UNL     1     -42.245 -55.035  15.399  1.00  0.00     0.136 C 
HETATM   26  C   UNL     1     -42.379 -54.079  16.584  1.00  0.00     0.041 C 
HETATM   27  O   UNL     1     -43.539 -55.523  14.973  1.00  0.00    -0.378 OA
HETATM   28  C   UNL     1     -44.317 -54.525  14.286  1.00  0.00     0.136 C 
HETATM   29  C   UNL     1     -43.544 -53.957  13.080  1.00  0.00     0.156 C 
HETATM   30  C   UNL     1     -45.624 -55.163  13.833  1.00  0.00     0.041 C 
ENDBRANCH   1  23
TORSDOF 5
ENDMDL
MODEL 8
REMARK VINA RESULT:      -5.8      3.863      9.395
REMARK  5 active torsions:
REMARK  status: ('A' for Active; 'I' for Inactive)
REMARK    1  A    between atoms: N_4  and  C_9 
REMARK    2  A    between atoms: C_12  and  N_13 
REMARK       I    between atoms: N_13  and  C_14 
REMARK       I    between atoms: C_14  and  N_16 
REMARK    3  A    between atoms: N_16  and  C_17 
REMARK    4  A    between atoms: C_17  and  C_18 
REMARK    5  A    between atoms: C_18  and  C_21 
REMARK       I    between atoms: C_21  and  N_23 
ROOT
HETATM    1  C   UNL     1     -41.173 -45.259  12.134  1.00  0.00     0.103 A 
HETATM    2  C   UNL     1     -42.420 -45.629  11.642  1.00  0.00     0.051 A 
HETATM    3  C   UNL     1     -42.734 -46.967  11.412  1.00  0.00     0.035 A 
HETATM    4  C   UNL     1     -41.793 -47.956  11.648  1.00  0.00     0.051 A 
HETATM    5  C   UNL     1     -40.558 -47.517  12.108  1.00  0.00     0.119 A 
HETATM    6  N   UNL     1     -40.238 -46.214  12.350  1.00  0.00    -0.350 N 
ATOM      7  HN  UNL     1     -39.310 -45.963  12.689  1.00  0.00     0.166 HD
ENDROOT
BRANCH   4   8
HETATM    8  N   UNL     1     -42.065 -49.330  11.468  1.00  0.00    -0.308 N 
HETATM    9  C   UNL     1     -42.557 -50.165  12.444  1.00  0.00     0.320 C 
HETATM   10  O   UNL     1     -42.978 -49.816  13.543  1.00  0.00    -0.247 OA
HETATM   11  N   UNL     1     -42.491 -51.497  12.098  1.00  0.00    -0.342 N 
HETATM   12  H   UNL     1     -42.609 -51.719  11.117  1.00  0.00     0.164 HD
HETATM   13  H   UNL     1     -41.957 -49.716  10.541  1.00  0.00     0.170 HD
BRANCH  11  14
HETATM   14  C   UNL     1     -43.060 -52.472  13.018  1.00  0.00     0.142 C 
BRANCH  14  15
HETATM   15  C   UNL     1     -42.027 -53.270  13.838  1.00  0.00     0.049 C 
HETATM   16  C   UNL     1     -41.659 -52.509  15.123  1.00  0.00     0.027 C 
HETATM   17  C   UNL     1     -42.672 -54.618  14.210  1.00  0.00     0.027 C 
BRANCH  15  18
HETATM   18  C   UNL     1     -40.772 -53.513  12.997  1.00  0.00     0.225 C 
HETATM   19  O   UNL     1     -39.745 -52.845  13.092  1.00  0.00    -0.273 OA
HETATM   20  N   UNL     1     -40.814 -54.560  12.124  1.00  0.00    -0.369 N 
HETATM   21  H   UNL     1     -41.599 -55.191  12.043  1.00  0.00     0.159 HD
HETATM   22  H   UNL     1     -39.986 -54.748  11.574  1.00  0.00     0.159 HD
ENDBRANCH  15  18
ENDBRANCH  14  15
ENDBRANCH  11  14
ENDBRANCH   4   8
BRANCH   1  23
HETATM   23  N   UNL     1     -40.860 -43.941  12.363  1.00  0.00    -0.362 N 
HETATM   24  C   UNL     1     -40.594 -43.030  11.245  1.00  0.00     0.156 C 
HETATM   25  C   UNL     1     -41.267 -41.665  11.539  1.00  0.00     0.136 C 
HETATM   26  C   UNL     1     -42.784 -41.731  11.365  1.00  0.00     0.041 C 
HETATM   27  O   UNL     1     -40.913 -41.142  12.841  1.00  0.00    -0.378 OA
HETATM   28  C   UNL     1     -41.155 -42.079  13.908  1.00  0.00     0.136 C 
HETATM   29  C   UNL     1     -40.416 -43.407  13.653  1.00  0.00     0.156 C 
HETATM   30  C   UNL     1     -40.692 -41.450  15.215  1.00  0.00     0.041 C 
ENDBRANCH   1  23
TORSDOF 5
ENDMDL
MODEL 9
REMARK VINA RESULT:      -5.7      4.440      6.540
REMARK  5 active torsions:
REMARK  status: ('A' for Active; 'I' for Inactive)
REMARK    1  A    between atoms: N_4  and  C_9 
REMARK    2  A    between atoms: C_12  and  N_13 
REMARK       I    between atoms: N_13  and  C_14 
REMARK       I    between atoms: C_14  and  N_16 
REMARK    3  A    between atoms: N_16  and  C_17 
REMARK    4  A    between atoms: C_17  and  C_18 
REMARK    5  A    between atoms: C_18  and  C_21 
REMARK       I    between atoms: C_21  and  N_23 
ROOT
HETATM    1  C   UNL     1     -38.177 -55.905  17.480  1.00  0.00     0.103 A 
HETATM    2  C   UNL     1     -38.199 -55.525  16.142  1.00  0.00     0.051 A 
HETATM    3  C   UNL     1     -39.398 -55.223  15.501  1.00  0.00     0.035 A 
HETATM    4  C   UNL     1     -40.599 -55.321  16.183  1.00  0.00     0.051 A 
HETATM    5  C   UNL     1     -40.510 -55.736  17.506  1.00  0.00     0.119 A 
HETATM    6  N   UNL     1     -39.345 -56.023  18.152  1.00  0.00    -0.350 N 
ATOM      7  HN  UNL     1     -39.354 -56.323  19.127  1.00  0.00     0.166 HD
ENDROOT
BRANCH   4   8
HETATM    8  N   UNL     1     -41.842 -54.993  15.597  1.00  0.00    -0.308 N 
HETATM    9  C   UNL     1     -42.435 -53.754  15.660  1.00  0.00     0.320 C 
HETATM   10  O   UNL     1     -41.911 -52.728  16.084  1.00  0.00    -0.247 OA
HETATM   11  N   UNL     1     -43.746 -53.761  15.239  1.00  0.00    -0.342 N 
HETATM   12  H   UNL     1     -43.984 -54.413  14.501  1.00  0.00     0.164 HD
HETATM   13  H   UNL     1     -42.298 -55.696  15.033  1.00  0.00     0.170 HD
BRANCH  11  14
HETATM   14  C   UNL     1     -44.453 -52.489  15.181  1.00  0.00     0.142 C 
BRANCH  14  15
HETATM   15  C   UNL     1     -44.817 -52.013  13.761  1.00  0.00     0.049 C 
HETATM   16  C   UNL     1     -46.295 -51.592  13.700  1.00  0.00     0.027 C 
HETATM   17  C   UNL     1     -43.927 -50.799  13.436  1.00  0.00     0.027 C 
BRANCH  15  18
HETATM   18  C   UNL     1     -44.551 -53.133  12.752  1.00  0.00     0.225 C 
HETATM   19  O   UNL     1     -45.256 -54.134  12.640  1.00  0.00    -0.273 OA
HETATM   20  N   UNL     1     -43.483 -52.967  11.922  1.00  0.00    -0.369 N 
HETATM   21  H   UNL     1     -42.903 -52.140  11.913  1.00  0.00     0.159 HD
HETATM   22  H   UNL     1     -43.304 -53.688  11.235  1.00  0.00     0.159 HD
ENDBRANCH  15  18
ENDBRANCH  14  15
ENDBRANCH  11  14
ENDBRANCH   4   8
BRANCH   1  23
HETATM   23  N   UNL     1     -36.996 -56.203  18.116  1.00  0.00    -0.362 N 
HETATM   24  C   UNL     1     -36.985 -56.604  19.527  1.00  0.00     0.156 C 
HETATM   25  C   UNL     1     -35.975 -57.765  19.711  1.00  0.00     0.136 C 
HETATM   26  C   UNL     1     -36.515 -59.080  19.150  1.00  0.00     0.041 C 
HETATM   27  O   UNL     1     -34.672 -57.458  19.161  1.00  0.00    -0.378 OA
HETATM   28  C   UNL     1     -34.728 -57.035  17.786  1.00  0.00     0.136 C 
HETATM   29  C   UNL     1     -35.670 -55.826  17.620  1.00  0.00     0.156 C 
HETATM   30  C   UNL     1     -33.318 -56.682  17.333  1.00  0.00     0.041 C 
ENDBRANCH   1  23
TORSDOF 5
ENDMDL
