MODEL 1
REMARK VINA RESULT:      -6.2      0.000      0.000
REMARK  7 active torsions:
REMARK  status: ('A' for Active; 'I' for Inactive)
REMARK    1  A    between atoms: C_2  and  O_3 
REMARK    2  A    between atoms: O_3  and  C_4 
REMARK    3  A    between atoms: C_4  and  C_5 
REMARK    4  A    between atoms: C_5  and  N_6 
REMARK    5  A    between atoms: C_7  and  C_8 
REMARK    6  A    between atoms: C_8  and  N_9 
REMARK       I    between atoms: N_9  and  C_10 
REMARK    7  A    between atoms: C_10  and  C_12 
ROOT
HETATM    1  N   UNL     1     -41.384 -51.999  13.789  1.00  0.00    -0.331 N 
HETATM    2  C   UNL     1     -41.723 -51.261  12.669  1.00  0.00     0.102 A 
HETATM    3  N   UNL     1     -42.797 -51.775  12.088  1.00  0.00    -0.343 N 
ATOM      4  HN  UNL     1     -43.247 -51.446  11.234  1.00  0.00     0.167 HD
HETATM    5  C   UNL     1     -43.182 -52.838  12.866  1.00  0.00     0.060 A 
HETATM    6  C   UNL     1     -44.269 -53.713  12.713  1.00  0.00     0.032 A 
HETATM    7  C   UNL     1     -44.456 -54.736  13.654  1.00  0.00     0.002 A 
HETATM    8  C   UNL     1     -43.585 -54.877  14.733  1.00  0.00     0.002 A 
HETATM    9  C   UNL     1     -42.508 -54.003  14.909  1.00  0.00     0.032 A 
HETATM   10  C   UNL     1     -42.328 -52.997  13.949  1.00  0.00     0.062 A 
ENDROOT
BRANCH   2  11
HETATM   11  C   UNL     1     -41.029 -50.017  12.212  1.00  0.00     0.199 C 
BRANCH  11  12
HETATM   12  N   UNL     1     -41.731 -49.427  11.101  1.00  0.00    -0.348 N 
HETATM   13  C   UNL     1     -42.304 -48.177  11.214  1.00  0.00     0.275 C 
HETATM   14  O   UNL     1     -42.092 -47.450  12.182  1.00  0.00    -0.265 OA
HETATM   15  H   UNL     1     -42.042 -50.034  10.351  1.00  0.00     0.163 HD
BRANCH  13  16
HETATM   16  C   UNL     1     -43.177 -47.797  10.121  1.00  0.00     0.142 A 
HETATM   17  C   UNL     1     -44.468 -47.300  10.131  1.00  0.00     0.045 A 
HETATM   18  C   UNL     1     -44.850 -47.121   8.781  1.00  0.00     0.027 A 
HETATM   19  C   UNL     1     -43.775 -47.527   8.026  1.00  0.00     0.143 A 
HETATM   20  O   UNL     1     -42.753 -47.933   8.824  1.00  0.00    -0.317 OA
ENDBRANCH  13  16
ENDBRANCH  11  12
ENDBRANCH   2  11
BRANCH   1  21
HETATM   21  C   UNL     1     -40.270 -51.782  14.699  1.00  0.00     0.156 C 
BRANCH  21  22
HETATM   22  C   UNL     1     -39.038 -52.618  14.357  1.00  0.00     0.187 C 
BRANCH  22  23
HETATM   23  O   UNL     1     -38.527 -52.223  13.086  1.00  0.00    -0.390 OA
BRANCH  23  24
HETATM   24  C   UNL     1     -37.573 -51.170  13.206  1.00  0.00     0.163 C 
HETATM   25  C   UNL     1     -37.406 -50.525  11.848  1.00  0.00     0.033 C 
ENDBRANCH  23  24
ENDBRANCH  22  23
ENDBRANCH  21  22
ENDBRANCH   1  21
TORSDOF 7
ENDMDL
MODEL 2
REMARK VINA RESULT:      -6.1      1.799      2.686
REMARK  7 active torsions:
REMARK  status: ('A' for Active; 'I' for Inactive)
REMARK    1  A    between atoms: C_2  and  O_3 
REMARK    2  A    between atoms: O_3  and  C_4 
REMARK    3  A    between atoms: C_4  and  C_5 
REMARK    4  A    between atoms: C_5  and  N_6 
REMARK    5  A    between atoms: C_7  and  C_8 
REMARK    6  A    between atoms: C_8  and  N_9 
REMARK       I    between atoms: N_9  and  C_10 
REMARK    7  A    between atoms: C_10  and  C_12 
ROOT
HETATM    1  N   UNL     1     -41.118 -53.089  13.456  1.00  0.00    -0.331 N 
HETATM    2  C   UNL     1     -41.214 -52.271  12.344  1.00  0.00     0.102 A 
HETATM    3  N   UNL     1     -42.422 -52.362  11.809  1.00  0.00    -0.343 N 
ATOM      4  HN  UNL     1     -42.757 -51.889  10.970  1.00  0.00     0.167 HD
HETATM    5  C   UNL     1     -43.132 -53.223  12.609  1.00  0.00     0.060 A 
HETATM    6  C   UNL     1     -44.464 -53.650  12.504  1.00  0.00     0.032 A 
HETATM    7  C   UNL     1     -44.969 -54.545  13.459  1.00  0.00     0.002 A 
HETATM    8  C   UNL     1     -44.165 -54.995  14.505  1.00  0.00     0.002 A 
HETATM    9  C   UNL     1     -42.841 -54.565  14.633  1.00  0.00     0.032 A 
HETATM   10  C   UNL     1     -42.349 -53.684  13.659  1.00  0.00     0.062 A 
ENDROOT
BRANCH   2  11
HETATM   11  C   UNL     1     -40.139 -51.354  11.852  1.00  0.00     0.199 C 
BRANCH  11  12
HETATM   12  N   UNL     1     -40.712 -50.245  11.133  1.00  0.00    -0.348 N 
HETATM   13  C   UNL     1     -40.435 -48.946  11.505  1.00  0.00     0.275 C 
HETATM   14  O   UNL     1     -39.564 -48.679  12.331  1.00  0.00    -0.265 OA
HETATM   15  H   UNL     1     -41.524 -50.417  10.550  1.00  0.00     0.163 HD
BRANCH  13  16
HETATM   16  C   UNL     1     -41.250 -47.933  10.864  1.00  0.00     0.142 A 
HETATM   17  C   UNL     1     -41.074 -46.563  10.769  1.00  0.00     0.045 A 
HETATM   18  C   UNL     1     -42.181 -46.056  10.050  1.00  0.00     0.027 A 
HETATM   19  C   UNL     1     -42.972 -47.142   9.758  1.00  0.00     0.143 A 
HETATM   20  O   UNL     1     -42.418 -48.285  10.239  1.00  0.00    -0.317 OA
ENDBRANCH  13  16
ENDBRANCH  11  12
ENDBRANCH   2  11
BRANCH   1  21
HETATM   21  C   UNL     1     -39.966 -53.291  14.320  1.00  0.00     0.156 C 
BRANCH  21  22
HETATM   22  C   UNL     1     -39.203 -54.580  14.020  1.00  0.00     0.187 C 
BRANCH  22  23
HETATM   23  O   UNL     1     -38.650 -55.103  15.227  1.00  0.00    -0.390 OA
BRANCH  23  24
HETATM   24  C   UNL     1     -39.540 -54.938  16.328  1.00  0.00     0.163 C 
HETATM   25  C   UNL     1     -40.075 -56.300  16.712  1.00  0.00     0.033 C 
ENDBRANCH  23  24
ENDBRANCH  22  23
ENDBRANCH  21  22
ENDBRANCH   1  21
TORSDOF 7
ENDMDL
MODEL 3
REMARK VINA RESULT:      -5.9      1.537      2.098
REMARK  7 active torsions:
REMARK  status: ('A' for Active; 'I' for Inactive)
REMARK    1  A    between atoms: C_2  and  O_3 
REMARK    2  A    between atoms: O_3  and  C_4 
REMARK    3  A    between atoms: C_4  and  C_5 
REMARK    4  A    between atoms: C_5  and  N_6 
REMARK    5  A    between atoms: C_7  and  C_8 
REMARK    6  A    between atoms: C_8  and  N_9 
REMARK       I    between atoms: N_9  and  C_10 
REMARK    7  A    between atoms: C_10  and  C_12 
ROOT
HETATM    1  N   UNL     1     -41.061 -53.157  13.329  1.00  0.00    -0.331 N 
HETATM    2  C   UNL     1     -41.209 -52.295  12.256  1.00  0.00     0.102 A 
HETATM    3  N   UNL     1     -42.449 -52.344  11.794  1.00  0.00    -0.343 N 
ATOM      4  HN  UNL     1     -42.826 -51.833  10.996  1.00  0.00     0.167 HD
HETATM    5  C   UNL     1     -43.126 -53.221  12.605  1.00  0.00     0.060 A 
HETATM    6  C   UNL     1     -44.471 -53.620  12.568  1.00  0.00     0.032 A 
HETATM    7  C   UNL     1     -44.933 -54.541  13.519  1.00  0.00     0.002 A 
HETATM    8  C   UNL     1     -44.076 -55.046  14.495  1.00  0.00     0.002 A 
HETATM    9  C   UNL     1     -42.738 -54.645  14.556  1.00  0.00     0.032 A 
HETATM   10  C   UNL     1     -42.290 -53.736  13.587  1.00  0.00     0.062 A 
ENDROOT
BRANCH   2  11
HETATM   11  C   UNL     1     -40.148 -51.379  11.732  1.00  0.00     0.199 C 
BRANCH  11  12
HETATM   12  N   UNL     1     -40.742 -50.256  11.052  1.00  0.00    -0.348 N 
HETATM   13  C   UNL     1     -40.394 -48.965  11.390  1.00  0.00     0.275 C 
HETATM   14  O   UNL     1     -39.451 -48.722  12.142  1.00  0.00    -0.265 OA
HETATM   15  H   UNL     1     -41.603 -50.405  10.538  1.00  0.00     0.163 HD
BRANCH  13  16
HETATM   16  C   UNL     1     -41.225 -47.929  10.809  1.00  0.00     0.142 A 
HETATM   17  C   UNL     1     -41.121 -46.551  10.871  1.00  0.00     0.045 A 
HETATM   18  C   UNL     1     -42.211 -46.024  10.140  1.00  0.00     0.027 A 
HETATM   19  C   UNL     1     -42.921 -47.108   9.684  1.00  0.00     0.143 A 
HETATM   20  O   UNL     1     -42.333 -48.269  10.076  1.00  0.00    -0.317 OA
ENDBRANCH  13  16
ENDBRANCH  11  12
ENDBRANCH   2  11
BRANCH   1  21
HETATM   21  C   UNL     1     -39.863 -53.412  14.112  1.00  0.00     0.156 C 
BRANCH  21  22
HETATM   22  C   UNL     1     -39.754 -52.532  15.356  1.00  0.00     0.187 C 
BRANCH  22  23
HETATM   23  O   UNL     1     -39.135 -51.293  15.014  1.00  0.00    -0.390 OA
BRANCH  23  24
HETATM   24  C   UNL     1     -39.726 -50.199  15.712  1.00  0.00     0.163 C 
HETATM   25  C   UNL     1     -41.075 -49.914  15.088  1.00  0.00     0.033 C 
ENDBRANCH  23  24
ENDBRANCH  22  23
ENDBRANCH  21  22
ENDBRANCH   1  21
TORSDOF 7
ENDMDL
MODEL 4
REMARK VINA RESULT:      -5.9      4.645      5.925
REMARK  7 active torsions:
REMARK  status: ('A' for Active; 'I' for Inactive)
REMARK    1  A    between atoms: C_2  and  O_3 
REMARK    2  A    between atoms: O_3  and  C_4 
REMARK    3  A    between atoms: C_4  and  C_5 
REMARK    4  A    between atoms: C_5  and  N_6 
REMARK    5  A    between atoms: C_7  and  C_8 
REMARK    6  A    between atoms: C_8  and  N_9 
REMARK       I    between atoms: N_9  and  C_10 
REMARK    7  A    between atoms: C_10  and  C_12 
ROOT
HETATM    1  N   UNL     1     -40.269 -46.817  12.772  1.00  0.00    -0.331 N 
HETATM    2  C   UNL     1     -40.821 -46.932  11.508  1.00  0.00     0.102 A 
HETATM    3  N   UNL     1     -40.279 -47.954  10.862  1.00  0.00    -0.343 N 
ATOM      4  HN  UNL     1     -40.481 -48.251   9.907  1.00  0.00     0.167 HD
HETATM    5  C   UNL     1     -39.392 -48.533  11.735  1.00  0.00     0.060 A 
HETATM    6  C   UNL     1     -38.570 -49.657  11.562  1.00  0.00     0.032 A 
HETATM    7  C   UNL     1     -37.739 -50.060  12.618  1.00  0.00     0.002 A 
HETATM    8  C   UNL     1     -37.736 -49.364  13.825  1.00  0.00     0.002 A 
HETATM    9  C   UNL     1     -38.561 -48.252  14.019  1.00  0.00     0.032 A 
HETATM   10  C   UNL     1     -39.373 -47.854  12.947  1.00  0.00     0.062 A 
ENDROOT
BRANCH   2  11
HETATM   11  C   UNL     1     -41.923 -46.079  10.966  1.00  0.00     0.199 C 
BRANCH  11  12
HETATM   12  N   UNL     1     -42.979 -46.900  10.429  1.00  0.00    -0.348 N 
HETATM   13  C   UNL     1     -43.516 -46.631   9.187  1.00  0.00     0.275 C 
HETATM   14  O   UNL     1     -43.009 -45.812   8.423  1.00  0.00    -0.265 OA
HETATM   15  H   UNL     1     -43.508 -47.483  11.068  1.00  0.00     0.163 HD
BRANCH  13  16
HETATM   16  C   UNL     1     -44.720 -47.371   8.862  1.00  0.00     0.142 A 
HETATM   17  C   UNL     1     -45.941 -47.433   9.510  1.00  0.00     0.045 A 
HETATM   18  C   UNL     1     -46.753 -48.324   8.771  1.00  0.00     0.027 A 
HETATM   19  C   UNL     1     -45.979 -48.761   7.723  1.00  0.00     0.143 A 
HETATM   20  O   UNL     1     -44.747 -48.188   7.762  1.00  0.00    -0.317 OA
ENDBRANCH  13  16
ENDBRANCH  11  12
ENDBRANCH   2  11
BRANCH   1  21
HETATM   21  C   UNL     1     -40.574 -45.827  13.793  1.00  0.00     0.156 C 
BRANCH  21  22
HETATM   22  C   UNL     1     -39.862 -44.493  13.574  1.00  0.00     0.187 C 
BRANCH  22  23
HETATM   23  O   UNL     1     -40.805 -43.509  13.154  1.00  0.00    -0.390 OA
BRANCH  23  24
HETATM   24  C   UNL     1     -40.219 -42.566  12.259  1.00  0.00     0.163 C 
HETATM   25  C   UNL     1     -39.657 -41.424  13.076  1.00  0.00     0.033 C 
ENDBRANCH  23  24
ENDBRANCH  22  23
ENDBRANCH  21  22
ENDBRANCH   1  21
TORSDOF 7
ENDMDL
MODEL 5
REMARK VINA RESULT:      -5.8      2.167      5.307
REMARK  7 active torsions:
REMARK  status: ('A' for Active; 'I' for Inactive)
REMARK    1  A    between atoms: C_2  and  O_3 
REMARK    2  A    between atoms: O_3  and  C_4 
REMARK    3  A    between atoms: C_4  and  C_5 
REMARK    4  A    between atoms: C_5  and  N_6 
REMARK    5  A    between atoms: C_7  and  C_8 
REMARK    6  A    between atoms: C_8  and  N_9 
REMARK       I    between atoms: N_9  and  C_10 
REMARK    7  A    between atoms: C_10  and  C_12 
ROOT
HETATM    1  N   UNL     1     -41.395 -53.082  12.949  1.00  0.00    -0.331 N 
HETATM    2  C   UNL     1     -40.535 -53.543  13.931  1.00  0.00     0.102 A 
HETATM    3  N   UNL     1     -41.188 -54.316  14.786  1.00  0.00    -0.343 N 
ATOM      4  HN  UNL     1     -40.806 -54.766  15.618  1.00  0.00     0.167 HD
HETATM    5  C   UNL     1     -42.480 -54.389  14.329  1.00  0.00     0.060 A 
HETATM    6  C   UNL     1     -43.576 -55.092  14.851  1.00  0.00     0.032 A 
HETATM    7  C   UNL     1     -44.812 -55.010  14.193  1.00  0.00     0.002 A 
HETATM    8  C   UNL     1     -44.950 -54.251  13.032  1.00  0.00     0.002 A 
HETATM    9  C   UNL     1     -43.863 -53.560  12.489  1.00  0.00     0.032 A 
HETATM   10  C   UNL     1     -42.640 -53.640  13.170  1.00  0.00     0.062 A 
ENDROOT
BRANCH   2  11
HETATM   11  C   UNL     1     -39.065 -53.274  13.987  1.00  0.00     0.199 C 
BRANCH  11  12
HETATM   12  N   UNL     1     -38.817 -51.892  14.312  1.00  0.00    -0.348 N 
HETATM   13  C   UNL     1     -37.913 -51.149  13.581  1.00  0.00     0.275 C 
HETATM   14  O   UNL     1     -37.423 -51.568  12.534  1.00  0.00    -0.265 OA
HETATM   15  H   UNL     1     -39.087 -51.557  15.230  1.00  0.00     0.163 HD
BRANCH  13  16
HETATM   16  C   UNL     1     -37.576 -49.857  14.146  1.00  0.00     0.142 A 
HETATM   17  C   UNL     1     -37.881 -48.578  13.714  1.00  0.00     0.045 A 
HETATM   18  C   UNL     1     -37.285 -47.682  14.631  1.00  0.00     0.027 A 
HETATM   19  C   UNL     1     -36.644 -48.463  15.563  1.00  0.00     0.143 A 
HETATM   20  O   UNL     1     -36.817 -49.783  15.286  1.00  0.00    -0.317 OA
ENDBRANCH  13  16
ENDBRANCH  11  12
ENDBRANCH   2  11
BRANCH   1  21
HETATM   21  C   UNL     1     -41.086 -52.203  11.832  1.00  0.00     0.156 C 
BRANCH  21  22
HETATM   22  C   UNL     1     -41.374 -50.731  12.124  1.00  0.00     0.187 C 
BRANCH  22  23
HETATM   23  O   UNL     1     -40.544 -49.908  11.307  1.00  0.00    -0.390 OA
BRANCH  23  24
HETATM   24  C   UNL     1     -41.169 -48.662  11.009  1.00  0.00     0.163 C 
HETATM   25  C   UNL     1     -42.490 -48.607  11.744  1.00  0.00     0.033 C 
ENDBRANCH  23  24
ENDBRANCH  22  23
ENDBRANCH  21  22
ENDBRANCH   1  21
TORSDOF 7
ENDMDL
MODEL 6
REMARK VINA RESULT:      -5.8      3.381      5.997
REMARK  7 active torsions:
REMARK  status: ('A' for Active; 'I' for Inactive)
REMARK    1  A    between atoms: C_2  and  O_3 
REMARK    2  A    between atoms: O_3  and  C_4 
REMARK    3  A    between atoms: C_4  and  C_5 
REMARK    4  A    between atoms: C_5  and  N_6 
REMARK    5  A    between atoms: C_7  and  C_8 
REMARK    6  A    between atoms: C_8  and  N_9 
REMARK       I    between atoms: N_9  and  C_10 
REMARK    7  A    between atoms: C_10  and  C_12 
ROOT
HETATM    1  N   UNL     1     -40.618 -52.467  12.819  1.00  0.00    -0.331 N 
HETATM    2  C   UNL     1     -41.840 -52.115  12.271  1.00  0.00     0.102 A 
HETATM    3  N   UNL     1     -41.794 -50.879  11.800  1.00  0.00    -0.343 N 
ATOM      4  HN  UNL     1     -42.558 -50.359  11.368  1.00  0.00     0.167 HD
HETATM    5  C   UNL     1     -40.511 -50.436  12.009  1.00  0.00     0.060 A 
HETATM    6  C   UNL     1     -39.923 -49.206  11.679  1.00  0.00     0.032 A 
HETATM    7  C   UNL     1     -38.575 -48.989  11.999  1.00  0.00     0.002 A 
HETATM    8  C   UNL     1     -37.824 -49.983  12.624  1.00  0.00     0.002 A 
HETATM    9  C   UNL     1     -38.391 -51.221  12.943  1.00  0.00     0.032 A 
HETATM   10  C   UNL     1     -39.744 -51.413  12.631  1.00  0.00     0.062 A 
ENDROOT
BRANCH   2  11
HETATM   11  C   UNL     1     -43.027 -53.019  12.156  1.00  0.00     0.199 C 
BRANCH  11  12
HETATM   12  N   UNL     1     -43.877 -52.885  13.312  1.00  0.00    -0.348 N 
HETATM   13  C   UNL     1     -45.245 -52.777  13.170  1.00  0.00     0.275 C 
HETATM   14  O   UNL     1     -45.803 -52.968  12.091  1.00  0.00    -0.265 OA
HETATM   15  H   UNL     1     -43.458 -52.590  14.187  1.00  0.00     0.163 HD
BRANCH  13  16
HETATM   16  C   UNL     1     -45.964 -52.410  14.374  1.00  0.00     0.142 A 
HETATM   17  C   UNL     1     -46.864 -51.386  14.609  1.00  0.00     0.045 A 
HETATM   18  C   UNL     1     -47.245 -51.477  15.968  1.00  0.00     0.027 A 
HETATM   19  C   UNL     1     -46.548 -52.543  16.486  1.00  0.00     0.143 A 
HETATM   20  O   UNL     1     -45.773 -53.121  15.531  1.00  0.00    -0.317 OA
ENDBRANCH  13  16
ENDBRANCH  11  12
ENDBRANCH   2  11
BRANCH   1  21
HETATM   21  C   UNL     1     -40.251 -53.724  13.450  1.00  0.00     0.156 C 
BRANCH  21  22
HETATM   22  C   UNL     1     -40.659 -53.805  14.920  1.00  0.00     0.187 C 
BRANCH  22  23
HETATM   23  O   UNL     1     -41.922 -54.458  15.033  1.00  0.00    -0.390 OA
BRANCH  23  24
HETATM   24  C   UNL     1     -42.068 -55.107  16.293  1.00  0.00     0.163 C 
HETATM   25  C   UNL     1     -40.739 -55.044  17.015  1.00  0.00     0.033 C 
ENDBRANCH  23  24
ENDBRANCH  22  23
ENDBRANCH  21  22
ENDBRANCH   1  21
TORSDOF 7
ENDMDL
MODEL 7
REMARK VINA RESULT:      -5.7      3.081      6.009
REMARK  7 active torsions:
REMARK  status: ('A' for Active; 'I' for Inactive)
REMARK    1  A    between atoms: C_2  and  O_3 
REMARK    2  A    between atoms: O_3  and  C_4 
REMARK    3  A    between atoms: C_4  and  C_5 
REMARK    4  A    between atoms: C_5  and  N_6 
REMARK    5  A    between atoms: C_7  and  C_8 
REMARK    6  A    between atoms: C_8  and  N_9 
REMARK       I    between atoms: N_9  and  C_10 
REMARK    7  A    between atoms: C_10  and  C_12 
ROOT
HETATM    1  N   UNL     1     -40.256 -48.253  12.898  1.00  0.00    -0.331 N 
HETATM    2  C   UNL     1     -40.755 -48.882  11.771  1.00  0.00     0.102 A 
HETATM    3  N   UNL     1     -40.810 -48.031  10.757  1.00  0.00    -0.343 N 
ATOM      4  HN  UNL     1     -41.160 -48.221   9.818  1.00  0.00     0.167 HD
HETATM    5  C   UNL     1     -40.302 -46.845  11.223  1.00  0.00     0.060 A 
HETATM    6  C   UNL     1     -40.116 -45.626  10.554  1.00  0.00     0.032 A 
HETATM    7  C   UNL     1     -39.568 -44.541  11.257  1.00  0.00     0.002 A 
HETATM    8  C   UNL     1     -39.203 -44.674  12.595  1.00  0.00     0.002 A 
HETATM    9  C   UNL     1     -39.366 -45.886  13.271  1.00  0.00     0.032 A 
HETATM   10  C   UNL     1     -39.930 -46.954  12.557  1.00  0.00     0.062 A 
ENDROOT
BRANCH   2  11
HETATM   11  C   UNL     1     -41.114 -50.331  11.678  1.00  0.00     0.199 C 
BRANCH  11  12
HETATM   12  N   UNL     1     -42.485 -50.537  12.071  1.00  0.00    -0.348 N 
HETATM   13  C   UNL     1     -42.799 -51.384  13.113  1.00  0.00     0.275 C 
HETATM   14  O   UNL     1     -41.935 -51.850  13.855  1.00  0.00    -0.265 OA
HETATM   15  H   UNL     1     -43.217 -50.289  11.414  1.00  0.00     0.163 HD
BRANCH  13  16
HETATM   16  C   UNL     1     -44.208 -51.691  13.257  1.00  0.00     0.142 A 
HETATM   17  C   UNL     1     -45.182 -51.104  14.045  1.00  0.00     0.045 A 
HETATM   18  C   UNL     1     -46.383 -51.812  13.810  1.00  0.00     0.027 A 
HETATM   19  C   UNL     1     -46.072 -52.795  12.901  1.00  0.00     0.143 A 
HETATM   20  O   UNL     1     -44.760 -52.730  12.552  1.00  0.00    -0.317 OA
ENDBRANCH  13  16
ENDBRANCH  11  12
ENDBRANCH   2  11
BRANCH   1  21
HETATM   21  C   UNL     1     -40.047 -48.823  14.220  1.00  0.00     0.156 C 
BRANCH  21  22
HETATM   22  C   UNL     1     -38.991 -49.927  14.243  1.00  0.00     0.187 C 
BRANCH  22  23
HETATM   23  O   UNL     1     -37.858 -49.524  13.476  1.00  0.00    -0.390 OA
BRANCH  23  24
HETATM   24  C   UNL     1     -37.449 -50.542  12.567  1.00  0.00     0.163 C 
HETATM   25  C   UNL     1     -37.355 -49.933  11.185  1.00  0.00     0.033 C 
ENDBRANCH  23  24
ENDBRANCH  22  23
ENDBRANCH  21  22
ENDBRANCH   1  21
TORSDOF 7
ENDMDL
MODEL 8
REMARK VINA RESULT:      -5.7      3.603      5.526
REMARK  7 active torsions:
REMARK  status: ('A' for Active; 'I' for Inactive)
REMARK    1  A    between atoms: C_2  and  O_3 
REMARK    2  A    between atoms: O_3  and  C_4 
REMARK    3  A    between atoms: C_4  and  C_5 
REMARK    4  A    between atoms: C_5  and  N_6 
REMARK    5  A    between atoms: C_7  and  C_8 
REMARK    6  A    between atoms: C_8  and  N_9 
REMARK       I    between atoms: N_9  and  C_10 
REMARK    7  A    between atoms: C_10  and  C_12 
ROOT
HETATM    1  N   UNL     1     -43.374 -53.184  14.415  1.00  0.00    -0.331 N 
HETATM    2  C   UNL     1     -42.858 -53.575  13.192  1.00  0.00     0.102 A 
HETATM    3  N   UNL     1     -43.716 -53.297  12.221  1.00  0.00    -0.343 N 
ATOM      4  HN  UNL     1     -43.603 -53.501  11.228  1.00  0.00     0.167 HD
HETATM    5  C   UNL     1     -44.787 -52.682  12.820  1.00  0.00     0.060 A 
HETATM    6  C   UNL     1     -45.960 -52.168  12.247  1.00  0.00     0.032 A 
HETATM    7  C   UNL     1     -46.920 -51.575  13.080  1.00  0.00     0.002 A 
HETATM    8  C   UNL     1     -46.710 -51.485  14.455  1.00  0.00     0.002 A 
HETATM    9  C   UNL     1     -45.538 -51.976  15.038  1.00  0.00     0.032 A 
HETATM   10  C   UNL     1     -44.598 -52.580  14.192  1.00  0.00     0.062 A 
ENDROOT
BRANCH   2  11
HETATM   11  C   UNL     1     -41.498 -54.159  12.976  1.00  0.00     0.199 C 
BRANCH  11  12
HETATM   12  N   UNL     1     -40.523 -53.113  12.796  1.00  0.00    -0.348 N 
HETATM   13  C   UNL     1     -39.580 -52.856  13.770  1.00  0.00     0.275 C 
HETATM   14  O   UNL     1     -39.416 -53.607  14.730  1.00  0.00    -0.265 OA
HETATM   15  H   UNL     1     -40.706 -52.398  12.101  1.00  0.00     0.163 HD
BRANCH  13  16
HETATM   16  C   UNL     1     -38.815 -51.639  13.583  1.00  0.00     0.142 A 
HETATM   17  C   UNL     1     -38.342 -50.722  14.505  1.00  0.00     0.045 A 
HETATM   18  C   UNL     1     -37.675 -49.712  13.774  1.00  0.00     0.027 A 
HETATM   19  C   UNL     1     -37.788 -50.065  12.450  1.00  0.00     0.143 A 
HETATM   20  O   UNL     1     -38.470 -51.233  12.319  1.00  0.00    -0.317 OA
ENDBRANCH  13  16
ENDBRANCH  11  12
ENDBRANCH   2  11
BRANCH   1  21
HETATM   21  C   UNL     1     -42.762 -53.318  15.727  1.00  0.00     0.156 C 
BRANCH  21  22
HETATM   22  C   UNL     1     -43.184 -54.588  16.465  1.00  0.00     0.187 C 
BRANCH  22  23
HETATM   23  O   UNL     1     -42.452 -55.703  15.960  1.00  0.00    -0.390 OA
BRANCH  23  24
HETATM   24  C   UNL     1     -41.819 -56.434  17.008  1.00  0.00     0.163 C 
HETATM   25  C   UNL     1     -40.322 -56.353  16.804  1.00  0.00     0.033 C 
ENDBRANCH  23  24
ENDBRANCH  22  23
ENDBRANCH  21  22
ENDBRANCH   1  21
TORSDOF 7
ENDMDL
MODEL 9
REMARK VINA RESULT:      -5.7      1.966      2.762
REMARK  7 active torsions:
REMARK  status: ('A' for Active; 'I' for Inactive)
REMARK    1  A    between atoms: C_2  and  O_3 
REMARK    2  A    between atoms: O_3  and  C_4 
REMARK    3  A    between atoms: C_4  and  C_5 
REMARK    4  A    between atoms: C_5  and  N_6 
REMARK    5  A    between atoms: C_7  and  C_8 
REMARK    6  A    between atoms: C_8  and  N_9 
REMARK       I    between atoms: N_9  and  C_10 
REMARK    7  A    between atoms: C_10  and  C_12 
ROOT
HETATM    1  N   UNL     1     -43.024 -53.078  13.239  1.00  0.00    -0.331 N 
HETATM    2  C   UNL     1     -42.790 -51.824  12.702  1.00  0.00     0.102 A 
HETATM    3  N   UNL     1     -43.855 -51.052  12.855  1.00  0.00    -0.343 N 
ATOM      4  HN  UNL     1     -43.966 -50.091  12.531  1.00  0.00     0.167 HD
HETATM    5  C   UNL     1     -44.779 -51.804  13.537  1.00  0.00     0.060 A 
HETATM    6  C   UNL     1     -46.067 -51.461  13.973  1.00  0.00     0.032 A 
HETATM    7  C   UNL     1     -46.829 -52.416  14.662  1.00  0.00     0.002 A 
HETATM    8  C   UNL     1     -46.313 -53.684  14.922  1.00  0.00     0.002 A 
HETATM    9  C   UNL     1     -45.024 -54.036  14.510  1.00  0.00     0.032 A 
HETATM   10  C   UNL     1     -44.284 -53.074  13.808  1.00  0.00     0.062 A 
ENDROOT
BRANCH   2  11
HETATM   11  C   UNL     1     -41.498 -51.371  12.099  1.00  0.00     0.199 C 
BRANCH  11  12
HETATM   12  N   UNL     1     -41.669 -50.107  11.430  1.00  0.00    -0.348 N 
HETATM   13  C   UNL     1     -40.697 -49.132  11.508  1.00  0.00     0.275 C 
HETATM   14  O   UNL     1     -39.587 -49.357  11.988  1.00  0.00    -0.265 OA
HETATM   15  H   UNL     1     -42.604 -49.834  11.148  1.00  0.00     0.163 HD
BRANCH  13  16
HETATM   16  C   UNL     1     -41.084 -47.831  10.999  1.00  0.00     0.142 A 
HETATM   17  C   UNL     1     -40.423 -46.616  11.036  1.00  0.00     0.045 A 
HETATM   18  C   UNL     1     -41.267 -45.670  10.408  1.00  0.00     0.027 A 
HETATM   19  C   UNL     1     -42.396 -46.359  10.034  1.00  0.00     0.143 A 
HETATM   20  O   UNL     1     -42.297 -47.669  10.380  1.00  0.00    -0.317 OA
ENDBRANCH  13  16
ENDBRANCH  11  12
ENDBRANCH   2  11
BRANCH   1  21
HETATM   21  C   UNL     1     -42.123 -54.219  13.270  1.00  0.00     0.156 C 
BRANCH  21  22
HETATM   22  C   UNL     1     -41.215 -54.241  14.498  1.00  0.00     0.187 C 
BRANCH  22  23
HETATM   23  O   UNL     1     -39.870 -54.493  14.097  1.00  0.00    -0.390 OA
BRANCH  23  24
HETATM   24  C   UNL     1     -39.059 -53.327  14.216  1.00  0.00     0.163 C 
HETATM   25  C   UNL     1     -39.565 -52.516  15.390  1.00  0.00     0.033 C 
ENDBRANCH  23  24
ENDBRANCH  22  23
ENDBRANCH  21  22
ENDBRANCH   1  21
TORSDOF 7
ENDMDL
