MODEL 1
REMARK VINA RESULT:      -6.3      0.000      0.000
REMARK  5 active torsions:
REMARK  status: ('A' for Active; 'I' for Inactive)
REMARK    1  A    between atoms: C_2  and  C_5 
REMARK    2  A    between atoms: C_7  and  N_8 
REMARK       I    between atoms: N_8  and  C_9 
REMARK       I    between atoms: C_9  and  N_11 
REMARK    3  A    between atoms: N_11  and  C_12 
REMARK    4  A    between atoms: C_17  and  C_18 
REMARK    5  A    between atoms: C_18  and  O_19 
ROOT
HETATM    1  N   UNL     1     -41.404 -54.054  13.368  1.00  0.00    -0.293 N 
HETATM    2  C   UNL     1     -40.282 -53.277  13.290  1.00  0.00     0.322 C 
HETATM    3  O   UNL     1     -39.172 -53.785  13.432  1.00  0.00    -0.247 OA
HETATM    4  N   UNL     1     -40.478 -51.960  13.005  1.00  0.00    -0.338 N 
HETATM    5  H   UNL     1     -41.224 -55.034  13.515  1.00  0.00     0.172 HD
HETATM    6  H   UNL     1     -41.434 -51.635  13.117  1.00  0.00     0.164 HD
ENDROOT
BRANCH   1   7
HETATM    7  C   UNL     1     -42.715 -53.643  13.225  1.00  0.00     0.132 A 
HETATM    8  C   UNL     1     -43.475 -52.992  14.224  1.00  0.00     0.086 A 
HETATM    9  C   UNL     1     -44.718 -52.815  13.658  1.00  0.00     0.087 A 
HETATM   10  O   UNL     1     -44.686 -53.285  12.383  1.00  0.00    -0.240 OA
HETATM   11  N   UNL     1     -43.447 -53.805  12.117  1.00  0.00    -0.245 N 
ATOM     12  HN  UNL     1     -43.140 -54.233  11.243  1.00  0.00     0.196 HD
BRANCH   9  13
HETATM   13  C   UNL     1     -46.017 -52.215  14.117  1.00  0.00     0.000 C 
HETATM   14  C   UNL     1     -46.703 -51.540  12.919  1.00  0.00     0.021 C 
HETATM   15  C   UNL     1     -45.756 -51.172  15.219  1.00  0.00     0.021 C 
HETATM   16  C   UNL     1     -46.950 -53.299  14.692  1.00  0.00     0.021 C 
ENDBRANCH   9  13
ENDBRANCH   1   7
BRANCH   4  17
HETATM   17  C   UNL     1     -39.431 -50.962  12.896  1.00  0.00     0.092 C 
HETATM   18  C   UNL     1     -38.544 -50.987  14.149  1.00  0.00     0.026 C 
HETATM   19  C   UNL     1     -39.241 -50.413  15.384  1.00  0.00     0.002 C 
HETATM   20  C   UNL     1     -39.793 -49.018  15.120  1.00  0.00     0.001 C 
HETATM   21  C   UNL     1     -40.724 -49.000  13.913  1.00  0.00     0.009 C 
HETATM   22  C   UNL     1     -40.033 -49.558  12.653  1.00  0.00     0.032 C 
BRANCH  22  23
HETATM   23  C   UNL     1     -40.982 -49.553  11.445  1.00  0.00     0.170 C 
BRANCH  23  24
HETATM   24  O   UNL     1     -40.340 -50.098  10.297  1.00  0.00    -0.400 OA
HETATM   25  H   UNL     1     -39.649 -50.707  10.608  1.00  0.00     0.209 HD
ENDBRANCH  23  24
ENDBRANCH  22  23
ENDBRANCH   4  17
TORSDOF 5
ENDMDL
MODEL 2
REMARK VINA RESULT:      -6.3      1.874      6.052
REMARK  5 active torsions:
REMARK  status: ('A' for Active; 'I' for Inactive)
REMARK    1  A    between atoms: C_2  and  C_5 
REMARK    2  A    between atoms: C_7  and  N_8 
REMARK       I    between atoms: N_8  and  C_9 
REMARK       I    between atoms: C_9  and  N_11 
REMARK    3  A    between atoms: N_11  and  C_12 
REMARK    4  A    between atoms: C_17  and  C_18 
REMARK    5  A    between atoms: C_18  and  O_19 
ROOT
HETATM    1  N   UNL     1     -42.674 -52.715  11.701  1.00  0.00    -0.293 N 
HETATM    2  C   UNL     1     -43.748 -52.911  12.525  1.00  0.00     0.322 C 
HETATM    3  O   UNL     1     -44.794 -53.372  12.071  1.00  0.00    -0.247 OA
HETATM    4  N   UNL     1     -43.562 -52.615  13.840  1.00  0.00    -0.338 N 
HETATM    5  H   UNL     1     -42.821 -53.004  10.748  1.00  0.00     0.172 HD
HETATM    6  H   UNL     1     -42.737 -52.056  14.041  1.00  0.00     0.164 HD
ENDROOT
BRANCH   1   7
HETATM    7  C   UNL     1     -41.434 -52.217  12.052  1.00  0.00     0.132 A 
HETATM    8  C   UNL     1     -41.013 -50.881  11.862  1.00  0.00     0.086 A 
HETATM    9  C   UNL     1     -39.713 -50.857  12.314  1.00  0.00     0.087 A 
HETATM   10  O   UNL     1     -39.395 -52.089  12.791  1.00  0.00    -0.240 OA
HETATM   11  N   UNL     1     -40.460 -52.935  12.622  1.00  0.00    -0.245 N 
ATOM     12  HN  UNL     1     -40.502 -53.921  12.880  1.00  0.00     0.196 HD
BRANCH   9  13
HETATM   13  C   UNL     1     -38.645 -49.805  12.416  1.00  0.00     0.000 C 
HETATM   14  C   UNL     1     -39.278 -48.428  12.160  1.00  0.00     0.021 C 
HETATM   15  C   UNL     1     -37.543 -50.069  11.374  1.00  0.00     0.021 C 
HETATM   16  C   UNL     1     -37.996 -49.813  13.814  1.00  0.00     0.021 C 
ENDBRANCH   9  13
ENDBRANCH   1   7
BRANCH   4  17
HETATM   17  C   UNL     1     -44.572 -52.730  14.876  1.00  0.00     0.092 C 
HETATM   18  C   UNL     1     -45.269 -51.379  15.088  1.00  0.00     0.026 C 
HETATM   19  C   UNL     1     -44.378 -50.353  15.791  1.00  0.00     0.002 C 
HETATM   20  C   UNL     1     -43.813 -50.900  17.095  1.00  0.00     0.001 C 
HETATM   21  C   UNL     1     -43.066 -52.212  16.880  1.00  0.00     0.009 C 
HETATM   22  C   UNL     1     -43.954 -53.265  16.189  1.00  0.00     0.032 C 
BRANCH  22  23
HETATM   23  C   UNL     1     -43.190 -54.578  15.959  1.00  0.00     0.170 C 
BRANCH  23  24
HETATM   24  O   UNL     1     -43.874 -55.402  15.021  1.00  0.00    -0.400 OA
HETATM   25  H   UNL     1     -43.285 -56.143  14.798  1.00  0.00     0.209 HD
ENDBRANCH  23  24
ENDBRANCH  22  23
ENDBRANCH   4  17
TORSDOF 5
ENDMDL
MODEL 3
REMARK VINA RESULT:      -6.2      2.111      6.107
REMARK  5 active torsions:
REMARK  status: ('A' for Active; 'I' for Inactive)
REMARK    1  A    between atoms: C_2  and  C_5 
REMARK    2  A    between atoms: C_7  and  N_8 
REMARK       I    between atoms: N_8  and  C_9 
REMARK       I    between atoms: C_9  and  N_11 
REMARK    3  A    between atoms: N_11  and  C_12 
REMARK    4  A    between atoms: C_17  and  C_18 
REMARK    5  A    between atoms: C_18  and  O_19 
ROOT
HETATM    1  N   UNL     1     -41.465 -54.756  14.642  1.00  0.00    -0.293 N 
HETATM    2  C   UNL     1     -42.760 -54.889  15.060  1.00  0.00     0.322 C 
HETATM    3  O   UNL     1     -43.065 -55.797  15.831  1.00  0.00    -0.247 OA
HETATM    4  N   UNL     1     -43.637 -53.948  14.616  1.00  0.00    -0.338 N 
HETATM    5  H   UNL     1     -40.827 -55.427  15.038  1.00  0.00     0.172 HD
HETATM    6  H   UNL     1     -43.307 -53.389  13.836  1.00  0.00     0.164 HD
ENDROOT
BRANCH   1   7
HETATM    7  C   UNL     1     -40.958 -53.793  13.790  1.00  0.00     0.132 A 
HETATM    8  C   UNL     1     -40.409 -52.557  14.198  1.00  0.00     0.086 A 
HETATM    9  C   UNL     1     -40.079 -51.917  13.023  1.00  0.00     0.087 A 
HETATM   10  O   UNL     1     -40.367 -52.742  11.983  1.00  0.00    -0.240 OA
HETATM   11  N   UNL     1     -40.919 -53.903  12.457  1.00  0.00    -0.245 N 
ATOM     12  HN  UNL     1     -41.238 -54.697  11.902  1.00  0.00     0.196 HD
BRANCH   9  13
HETATM   13  C   UNL     1     -39.471 -50.587  12.675  1.00  0.00     0.000 C 
HETATM   14  C   UNL     1     -39.715 -49.611  13.836  1.00  0.00     0.021 C 
HETATM   15  C   UNL     1     -40.114 -50.034  11.390  1.00  0.00     0.021 C 
HETATM   16  C   UNL     1     -37.955 -50.723  12.434  1.00  0.00     0.021 C 
ENDBRANCH   9  13
ENDBRANCH   1   7
BRANCH   4  17
HETATM   17  C   UNL     1     -45.055 -53.915  14.923  1.00  0.00     0.092 C 
HETATM   18  C   UNL     1     -45.879 -54.079  13.638  1.00  0.00     0.026 C 
HETATM   19  C   UNL     1     -45.838 -52.839  12.743  1.00  0.00     0.002 C 
HETATM   20  C   UNL     1     -46.239 -51.583  13.505  1.00  0.00     0.001 C 
HETATM   21  C   UNL     1     -45.382 -51.382  14.750  1.00  0.00     0.009 C 
HETATM   22  C   UNL     1     -45.425 -52.614  15.675  1.00  0.00     0.032 C 
BRANCH  22  23
HETATM   23  C   UNL     1     -44.546 -52.412  16.918  1.00  0.00     0.170 C 
BRANCH  23  24
HETATM   24  O   UNL     1     -44.420 -53.627  17.650  1.00  0.00    -0.400 OA
HETATM   25  H   UNL     1     -43.486 -53.895  17.616  1.00  0.00     0.209 HD
ENDBRANCH  23  24
ENDBRANCH  22  23
ENDBRANCH   4  17
TORSDOF 5
ENDMDL
MODEL 4
REMARK VINA RESULT:      -6.0      2.162      5.577
REMARK  5 active torsions:
REMARK  status: ('A' for Active; 'I' for Inactive)
REMARK    1  A    between atoms: C_2  and  C_5 
REMARK    2  A    between atoms: C_7  and  N_8 
REMARK       I    between atoms: N_8  and  C_9 
REMARK       I    between atoms: C_9  and  N_11 
REMARK    3  A    between atoms: N_11  and  C_12 
REMARK    4  A    between atoms: C_17  and  C_18 
REMARK    5  A    between atoms: C_18  and  O_19 
ROOT
HETATM    1  N   UNL     1     -40.647 -51.857  12.001  1.00  0.00    -0.293 N 
HETATM    2  C   UNL     1     -41.446 -52.748  12.663  1.00  0.00     0.322 C 
HETATM    3  O   UNL     1     -40.995 -53.837  13.010  1.00  0.00    -0.247 OA
HETATM    4  N   UNL     1     -42.712 -52.332  12.942  1.00  0.00    -0.338 N 
HETATM    5  H   UNL     1     -39.699 -52.166  11.867  1.00  0.00     0.172 HD
HETATM    6  H   UNL     1     -43.017 -51.511  12.427  1.00  0.00     0.164 HD
ENDROOT
BRANCH   1   7
HETATM    7  C   UNL     1     -40.996 -50.597  11.553  1.00  0.00     0.132 A 
HETATM    8  C   UNL     1     -41.874 -49.713  12.219  1.00  0.00     0.086 A 
HETATM    9  C   UNL     1     -41.954 -48.613  11.394  1.00  0.00     0.087 A 
HETATM   10  O   UNL     1     -41.135 -48.808  10.328  1.00  0.00    -0.240 OA
HETATM   11  N   UNL     1     -40.546 -50.042  10.422  1.00  0.00    -0.245 N 
ATOM     12  HN  UNL     1     -39.891 -50.456   9.758  1.00  0.00     0.196 HD
BRANCH   9  13
HETATM   13  C   UNL     1     -42.690 -47.303  11.442  1.00  0.00     0.000 C 
HETATM   14  C   UNL     1     -43.090 -47.011  12.896  1.00  0.00     0.021 C 
HETATM   15  C   UNL     1     -43.951 -47.374  10.562  1.00  0.00     0.021 C 
HETATM   16  C   UNL     1     -41.803 -46.156  10.918  1.00  0.00     0.021 C 
ENDBRANCH   9  13
ENDBRANCH   1   7
BRANCH   4  17
HETATM   17  C   UNL     1     -43.724 -53.124  13.616  1.00  0.00     0.092 C 
HETATM   18  C   UNL     1     -44.931 -53.339  12.691  1.00  0.00     0.026 C 
HETATM   19  C   UNL     1     -45.765 -52.072  12.497  1.00  0.00     0.002 C 
HETATM   20  C   UNL     1     -46.185 -51.466  13.829  1.00  0.00     0.001 C 
HETATM   21  C   UNL     1     -44.983 -51.193  14.728  1.00  0.00     0.009 C 
HETATM   22  C   UNL     1     -44.141 -52.463  14.951  1.00  0.00     0.032 C 
BRANCH  22  23
HETATM   23  C   UNL     1     -42.922 -52.177  15.842  1.00  0.00     0.170 C 
BRANCH  23  24
HETATM   24  O   UNL     1     -42.061 -53.310  15.898  1.00  0.00    -0.400 OA
HETATM   25  H   UNL     1     -42.601 -54.076  16.157  1.00  0.00     0.209 HD
ENDBRANCH  23  24
ENDBRANCH  22  23
ENDBRANCH   4  17
TORSDOF 5
ENDMDL
MODEL 5
REMARK VINA RESULT:      -6.0      1.890      6.209
REMARK  5 active torsions:
REMARK  status: ('A' for Active; 'I' for Inactive)
REMARK    1  A    between atoms: C_2  and  C_5 
REMARK    2  A    between atoms: C_7  and  N_8 
REMARK       I    between atoms: N_8  and  C_9 
REMARK       I    between atoms: C_9  and  N_11 
REMARK    3  A    between atoms: N_11  and  C_12 
REMARK    4  A    between atoms: C_17  and  C_18 
REMARK    5  A    between atoms: C_18  and  O_19 
ROOT
HETATM    1  N   UNL     1     -43.064 -52.981  11.998  1.00  0.00    -0.293 N 
HETATM    2  C   UNL     1     -44.070 -53.549  12.730  1.00  0.00     0.322 C 
HETATM    3  O   UNL     1     -44.680 -54.519  12.286  1.00  0.00    -0.247 OA
HETATM    4  N   UNL     1     -44.299 -53.011  13.959  1.00  0.00    -0.338 N 
HETATM    5  H   UNL     1     -42.875 -53.441  11.122  1.00  0.00     0.172 HD
HETATM    6  H   UNL     1     -43.875 -52.101  14.115  1.00  0.00     0.164 HD
ENDROOT
BRANCH   1   7
HETATM    7  C   UNL     1     -42.281 -51.900  12.353  1.00  0.00     0.132 A 
HETATM    8  C   UNL     1     -40.927 -51.975  12.750  1.00  0.00     0.086 A 
HETATM    9  C   UNL     1     -40.577 -50.676  13.046  1.00  0.00     0.087 A 
HETATM   10  O   UNL     1     -41.642 -49.870  12.792  1.00  0.00    -0.240 OA
HETATM   11  N   UNL     1     -42.702 -50.630  12.369  1.00  0.00    -0.245 N 
ATOM     12  HN  UNL     1     -43.630 -50.293  12.116  1.00  0.00     0.196 HD
BRANCH   9  13
HETATM   13  C   UNL     1     -39.327 -49.998  13.530  1.00  0.00     0.000 C 
HETATM   14  C   UNL     1     -39.537 -49.549  14.985  1.00  0.00     0.021 C 
HETATM   15  C   UNL     1     -39.015 -48.774  12.650  1.00  0.00     0.021 C 
HETATM   16  C   UNL     1     -38.121 -50.957  13.463  1.00  0.00     0.021 C 
ENDBRANCH   9  13
ENDBRANCH   1   7
BRANCH   4  17
HETATM   17  C   UNL     1     -45.326 -53.448  14.886  1.00  0.00     0.092 C 
HETATM   18  C   UNL     1     -46.665 -52.778  14.547  1.00  0.00     0.026 C 
HETATM   19  C   UNL     1     -46.693 -51.290  14.903  1.00  0.00     0.002 C 
HETATM   20  C   UNL     1     -46.303 -51.053  16.356  1.00  0.00     0.001 C 
HETATM   21  C   UNL     1     -44.945 -51.664  16.682  1.00  0.00     0.009 C 
HETATM   22  C   UNL     1     -44.903 -53.168  16.348  1.00  0.00     0.032 C 
BRANCH  22  23
HETATM   23  C   UNL     1     -43.527 -53.773  16.662  1.00  0.00     0.170 C 
BRANCH  23  24
HETATM   24  O   UNL     1     -43.390 -55.056  16.059  1.00  0.00    -0.400 OA
HETATM   25  H   UNL     1     -43.540 -54.949  15.105  1.00  0.00     0.209 HD
ENDBRANCH  23  24
ENDBRANCH  22  23
ENDBRANCH   4  17
TORSDOF 5
ENDMDL
MODEL 6
REMARK VINA RESULT:      -5.8      2.401      3.697
REMARK  5 active torsions:
REMARK  status: ('A' for Active; 'I' for Inactive)
REMARK    1  A    between atoms: C_2  and  C_5 
REMARK    2  A    between atoms: C_7  and  N_8 
REMARK       I    between atoms: N_8  and  C_9 
REMARK       I    between atoms: C_9  and  N_11 
REMARK    3  A    between atoms: N_11  and  C_12 
REMARK    4  A    between atoms: C_17  and  C_18 
REMARK    5  A    between atoms: C_18  and  O_19 
ROOT
HETATM    1  N   UNL     1     -42.313 -50.077  11.724  1.00  0.00    -0.293 N 
HETATM    2  C   UNL     1     -41.231 -49.247  11.624  1.00  0.00     0.322 C 
HETATM    3  O   UNL     1     -41.341 -48.161  11.058  1.00  0.00    -0.247 OA
HETATM    4  N   UNL     1     -40.084 -49.675  12.219  1.00  0.00    -0.338 N 
HETATM    5  H   UNL     1     -43.162 -49.706  11.332  1.00  0.00     0.172 HD
HETATM    6  H   UNL     1     -40.071 -50.661  12.466  1.00  0.00     0.164 HD
ENDROOT
BRANCH   1   7
HETATM    7  C   UNL     1     -42.358 -51.318  12.331  1.00  0.00     0.132 A 
HETATM    8  C   UNL     1     -42.616 -51.542  13.702  1.00  0.00     0.086 A 
HETATM    9  C   UNL     1     -42.521 -52.907  13.858  1.00  0.00     0.087 A 
HETATM   10  O   UNL     1     -42.274 -53.466  12.644  1.00  0.00    -0.240 OA
HETATM   11  N   UNL     1     -42.165 -52.481  11.698  1.00  0.00    -0.245 N 
ATOM     12  HN  UNL     1     -41.974 -52.609  10.704  1.00  0.00     0.196 HD
BRANCH   9  13
HETATM   13  C   UNL     1     -42.660 -53.855  15.015  1.00  0.00     0.000 C 
HETATM   14  C   UNL     1     -41.307 -54.540  15.260  1.00  0.00     0.021 C 
HETATM   15  C   UNL     1     -43.730 -54.917  14.702  1.00  0.00     0.021 C 
HETATM   16  C   UNL     1     -43.088 -53.104  16.292  1.00  0.00     0.021 C 
ENDBRANCH   9  13
ENDBRANCH   1   7
BRANCH   4  17
HETATM   17  C   UNL     1     -38.821 -48.960  12.216  1.00  0.00     0.092 C 
HETATM   18  C   UNL     1     -37.699 -49.871  11.699  1.00  0.00     0.026 C 
HETATM   19  C   UNL     1     -37.309 -50.961  12.699  1.00  0.00     0.002 C 
HETATM   20  C   UNL     1     -36.968 -50.376  14.063  1.00  0.00     0.001 C 
HETATM   21  C   UNL     1     -38.106 -49.520  14.609  1.00  0.00     0.009 C 
HETATM   22  C   UNL     1     -38.500 -48.403  13.623  1.00  0.00     0.032 C 
BRANCH  22  23
HETATM   23  C   UNL     1     -39.658 -47.556  14.172  1.00  0.00     0.170 C 
BRANCH  23  24
HETATM   24  O   UNL     1     -40.035 -46.550  13.237  1.00  0.00    -0.400 OA
HETATM   25  H   UNL     1     -39.557 -46.726  12.408  1.00  0.00     0.209 HD
ENDBRANCH  23  24
ENDBRANCH  22  23
ENDBRANCH   4  17
TORSDOF 5
ENDMDL
MODEL 7
REMARK VINA RESULT:      -5.7      2.349      3.503
REMARK  5 active torsions:
REMARK  status: ('A' for Active; 'I' for Inactive)
REMARK    1  A    between atoms: C_2  and  C_5 
REMARK    2  A    between atoms: C_7  and  N_8 
REMARK       I    between atoms: N_8  and  C_9 
REMARK       I    between atoms: C_9  and  N_11 
REMARK    3  A    between atoms: N_11  and  C_12 
REMARK    4  A    between atoms: C_17  and  C_18 
REMARK    5  A    between atoms: C_18  and  O_19 
ROOT
HETATM    1  N   UNL     1     -39.765 -50.739  11.756  1.00  0.00    -0.293 N 
HETATM    2  C   UNL     1     -39.489 -49.433  12.055  1.00  0.00     0.322 C 
HETATM    3  O   UNL     1     -38.385 -48.963  11.789  1.00  0.00    -0.247 OA
HETATM    4  N   UNL     1     -40.505 -48.711  12.600  1.00  0.00    -0.338 N 
HETATM    5  H   UNL     1     -39.016 -51.229  11.295  1.00  0.00     0.172 HD
HETATM    6  H   UNL     1     -41.282 -49.263  12.953  1.00  0.00     0.164 HD
ENDROOT
BRANCH   1   7
HETATM    7  C   UNL     1     -40.950 -51.413  11.980  1.00  0.00     0.132 A 
HETATM    8  C   UNL     1     -41.895 -51.083  12.978  1.00  0.00     0.086 A 
HETATM    9  C   UNL     1     -42.879 -52.040  12.857  1.00  0.00     0.087 A 
HETATM   10  O   UNL     1     -42.565 -52.858  11.819  1.00  0.00    -0.240 OA
HETATM   11  N   UNL     1     -41.365 -52.474  11.279  1.00  0.00    -0.245 N 
ATOM     12  HN  UNL     1     -40.882 -52.913  10.495  1.00  0.00     0.196 HD
BRANCH   9  13
HETATM   13  C   UNL     1     -44.169 -52.330  13.571  1.00  0.00     0.000 C 
HETATM   14  C   UNL     1     -43.894 -53.329  14.706  1.00  0.00     0.021 C 
HETATM   15  C   UNL     1     -45.192 -52.929  12.590  1.00  0.00     0.021 C 
HETATM   16  C   UNL     1     -44.770 -51.041  14.165  1.00  0.00     0.021 C 
ENDBRANCH   9  13
ENDBRANCH   1   7
BRANCH   4  17
HETATM   17  C   UNL     1     -40.420 -47.321  13.008  1.00  0.00     0.092 C 
HETATM   18  C   UNL     1     -40.696 -47.193  14.513  1.00  0.00     0.026 C 
HETATM   19  C   UNL     1     -42.167 -47.416  14.869  1.00  0.00     0.002 C 
HETATM   20  C   UNL     1     -43.085 -46.514  14.054  1.00  0.00     0.001 C 
HETATM   21  C   UNL     1     -42.858 -46.683  12.556  1.00  0.00     0.009 C 
HETATM   22  C   UNL     1     -41.384 -46.443  12.175  1.00  0.00     0.032 C 
BRANCH  22  23
HETATM   23  C   UNL     1     -41.158 -46.632  10.667  1.00  0.00     0.170 C 
BRANCH  23  24
HETATM   24  O   UNL     1     -39.771 -46.556  10.351  1.00  0.00    -0.400 OA
HETATM   25  H   UNL     1     -39.456 -47.462  10.193  1.00  0.00     0.209 HD
ENDBRANCH  23  24
ENDBRANCH  22  23
ENDBRANCH   4  17
TORSDOF 5
ENDMDL
MODEL 8
REMARK VINA RESULT:      -5.5      2.384      5.637
REMARK  5 active torsions:
REMARK  status: ('A' for Active; 'I' for Inactive)
REMARK    1  A    between atoms: C_2  and  C_5 
REMARK    2  A    between atoms: C_7  and  N_8 
REMARK       I    between atoms: N_8  and  C_9 
REMARK       I    between atoms: C_9  and  N_11 
REMARK    3  A    between atoms: N_11  and  C_12 
REMARK    4  A    between atoms: C_17  and  C_18 
REMARK    5  A    between atoms: C_18  and  O_19 
ROOT
HETATM    1  N   UNL     1     -42.597 -51.788  11.997  1.00  0.00    -0.293 N 
HETATM    2  C   UNL     1     -42.683 -52.978  12.667  1.00  0.00     0.322 C 
HETATM    3  O   UNL     1     -43.638 -53.726  12.471  1.00  0.00    -0.247 OA
HETATM    4  N   UNL     1     -41.646 -53.280  13.496  1.00  0.00    -0.338 N 
HETATM    5  H   UNL     1     -43.346 -51.623  11.344  1.00  0.00     0.172 HD
HETATM    6  H   UNL     1     -41.036 -52.499  13.722  1.00  0.00     0.164 HD
ENDROOT
BRANCH   1   7
HETATM    7  C   UNL     1     -41.593 -50.845  12.097  1.00  0.00     0.132 A 
HETATM    8  C   UNL     1     -41.488 -49.877  13.122  1.00  0.00     0.086 A 
HETATM    9  C   UNL     1     -40.372 -49.139  12.792  1.00  0.00     0.087 A 
HETATM   10  O   UNL     1     -39.818 -49.668  11.670  1.00  0.00    -0.240 OA
HETATM   11  N   UNL     1     -40.579 -50.721  11.234  1.00  0.00    -0.245 N 
ATOM     12  HN  UNL     1     -40.405 -51.298  10.411  1.00  0.00     0.196 HD
BRANCH   9  13
HETATM   13  C   UNL     1     -39.663 -47.962  13.399  1.00  0.00     0.000 C 
HETATM   14  C   UNL     1     -40.342 -47.605  14.730  1.00  0.00     0.021 C 
HETATM   15  C   UNL     1     -39.729 -46.757  12.444  1.00  0.00     0.021 C 
HETATM   16  C   UNL     1     -38.179 -48.289  13.658  1.00  0.00     0.021 C 
ENDBRANCH   9  13
ENDBRANCH   1   7
BRANCH   4  17
HETATM   17  C   UNL     1     -41.546 -54.476  14.311  1.00  0.00     0.092 C 
HETATM   18  C   UNL     1     -42.827 -54.662  15.137  1.00  0.00     0.026 C 
HETATM   19  C   UNL     1     -42.951 -53.651  16.278  1.00  0.00     0.002 C 
HETATM   20  C   UNL     1     -41.712 -53.649  17.164  1.00  0.00     0.001 C 
HETATM   21  C   UNL     1     -40.442 -53.403  16.356  1.00  0.00     0.009 C 
HETATM   22  C   UNL     1     -40.290 -54.424  15.212  1.00  0.00     0.032 C 
BRANCH  22  23
HETATM   23  C   UNL     1     -39.018 -54.160  14.392  1.00  0.00     0.170 C 
BRANCH  23  24
HETATM   24  O   UNL     1     -39.003 -54.959  13.213  1.00  0.00    -0.400 OA
HETATM   25  H   UNL     1     -39.924 -55.188  13.002  1.00  0.00     0.209 HD
ENDBRANCH  23  24
ENDBRANCH  22  23
ENDBRANCH   4  17
TORSDOF 5
ENDMDL
MODEL 9
REMARK VINA RESULT:      -5.5      2.181      6.179
REMARK  5 active torsions:
REMARK  status: ('A' for Active; 'I' for Inactive)
REMARK    1  A    between atoms: C_2  and  C_5 
REMARK    2  A    between atoms: C_7  and  N_8 
REMARK       I    between atoms: N_8  and  C_9 
REMARK       I    between atoms: C_9  and  N_11 
REMARK    3  A    between atoms: N_11  and  C_12 
REMARK    4  A    between atoms: C_17  and  C_18 
REMARK    5  A    between atoms: C_18  and  O_19 
ROOT
HETATM    1  N   UNL     1     -41.501 -54.182  14.997  1.00  0.00    -0.293 N 
HETATM    2  C   UNL     1     -42.810 -54.558  15.122  1.00  0.00     0.322 C 
HETATM    3  O   UNL     1     -43.090 -55.719  15.412  1.00  0.00    -0.247 OA
HETATM    4  N   UNL     1     -43.738 -53.576  14.957  1.00  0.00    -0.338 N 
HETATM    5  H   UNL     1     -40.836 -54.914  15.189  1.00  0.00     0.172 HD
HETATM    6  H   UNL     1     -43.390 -52.726  14.523  1.00  0.00     0.164 HD
ENDROOT
BRANCH   1   7
HETATM    7  C   UNL     1     -41.020 -52.925  14.686  1.00  0.00     0.132 A 
HETATM    8  C   UNL     1     -40.487 -52.547  13.433  1.00  0.00     0.086 A 
HETATM    9  C   UNL     1     -40.102 -51.235  13.598  1.00  0.00     0.087 A 
HETATM   10  O   UNL     1     -40.433 -50.840  14.856  1.00  0.00    -0.240 OA
HETATM   11  N   UNL     1     -40.995 -51.890  15.534  1.00  0.00    -0.245 N 
ATOM     12  HN  UNL     1     -41.330 -51.883  16.497  1.00  0.00     0.196 HD
BRANCH   9  13
HETATM   13  C   UNL     1     -39.461 -50.199  12.719  1.00  0.00     0.000 C 
HETATM   14  C   UNL     1     -38.035 -50.655  12.372  1.00  0.00     0.021 C 
HETATM   15  C   UNL     1     -39.409 -48.845  13.450  1.00  0.00     0.021 C 
HETATM   16  C   UNL     1     -40.265 -50.011  11.417  1.00  0.00     0.021 C 
ENDBRANCH   9  13
ENDBRANCH   1   7
BRANCH   4  17
HETATM   17  C   UNL     1     -45.175 -53.763  15.027  1.00  0.00     0.092 C 
HETATM   18  C   UNL     1     -45.749 -53.994  13.622  1.00  0.00     0.026 C 
HETATM   19  C   UNL     1     -45.752 -52.727  12.764  1.00  0.00     0.002 C 
HETATM   20  C   UNL     1     -46.454 -51.573  13.470  1.00  0.00     0.001 C 
HETATM   21  C   UNL     1     -45.847 -51.299  14.842  1.00  0.00     0.009 C 
HETATM   22  C   UNL     1     -45.852 -52.560  15.727  1.00  0.00     0.032 C 
BRANCH  22  23
HETATM   23  C   UNL     1     -45.224 -52.282  17.101  1.00  0.00     0.170 C 
BRANCH  23  24
HETATM   24  O   UNL     1     -43.968 -51.626  16.958  1.00  0.00    -0.400 OA
HETATM   25  H   UNL     1     -43.897 -51.326  16.036  1.00  0.00     0.209 HD
ENDBRANCH  23  24
ENDBRANCH  22  23
ENDBRANCH   4  17
TORSDOF 5
ENDMDL
