MODEL 1
REMARK VINA RESULT:      -6.0      0.000      0.000
REMARK  6 active torsions:
REMARK  status: ('A' for Active; 'I' for Inactive)
REMARK    1  A    between atoms: C_2  and  C_3 
REMARK    2  A    between atoms: C_2  and  C_17 
REMARK    3  A    between atoms: C_3  and  N_4 
REMARK       I    between atoms: N_4  and  C_5 
REMARK    4  A    between atoms: C_5  and  C_7 
REMARK    5  A    between atoms: C_7  and  C_10 
REMARK    6  A    between atoms: C_17  and  N_18 
ROOT
HETATM    1  N   UNL     1     -44.248 -53.652  14.700  1.00  0.00    -0.360 N 
HETATM    2  C   UNL     1     -44.993 -53.213  13.626  1.00  0.00     0.230 C 
HETATM    3  O   UNL     1     -45.311 -53.958  12.702  1.00  0.00    -0.272 OA
HETATM    4  H   UNL     1     -44.061 -53.011  15.461  1.00  0.00     0.162 HD
ENDROOT
BRANCH   1   5
HETATM    5  C   UNL     1     -43.753 -55.017  14.812  1.00  0.00     0.128 C 
BRANCH   5   6
HETATM    6  C   UNL     1     -42.402 -55.080  15.544  1.00  0.00     0.028 C 
HETATM    7  C   UNL     1     -42.609 -54.932  17.062  1.00  0.00     0.013 C 
BRANCH   6   8
HETATM    8  C   UNL     1     -41.425 -53.971  15.083  1.00  0.00     0.278 C 
BRANCH   8   9
HETATM    9  N   UNL     1     -40.430 -54.332  14.062  1.00  0.00     0.092 N 
HETATM   10  C   UNL     1     -39.101 -53.706  14.249  1.00  0.00     0.298 C 
HETATM   11  C   UNL     1     -39.054 -52.203  13.922  1.00  0.00     0.198 C 
HETATM   12  O   UNL     1     -39.540 -51.929  12.600  1.00  0.00    -0.388 OA
HETATM   13  C   UNL     1     -40.863 -52.447  12.425  1.00  0.00     0.198 C 
HETATM   14  C   UNL     1     -40.910 -53.960  12.706  1.00  0.00     0.298 C 
ENDBRANCH   8   9
ENDBRANCH   6   8
ENDBRANCH   5   6
ENDBRANCH   1   5
BRANCH   2  15
HETATM   15  C   UNL     1     -45.429 -51.720  13.674  1.00  0.00     0.062 C 
HETATM   16  C   UNL     1     -44.230 -50.841  13.251  1.00  0.00     0.030 C 
HETATM   17  C   UNL     1     -46.533 -51.495  12.611  1.00  0.00     0.030 C 
BRANCH  15  18
HETATM   18  C   UNL     1     -46.001 -51.373  15.054  1.00  0.00    -0.026 A 
HETATM   19  C   UNL     1     -45.242 -50.633  15.978  1.00  0.00     0.011 A 
HETATM   20  C   UNL     1     -45.741 -50.360  17.248  1.00  0.00     0.018 A 
HETATM   21  C   UNL     1     -47.004 -50.821  17.567  1.00  0.00     0.087 A 
HETATM   22  N   UNL     1     -47.778 -51.518  16.713  1.00  0.00    -0.375 N 
HETATM   23  C   UNL     1     -47.259 -51.782  15.490  1.00  0.00     0.096 A 
ATOM     24  HN  UNL     1     -48.712 -51.833  16.975  1.00  0.00     0.164 HD
ENDBRANCH  15  18
ENDBRANCH   2  15
TORSDOF 6
ENDMDL
MODEL 2
REMARK VINA RESULT:      -5.9      3.769      6.299
REMARK  6 active torsions:
REMARK  status: ('A' for Active; 'I' for Inactive)
REMARK    1  A    between atoms: C_2  and  C_3 
REMARK    2  A    between atoms: C_2  and  C_17 
REMARK    3  A    between atoms: C_3  and  N_4 
REMARK       I    between atoms: N_4  and  C_5 
REMARK    4  A    between atoms: C_5  and  C_7 
REMARK    5  A    between atoms: C_7  and  C_10 
REMARK    6  A    between atoms: C_17  and  N_18 
ROOT
HETATM    1  N   UNL     1     -41.942 -50.631  11.904  1.00  0.00    -0.360 N 
HETATM    2  C   UNL     1     -41.190 -49.489  11.729  1.00  0.00     0.230 C 
HETATM    3  O   UNL     1     -39.995 -49.530  11.444  1.00  0.00    -0.272 OA
HETATM    4  H   UNL     1     -42.935 -50.541  12.082  1.00  0.00     0.162 HD
ENDROOT
BRANCH   1   5
HETATM    5  C   UNL     1     -41.381 -51.970  11.799  1.00  0.00     0.128 C 
BRANCH   5   6
HETATM    6  C   UNL     1     -41.903 -52.900  12.907  1.00  0.00     0.028 C 
HETATM    7  C   UNL     1     -41.033 -54.166  12.997  1.00  0.00     0.013 C 
BRANCH   6   8
HETATM    8  C   UNL     1     -43.368 -53.341  12.671  1.00  0.00     0.278 C 
BRANCH   8   9
HETATM    9  N   UNL     1     -44.395 -52.766  13.554  1.00  0.00     0.092 N 
HETATM   10  C   UNL     1     -44.051 -52.790  14.994  1.00  0.00     0.298 C 
HETATM   11  C   UNL     1     -44.116 -54.185  15.641  1.00  0.00     0.198 C 
HETATM   12  O   UNL     1     -45.390 -54.811  15.434  1.00  0.00    -0.388 OA
HETATM   13  C   UNL     1     -45.703 -54.882  14.039  1.00  0.00     0.198 C 
HETATM   14  C   UNL     1     -45.686 -53.484  13.393  1.00  0.00     0.298 C 
ENDBRANCH   8   9
ENDBRANCH   6   8
ENDBRANCH   5   6
ENDBRANCH   1   5
BRANCH   2  15
HETATM   15  C   UNL     1     -41.957 -48.145  11.885  1.00  0.00     0.062 C 
HETATM   16  C   UNL     1     -42.739 -48.174  13.219  1.00  0.00     0.030 C 
HETATM   17  C   UNL     1     -40.924 -46.999  12.009  1.00  0.00     0.030 C 
BRANCH  15  18
HETATM   18  C   UNL     1     -42.835 -47.882  10.655  1.00  0.00    -0.026 A 
HETATM   19  C   UNL     1     -44.223 -47.704  10.790  1.00  0.00     0.011 A 
HETATM   20  C   UNL     1     -45.026 -47.515   9.668  1.00  0.00     0.018 A 
HETATM   21  C   UNL     1     -44.419 -47.491   8.427  1.00  0.00     0.087 A 
HETATM   22  N   UNL     1     -43.092 -47.639   8.245  1.00  0.00    -0.375 N 
HETATM   23  C   UNL     1     -42.339 -47.837   9.353  1.00  0.00     0.096 A 
ATOM     24  HN  UNL     1     -42.674 -47.603   7.316  1.00  0.00     0.164 HD
ENDBRANCH  15  18
ENDBRANCH   2  15
TORSDOF 6
ENDMDL
MODEL 3
REMARK VINA RESULT:      -5.8      3.974      5.485
REMARK  6 active torsions:
REMARK  status: ('A' for Active; 'I' for Inactive)
REMARK    1  A    between atoms: C_2  and  C_3 
REMARK    2  A    between atoms: C_2  and  C_17 
REMARK    3  A    between atoms: C_3  and  N_4 
REMARK       I    between atoms: N_4  and  C_5 
REMARK    4  A    between atoms: C_5  and  C_7 
REMARK    5  A    between atoms: C_7  and  C_10 
REMARK    6  A    between atoms: C_17  and  N_18 
ROOT
HETATM    1  N   UNL     1     -43.870 -50.655  12.903  1.00  0.00    -0.360 N 
HETATM    2  C   UNL     1     -44.160 -51.827  13.568  1.00  0.00     0.230 C 
HETATM    3  O   UNL     1     -43.282 -52.598  13.950  1.00  0.00    -0.272 OA
HETATM    4  H   UNL     1     -44.627 -50.029  12.660  1.00  0.00     0.162 HD
ENDROOT
BRANCH   1   5
HETATM    5  C   UNL     1     -42.511 -50.252  12.570  1.00  0.00     0.128 C 
BRANCH   5   6
HETATM    6  C   UNL     1     -42.378 -48.725  12.450  1.00  0.00     0.028 C 
HETATM    7  C   UNL     1     -42.877 -48.042  13.736  1.00  0.00     0.013 C 
BRANCH   6   8
HETATM    8  C   UNL     1     -43.183 -48.151  11.258  1.00  0.00     0.278 C 
BRANCH   8   9
HETATM    9  N   UNL     1     -42.416 -47.649  10.108  1.00  0.00     0.092 N 
HETATM   10  C   UNL     1     -41.762 -46.339  10.328  1.00  0.00     0.298 C 
HETATM   11  C   UNL     1     -42.728 -45.141  10.350  1.00  0.00     0.198 C 
HETATM   12  O   UNL     1     -43.538 -45.087   9.167  1.00  0.00    -0.388 OA
HETATM   13  C   UNL     1     -44.253 -46.314   8.982  1.00  0.00     0.198 C 
HETATM   14  C   UNL     1     -43.290 -47.514   8.914  1.00  0.00     0.298 C 
ENDBRANCH   8   9
ENDBRANCH   6   8
ENDBRANCH   5   6
ENDBRANCH   1   5
BRANCH   2  15
HETATM   15  C   UNL     1     -45.670 -52.096  13.831  1.00  0.00     0.062 C 
HETATM   16  C   UNL     1     -46.486 -51.536  12.645  1.00  0.00     0.030 C 
HETATM   17  C   UNL     1     -45.903 -53.627  13.840  1.00  0.00     0.030 C 
BRANCH  15  18
HETATM   18  C   UNL     1     -46.086 -51.530  15.196  1.00  0.00    -0.026 A 
HETATM   19  C   UNL     1     -47.394 -51.710  15.676  1.00  0.00     0.011 A 
HETATM   20  C   UNL     1     -47.786 -51.155  16.891  1.00  0.00     0.018 A 
HETATM   21  C   UNL     1     -46.850 -50.440  17.614  1.00  0.00     0.087 A 
HETATM   22  N   UNL     1     -45.580 -50.254  17.207  1.00  0.00    -0.375 N 
HETATM   23  C   UNL     1     -45.233 -50.793  16.014  1.00  0.00     0.096 A 
ATOM     24  HN  UNL     1     -44.910 -49.732  17.771  1.00  0.00     0.164 HD
ENDBRANCH  15  18
ENDBRANCH   2  15
TORSDOF 6
ENDMDL
MODEL 4
REMARK VINA RESULT:      -5.8      1.840      2.545
REMARK  6 active torsions:
REMARK  status: ('A' for Active; 'I' for Inactive)
REMARK    1  A    between atoms: C_2  and  C_3 
REMARK    2  A    between atoms: C_2  and  C_17 
REMARK    3  A    between atoms: C_3  and  N_4 
REMARK       I    between atoms: N_4  and  C_5 
REMARK    4  A    between atoms: C_5  and  C_7 
REMARK    5  A    between atoms: C_7  and  C_10 
REMARK    6  A    between atoms: C_17  and  N_18 
ROOT
HETATM    1  N   UNL     1     -43.155 -53.161  13.474  1.00  0.00    -0.360 N 
HETATM    2  C   UNL     1     -44.505 -53.229  13.203  1.00  0.00     0.230 C 
HETATM    3  O   UNL     1     -45.033 -54.247  12.761  1.00  0.00    -0.272 OA
HETATM    4  H   UNL     1     -42.780 -52.317  13.890  1.00  0.00     0.162 HD
ENDROOT
BRANCH   1   5
HETATM    5  C   UNL     1     -42.244 -54.271  13.230  1.00  0.00     0.128 C 
BRANCH   5   6
HETATM    6  C   UNL     1     -40.863 -53.786  12.755  1.00  0.00     0.028 C 
HETATM    7  C   UNL     1     -39.787 -54.136  13.797  1.00  0.00     0.013 C 
BRANCH   6   8
HETATM    8  C   UNL     1     -40.821 -52.257  12.515  1.00  0.00     0.278 C 
BRANCH   8   9
HETATM    9  N   UNL     1     -39.851 -51.479  13.301  1.00  0.00     0.092 N 
HETATM   10  C   UNL     1     -40.453 -50.444  14.171  1.00  0.00     0.298 C 
HETATM   11  C   UNL     1     -40.996 -49.216  13.418  1.00  0.00     0.198 C 
HETATM   12  O   UNL     1     -39.998 -48.623  12.575  1.00  0.00    -0.388 OA
HETATM   13  C   UNL     1     -39.465 -49.587  11.660  1.00  0.00     0.198 C 
HETATM   14  C   UNL     1     -38.878 -50.799  12.408  1.00  0.00     0.298 C 
ENDBRANCH   8   9
ENDBRANCH   6   8
ENDBRANCH   5   6
ENDBRANCH   1   5
BRANCH   2  15
HETATM   15  C   UNL     1     -45.321 -51.944  13.521  1.00  0.00     0.062 C 
HETATM   16  C   UNL     1     -44.413 -50.713  13.301  1.00  0.00     0.030 C 
HETATM   17  C   UNL     1     -46.475 -51.826  12.495  1.00  0.00     0.030 C 
BRANCH  15  18
HETATM   18  C   UNL     1     -45.926 -52.028  14.929  1.00  0.00    -0.026 A 
HETATM   19  C   UNL     1     -47.083 -51.299  15.256  1.00  0.00     0.011 A 
HETATM   20  C   UNL     1     -47.603 -51.336  16.547  1.00  0.00     0.018 A 
HETATM   21  C   UNL     1     -46.961 -52.118  17.487  1.00  0.00     0.087 A 
HETATM   22  N   UNL     1     -45.861 -52.849  17.221  1.00  0.00    -0.375 N 
HETATM   23  C   UNL     1     -45.369 -52.781  15.961  1.00  0.00     0.096 A 
ATOM     24  HN  UNL     1     -45.418 -53.427  17.935  1.00  0.00     0.164 HD
ENDBRANCH  15  18
ENDBRANCH   2  15
TORSDOF 6
ENDMDL
MODEL 5
REMARK VINA RESULT:      -5.5      3.298      6.597
REMARK  6 active torsions:
REMARK  status: ('A' for Active; 'I' for Inactive)
REMARK    1  A    between atoms: C_2  and  C_3 
REMARK    2  A    between atoms: C_2  and  C_17 
REMARK    3  A    between atoms: C_3  and  N_4 
REMARK       I    between atoms: N_4  and  C_5 
REMARK    4  A    between atoms: C_5  and  C_7 
REMARK    5  A    between atoms: C_7  and  C_10 
REMARK    6  A    between atoms: C_17  and  N_18 
ROOT
HETATM    1  N   UNL     1     -39.879 -50.509  14.498  1.00  0.00    -0.360 N 
HETATM    2  C   UNL     1     -39.163 -50.846  13.369  1.00  0.00     0.230 C 
HETATM    3  O   UNL     1     -39.067 -52.007  12.978  1.00  0.00    -0.272 OA
HETATM    4  H   UNL     1     -39.973 -49.531  14.745  1.00  0.00     0.162 HD
ENDROOT
BRANCH   1   5
HETATM    5  C   UNL     1     -40.548 -51.496  15.333  1.00  0.00     0.128 C 
BRANCH   5   6
HETATM    6  C   UNL     1     -42.078 -51.345  15.288  1.00  0.00     0.028 C 
HETATM    7  C   UNL     1     -42.590 -50.699  16.587  1.00  0.00     0.013 C 
BRANCH   6   8
HETATM    8  C   UNL     1     -42.803 -52.700  15.107  1.00  0.00     0.278 C 
BRANCH   8   9
HETATM    9  N   UNL     1     -44.268 -52.667  14.973  1.00  0.00     0.092 N 
HETATM   10  C   UNL     1     -44.934 -53.974  15.178  1.00  0.00     0.298 C 
HETATM   11  C   UNL     1     -44.740 -54.975  14.025  1.00  0.00     0.198 C 
HETATM   12  O   UNL     1     -45.135 -54.419  12.763  1.00  0.00    -0.388 OA
HETATM   13  C   UNL     1     -44.434 -53.199  12.501  1.00  0.00     0.198 C 
HETATM   14  C   UNL     1     -44.660 -52.174  13.628  1.00  0.00     0.298 C 
ENDBRANCH   8   9
ENDBRANCH   6   8
ENDBRANCH   5   6
ENDBRANCH   1   5
BRANCH   2  15
HETATM   15  C   UNL     1     -38.510 -49.658  12.606  1.00  0.00     0.062 C 
HETATM   16  C   UNL     1     -37.714 -48.800  13.615  1.00  0.00     0.030 C 
HETATM   17  C   UNL     1     -37.476 -50.226  11.603  1.00  0.00     0.030 C 
BRANCH  15  18
HETATM   18  C   UNL     1     -39.572 -48.875  11.823  1.00  0.00    -0.026 A 
HETATM   19  C   UNL     1     -39.688 -47.482  11.971  1.00  0.00     0.011 A 
HETATM   20  C   UNL     1     -40.683 -46.778  11.299  1.00  0.00     0.018 A 
HETATM   21  C   UNL     1     -41.538 -47.483  10.474  1.00  0.00     0.087 A 
HETATM   22  N   UNL     1     -41.458 -48.815  10.283  1.00  0.00    -0.375 N 
HETATM   23  C   UNL     1     -40.490 -49.474  10.962  1.00  0.00     0.096 A 
ATOM     24  HN  UNL     1     -42.097 -49.303   9.656  1.00  0.00     0.164 HD
ENDBRANCH  15  18
ENDBRANCH   2  15
TORSDOF 6
ENDMDL
MODEL 6
REMARK VINA RESULT:      -5.5      2.884      6.516
REMARK  6 active torsions:
REMARK  status: ('A' for Active; 'I' for Inactive)
REMARK    1  A    between atoms: C_2  and  C_3 
REMARK    2  A    between atoms: C_2  and  C_17 
REMARK    3  A    between atoms: C_3  and  N_4 
REMARK       I    between atoms: N_4  and  C_5 
REMARK    4  A    between atoms: C_5  and  C_7 
REMARK    5  A    between atoms: C_7  and  C_10 
REMARK    6  A    between atoms: C_17  and  N_18 
ROOT
HETATM    1  N   UNL     1     -40.686 -51.717  14.109  1.00  0.00    -0.360 N 
HETATM    2  C   UNL     1     -39.456 -51.303  13.645  1.00  0.00     0.230 C 
HETATM    3  O   UNL     1     -38.583 -52.098  13.304  1.00  0.00    -0.272 OA
HETATM    4  H   UNL     1     -41.389 -51.021  14.323  1.00  0.00     0.162 HD
ENDROOT
BRANCH   1   5
HETATM    5  C   UNL     1     -41.039 -53.122  14.265  1.00  0.00     0.128 C 
BRANCH   5   6
HETATM    6  C   UNL     1     -42.153 -53.545  13.294  1.00  0.00     0.028 C 
HETATM    7  C   UNL     1     -42.097 -52.694  12.013  1.00  0.00     0.013 C 
BRANCH   6   8
HETATM    8  C   UNL     1     -43.566 -53.394  13.909  1.00  0.00     0.278 C 
BRANCH   8   9
HETATM    9  N   UNL     1     -44.705 -53.847  13.096  1.00  0.00     0.092 N 
HETATM   10  C   UNL     1     -45.680 -52.785  12.758  1.00  0.00     0.298 C 
HETATM   11  C   UNL     1     -46.559 -52.328  13.936  1.00  0.00     0.198 C 
HETATM   12  O   UNL     1     -47.235 -53.430  14.557  1.00  0.00    -0.388 OA
HETATM   13  C   UNL     1     -46.302 -54.431  14.976  1.00  0.00     0.198 C 
HETATM   14  C   UNL     1     -45.449 -54.928  13.793  1.00  0.00     0.298 C 
ENDBRANCH   8   9
ENDBRANCH   6   8
ENDBRANCH   5   6
ENDBRANCH   1   5
BRANCH   2  15
HETATM   15  C   UNL     1     -39.255 -49.763  13.551  1.00  0.00     0.062 C 
HETATM   16  C   UNL     1     -39.438 -49.154  14.960  1.00  0.00     0.030 C 
HETATM   17  C   UNL     1     -37.789 -49.481  13.139  1.00  0.00     0.030 C 
BRANCH  15  18
HETATM   18  C   UNL     1     -40.186 -49.165  12.488  1.00  0.00    -0.026 A 
HETATM   19  C   UNL     1     -41.046 -48.100  12.807  1.00  0.00     0.011 A 
HETATM   20  C   UNL     1     -41.925 -47.589  11.857  1.00  0.00     0.018 A 
HETATM   21  C   UNL     1     -41.917 -48.147  10.593  1.00  0.00     0.087 A 
HETATM   22  N   UNL     1     -41.100 -49.156  10.231  1.00  0.00    -0.375 N 
HETATM   23  C   UNL     1     -40.267 -49.641  11.181  1.00  0.00     0.096 A 
ATOM     24  HN  UNL     1     -41.109 -49.536   9.284  1.00  0.00     0.164 HD
ENDBRANCH  15  18
ENDBRANCH   2  15
TORSDOF 6
ENDMDL
MODEL 7
REMARK VINA RESULT:      -5.5      2.047      3.416
REMARK  6 active torsions:
REMARK  status: ('A' for Active; 'I' for Inactive)
REMARK    1  A    between atoms: C_2  and  C_3 
REMARK    2  A    between atoms: C_2  and  C_17 
REMARK    3  A    between atoms: C_3  and  N_4 
REMARK       I    between atoms: N_4  and  C_5 
REMARK    4  A    between atoms: C_5  and  C_7 
REMARK    5  A    between atoms: C_7  and  C_10 
REMARK    6  A    between atoms: C_17  and  N_18 
ROOT
HETATM    1  N   UNL     1     -43.210 -52.640  13.481  1.00  0.00    -0.360 N 
HETATM    2  C   UNL     1     -44.362 -53.352  13.229  1.00  0.00     0.230 C 
HETATM    3  O   UNL     1     -44.930 -53.315  12.139  1.00  0.00    -0.272 OA
HETATM    4  H   UNL     1     -42.751 -52.750  14.377  1.00  0.00     0.162 HD
ENDROOT
BRANCH   1   5
HETATM    5  C   UNL     1     -42.591 -51.764  12.495  1.00  0.00     0.128 C 
BRANCH   5   6
HETATM    6  C   UNL     1     -41.229 -52.301  12.025  1.00  0.00     0.028 C 
HETATM    7  C   UNL     1     -40.816 -53.522  12.866  1.00  0.00     0.013 C 
BRANCH   6   8
HETATM    8  C   UNL     1     -40.105 -51.242  12.131  1.00  0.00     0.278 C 
BRANCH   8   9
HETATM    9  N   UNL     1     -39.269 -51.267  13.342  1.00  0.00     0.092 N 
HETATM   10  C   UNL     1     -39.706 -50.339  14.410  1.00  0.00     0.298 C 
HETATM   11  C   UNL     1     -39.431 -48.854  14.116  1.00  0.00     0.198 C 
HETATM   12  O   UNL     1     -38.051 -48.619  13.801  1.00  0.00    -0.388 OA
HETATM   13  C   UNL     1     -37.630 -49.441  12.707  1.00  0.00     0.198 C 
HETATM   14  C   UNL     1     -37.859 -50.933  13.012  1.00  0.00     0.298 C 
ENDBRANCH   8   9
ENDBRANCH   6   8
ENDBRANCH   5   6
ENDBRANCH   1   5
BRANCH   2  15
HETATM   15  C   UNL     1     -44.882 -54.231  14.403  1.00  0.00     0.062 C 
HETATM   16  C   UNL     1     -45.655 -55.434  13.817  1.00  0.00     0.030 C 
HETATM   17  C   UNL     1     -43.663 -54.818  15.156  1.00  0.00     0.030 C 
BRANCH  15  18
HETATM   18  C   UNL     1     -45.701 -53.383  15.385  1.00  0.00    -0.026 A 
HETATM   19  C   UNL     1     -46.523 -52.342  14.920  1.00  0.00     0.011 A 
HETATM   20  C   UNL     1     -47.227 -51.541  15.814  1.00  0.00     0.018 A 
HETATM   21  C   UNL     1     -47.107 -51.808  17.164  1.00  0.00     0.087 A 
HETATM   22  N   UNL     1     -46.348 -52.804  17.661  1.00  0.00    -0.375 N 
HETATM   23  C   UNL     1     -45.663 -53.556  16.767  1.00  0.00     0.096 A 
ATOM     24  HN  UNL     1     -46.292 -52.983  18.663  1.00  0.00     0.164 HD
ENDBRANCH  15  18
ENDBRANCH   2  15
TORSDOF 6
ENDMDL
MODEL 8
REMARK VINA RESULT:      -5.4      3.202      5.866
REMARK  6 active torsions:
REMARK  status: ('A' for Active; 'I' for Inactive)
REMARK    1  A    between atoms: C_2  and  C_3 
REMARK    2  A    between atoms: C_2  and  C_17 
REMARK    3  A    between atoms: C_3  and  N_4 
REMARK       I    between atoms: N_4  and  C_5 
REMARK    4  A    between atoms: C_5  and  C_7 
REMARK    5  A    between atoms: C_7  and  C_10 
REMARK    6  A    between atoms: C_17  and  N_18 
ROOT
HETATM    1  N   UNL     1     -39.665 -51.953  13.265  1.00  0.00    -0.360 N 
HETATM    2  C   UNL     1     -40.739 -52.222  14.086  1.00  0.00     0.230 C 
HETATM    3  O   UNL     1     -41.212 -51.378  14.843  1.00  0.00    -0.272 OA
HETATM    4  H   UNL     1     -39.350 -52.667  12.620  1.00  0.00     0.162 HD
ENDROOT
BRANCH   1   5
HETATM    5  C   UNL     1     -38.985 -50.665  13.251  1.00  0.00     0.128 C 
BRANCH   5   6
HETATM    6  C   UNL     1     -38.974 -50.037  11.847  1.00  0.00     0.028 C 
HETATM    7  C   UNL     1     -37.528 -49.840  11.361  1.00  0.00     0.013 C 
BRANCH   6   8
HETATM    8  C   UNL     1     -39.686 -48.663  11.806  1.00  0.00     0.278 C 
BRANCH   8   9
HETATM    9  N   UNL     1     -40.953 -48.583  11.062  1.00  0.00     0.092 N 
HETATM   10  C   UNL     1     -41.441 -47.206  10.825  1.00  0.00     0.298 C 
HETATM   11  C   UNL     1     -42.002 -46.505  12.075  1.00  0.00     0.198 C 
HETATM   12  O   UNL     1     -43.028 -47.283  12.708  1.00  0.00    -0.388 OA
HETATM   13  C   UNL     1     -42.549 -48.593  13.030  1.00  0.00     0.198 C 
HETATM   14  C   UNL     1     -42.028 -49.319  11.777  1.00  0.00     0.298 C 
ENDBRANCH   8   9
ENDBRANCH   6   8
ENDBRANCH   5   6
ENDBRANCH   1   5
BRANCH   2  15
HETATM   15  C   UNL     1     -41.332 -53.656  13.970  1.00  0.00     0.062 C 
HETATM   16  C   UNL     1     -40.497 -54.456  12.945  1.00  0.00     0.030 C 
HETATM   17  C   UNL     1     -41.160 -54.372  15.332  1.00  0.00     0.030 C 
BRANCH  15  18
HETATM   18  C   UNL     1     -42.829 -53.591  13.638  1.00  0.00    -0.026 A 
HETATM   19  C   UNL     1     -43.756 -54.364  14.358  1.00  0.00     0.011 A 
HETATM   20  C   UNL     1     -45.107 -54.343  14.025  1.00  0.00     0.018 A 
HETATM   21  C   UNL     1     -45.510 -53.532  12.981  1.00  0.00     0.087 A 
HETATM   22  N   UNL     1     -44.665 -52.759  12.271  1.00  0.00    -0.375 N 
HETATM   23  C   UNL     1     -43.355 -52.812  12.609  1.00  0.00     0.096 A 
ATOM     24  HN  UNL     1     -44.997 -52.161  11.515  1.00  0.00     0.164 HD
ENDBRANCH  15  18
ENDBRANCH   2  15
TORSDOF 6
ENDMDL
MODEL 9
REMARK VINA RESULT:      -5.4      4.706      6.926
REMARK  6 active torsions:
REMARK  status: ('A' for Active; 'I' for Inactive)
REMARK    1  A    between atoms: C_2  and  C_3 
REMARK    2  A    between atoms: C_2  and  C_17 
REMARK    3  A    between atoms: C_3  and  N_4 
REMARK       I    between atoms: N_4  and  C_5 
REMARK    4  A    between atoms: C_5  and  C_7 
REMARK    5  A    between atoms: C_7  and  C_10 
REMARK    6  A    between atoms: C_17  and  N_18 
ROOT
HETATM    1  N   UNL     1     -39.276 -47.825  13.055  1.00  0.00    -0.360 N 
HETATM    2  C   UNL     1     -40.592 -47.427  13.157  1.00  0.00     0.230 C 
HETATM    3  O   UNL     1     -41.393 -47.998  13.893  1.00  0.00    -0.272 OA
HETATM    4  H   UNL     1     -38.644 -47.286  12.477  1.00  0.00     0.162 HD
ENDROOT
BRANCH   1   5
HETATM    5  C   UNL     1     -38.739 -48.967  13.781  1.00  0.00     0.128 C 
BRANCH   5   6
HETATM    6  C   UNL     1     -38.377 -50.128  12.840  1.00  0.00     0.028 C 
HETATM    7  C   UNL     1     -37.813 -49.585  11.514  1.00  0.00     0.013 C 
BRANCH   6   8
HETATM    8  C   UNL     1     -39.593 -51.028  12.512  1.00  0.00     0.278 C 
BRANCH   8   9
HETATM    9  N   UNL     1     -40.433 -51.461  13.639  1.00  0.00     0.092 N 
HETATM   10  C   UNL     1     -40.156 -52.834  14.120  1.00  0.00     0.298 C 
HETATM   11  C   UNL     1     -40.647 -53.950  13.180  1.00  0.00     0.198 C 
HETATM   12  O   UNL     1     -42.042 -53.813  12.873  1.00  0.00    -0.388 OA
HETATM   13  C   UNL     1     -42.319 -52.522  12.320  1.00  0.00     0.198 C 
HETATM   14  C   UNL     1     -41.872 -51.400  13.275  1.00  0.00     0.298 C 
ENDBRANCH   8   9
ENDBRANCH   6   8
ENDBRANCH   5   6
ENDBRANCH   1   5
BRANCH   2  15
HETATM   15  C   UNL     1     -40.989 -46.189  12.302  1.00  0.00     0.062 C 
HETATM   16  C   UNL     1     -41.737 -45.183  13.205  1.00  0.00     0.030 C 
HETATM   17  C   UNL     1     -39.695 -45.479  11.833  1.00  0.00     0.030 C 
BRANCH  15  18
HETATM   18  C   UNL     1     -41.783 -46.626  11.064  1.00  0.00    -0.026 A 
HETATM   19  C   UNL     1     -42.724 -45.762  10.476  1.00  0.00     0.011 A 
HETATM   20  C   UNL     1     -43.480 -46.176   9.383  1.00  0.00     0.018 A 
HETATM   21  C   UNL     1     -43.269 -47.447   8.886  1.00  0.00     0.087 A 
HETATM   22  N   UNL     1     -42.368 -48.307   9.401  1.00  0.00    -0.375 N 
HETATM   23  C   UNL     1     -41.658 -47.881  10.473  1.00  0.00     0.096 A 
ATOM     24  HN  UNL     1     -42.226 -49.234   9.002  1.00  0.00     0.164 HD
ENDBRANCH  15  18
ENDBRANCH   2  15
TORSDOF 6
ENDMDL
