MODEL 1
REMARK VINA RESULT:      -6.3      0.000      0.000
REMARK  7 active torsions:
REMARK  status: ('A' for Active; 'I' for Inactive)
REMARK    1  A    between atoms: C_2  and  S_3 
REMARK    2  A    between atoms: S_3  and  N_6 
REMARK    3  A    between atoms: C_9  and  N_12 
REMARK       I    between atoms: N_12  and  C_13 
REMARK    4  A    between atoms: C_13  and  C_15 
REMARK    5  A    between atoms: N_20  and  C_21 
REMARK    6  A    between atoms: C_21  and  C_22 
REMARK    7  A    between atoms: C_22  and  O_23 
ROOT
HETATM    1  N   UNL     1     -41.818 -50.348  11.742  1.00  0.00    -0.351 N 
HETATM    2  C   UNL     1     -41.276 -51.557  12.113  1.00  0.00     0.269 C 
HETATM    3  O   UNL     1     -40.097 -51.867  12.046  1.00  0.00    -0.266 OA
HETATM    4  H   UNL     1     -42.834 -50.305  11.716  1.00  0.00     0.163 HD
ENDROOT
BRANCH   2   5
HETATM    5  C   UNL     1     -42.295 -52.533  12.695  1.00  0.00     0.116 A 
HETATM    6  C   UNL     1     -41.741 -53.660  13.465  1.00  0.00     0.042 A 
HETATM    7  C   UNL     1     -42.623 -54.471  14.050  1.00  0.00     0.078 A 
HETATM    8  C   UNL     1     -44.075 -54.254  13.894  1.00  0.00     0.262 A 
HETATM    9  O   UNL     1     -44.856 -55.006  14.469  1.00  0.00    -0.267 OA
HETATM   10  N   UNL     1     -44.450 -53.195  13.072  1.00  0.00    -0.255 N 
HETATM   11  N   UNL     1     -43.560 -52.296  12.507  1.00  0.00    -0.290 N 
ATOM     12  HN  UNL     1     -43.880 -51.490  11.970  1.00  0.00     0.187 HD
BRANCH  10  13
HETATM   13  C   UNL     1     -45.864 -52.986  12.778  1.00  0.00     0.178 C 
BRANCH  13  14
HETATM   14  C   UNL     1     -46.319 -51.547  13.005  1.00  0.00     0.189 C 
BRANCH  14  15
HETATM   15  O   UNL     1     -45.888 -51.129  14.304  1.00  0.00    -0.394 OA
HETATM   16  C   UNL     1     -46.829 -51.478  15.311  1.00  0.00     0.201 C 
ENDBRANCH  14  15
ENDBRANCH  13  14
ENDBRANCH  10  13
ENDBRANCH   2   5
BRANCH   1  17
HETATM   17  C   UNL     1     -41.005 -49.272  11.188  1.00  0.00     0.087 C 
HETATM   18  C   UNL     1     -40.328 -48.476  12.306  1.00  0.00     0.045 C 
HETATM   19  C   UNL     1     -41.264 -47.471  12.965  1.00  0.00     0.137 C 
HETATM   20  N   UNL     1     -41.947 -46.609  11.970  1.00  0.00    -0.311 N 
HETATM   21  C   UNL     1     -42.726 -47.425  10.995  1.00  0.00     0.137 C 
HETATM   22  C   UNL     1     -41.814 -48.382  10.239  1.00  0.00     0.045 C 
BRANCH  20  23
HETATM   23  S   UNL     1     -41.095 -45.299  11.293  1.00  0.00     0.228 S 
HETATM   24  O   UNL     1     -42.045 -44.516  10.532  1.00  0.00    -0.206 OA
HETATM   25  O   UNL     1     -39.894 -45.816  10.673  1.00  0.00    -0.206 OA
BRANCH  23  26
HETATM   26  C   UNL     1     -40.622 -44.338  12.731  1.00  0.00     0.159 C 
HETATM   27  C   UNL     1     -39.110 -44.284  12.861  1.00  0.00     0.023 C 
ENDBRANCH  23  26
ENDBRANCH  20  23
ENDBRANCH   1  17
TORSDOF 7
ENDMDL
MODEL 2
REMARK VINA RESULT:      -6.2      3.266      7.764
REMARK  7 active torsions:
REMARK  status: ('A' for Active; 'I' for Inactive)
REMARK    1  A    between atoms: C_2  and  S_3 
REMARK    2  A    between atoms: S_3  and  N_6 
REMARK    3  A    between atoms: C_9  and  N_12 
REMARK       I    between atoms: N_12  and  C_13 
REMARK    4  A    between atoms: C_13  and  C_15 
REMARK    5  A    between atoms: N_20  and  C_21 
REMARK    6  A    between atoms: C_21  and  C_22 
REMARK    7  A    between atoms: C_22  and  O_23 
ROOT
HETATM    1  N   UNL     1     -43.078 -50.241  12.489  1.00  0.00    -0.351 N 
HETATM    2  C   UNL     1     -42.259 -49.136  12.523  1.00  0.00     0.269 C 
HETATM    3  O   UNL     1     -41.285 -48.985  13.245  1.00  0.00    -0.266 OA
HETATM    4  H   UNL     1     -43.932 -50.145  11.945  1.00  0.00     0.163 HD
ENDROOT
BRANCH   2   5
HETATM    5  C   UNL     1     -42.636 -48.061  11.507  1.00  0.00     0.116 A 
HETATM    6  C   UNL     1     -42.627 -46.674  12.003  1.00  0.00     0.042 A 
HETATM    7  C   UNL     1     -42.872 -45.720  11.105  1.00  0.00     0.078 A 
HETATM    8  C   UNL     1     -43.167 -46.058   9.698  1.00  0.00     0.262 A 
HETATM    9  O   UNL     1     -43.360 -45.151   8.894  1.00  0.00    -0.267 OA
HETATM   10  N   UNL     1     -43.218 -47.416   9.394  1.00  0.00    -0.255 N 
HETATM   11  N   UNL     1     -42.903 -48.425  10.288  1.00  0.00    -0.290 N 
ATOM     12  HN  UNL     1     -42.883 -49.405  10.005  1.00  0.00     0.187 HD
BRANCH  10  13
HETATM   13  C   UNL     1     -43.615 -47.831   8.053  1.00  0.00     0.178 C 
BRANCH  13  14
HETATM   14  C   UNL     1     -45.101 -48.165   7.943  1.00  0.00     0.189 C 
BRANCH  14  15
HETATM   15  O   UNL     1     -45.710 -47.975   9.224  1.00  0.00    -0.394 OA
HETATM   16  C   UNL     1     -46.849 -47.127   9.147  1.00  0.00     0.201 C 
ENDBRANCH  14  15
ENDBRANCH  13  14
ENDBRANCH  10  13
ENDBRANCH   2   5
BRANCH   1  17
HETATM   17  C   UNL     1     -42.869 -51.388  13.363  1.00  0.00     0.087 C 
HETATM   18  C   UNL     1     -42.902 -52.692  12.561  1.00  0.00     0.045 C 
HETATM   19  C   UNL     1     -44.318 -53.154  12.243  1.00  0.00     0.137 C 
HETATM   20  N   UNL     1     -45.176 -53.194  13.452  1.00  0.00    -0.311 N 
HETATM   21  C   UNL     1     -45.242 -51.859  14.110  1.00  0.00     0.137 C 
HETATM   22  C   UNL     1     -43.854 -51.395  14.536  1.00  0.00     0.045 C 
BRANCH  20  23
HETATM   23  S   UNL     1     -45.036 -54.516  14.518  1.00  0.00     0.228 S 
HETATM   24  O   UNL     1     -43.643 -54.614  14.898  1.00  0.00    -0.206 OA
HETATM   25  O   UNL     1     -45.726 -55.643  13.930  1.00  0.00    -0.206 OA
BRANCH  23  26
HETATM   26  C   UNL     1     -45.957 -53.973  15.956  1.00  0.00     0.159 C 
HETATM   27  C   UNL     1     -45.070 -53.978  17.189  1.00  0.00     0.023 C 
ENDBRANCH  23  26
ENDBRANCH  20  23
ENDBRANCH   1  17
TORSDOF 7
ENDMDL
MODEL 3
REMARK VINA RESULT:      -6.0      3.031      7.660
REMARK  7 active torsions:
REMARK  status: ('A' for Active; 'I' for Inactive)
REMARK    1  A    between atoms: C_2  and  S_3 
REMARK    2  A    between atoms: S_3  and  N_6 
REMARK    3  A    between atoms: C_9  and  N_12 
REMARK       I    between atoms: N_12  and  C_13 
REMARK    4  A    between atoms: C_13  and  C_15 
REMARK    5  A    between atoms: N_20  and  C_21 
REMARK    6  A    between atoms: C_21  and  C_22 
REMARK    7  A    between atoms: C_22  and  O_23 
ROOT
HETATM    1  N   UNL     1     -42.389 -50.891  12.192  1.00  0.00    -0.351 N 
HETATM    2  C   UNL     1     -41.194 -50.331  11.801  1.00  0.00     0.269 C 
HETATM    3  O   UNL     1     -40.109 -50.891  11.784  1.00  0.00    -0.266 OA
HETATM    4  H   UNL     1     -43.169 -50.248  12.294  1.00  0.00     0.163 HD
ENDROOT
BRANCH   2   5
HETATM    5  C   UNL     1     -41.323 -48.890  11.313  1.00  0.00     0.116 A 
HETATM    6  C   UNL     1     -40.268 -47.963  11.756  1.00  0.00     0.042 A 
HETATM    7  C   UNL     1     -40.322 -46.724  11.268  1.00  0.00     0.078 A 
HETATM    8  C   UNL     1     -41.411 -46.312  10.359  1.00  0.00     0.262 A 
HETATM    9  O   UNL     1     -41.412 -45.170   9.908  1.00  0.00    -0.267 OA
HETATM   10  N   UNL     1     -42.380 -47.274  10.091  1.00  0.00    -0.255 N 
HETATM   11  N   UNL     1     -42.315 -48.587  10.528  1.00  0.00    -0.290 N 
ATOM     12  HN  UNL     1     -43.009 -49.280  10.250  1.00  0.00     0.187 HD
BRANCH  10  13
HETATM   13  C   UNL     1     -43.546 -46.909   9.293  1.00  0.00     0.178 C 
BRANCH  13  14
HETATM   14  C   UNL     1     -43.756 -47.818   8.085  1.00  0.00     0.189 C 
BRANCH  14  15
HETATM   15  O   UNL     1     -45.139 -48.179   8.017  1.00  0.00    -0.394 OA
HETATM   16  C   UNL     1     -45.844 -47.799   9.192  1.00  0.00     0.201 C 
ENDBRANCH  14  15
ENDBRANCH  13  14
ENDBRANCH  10  13
ENDBRANCH   2   5
BRANCH   1  17
HETATM   17  C   UNL     1     -42.481 -52.267  12.666  1.00  0.00     0.087 C 
HETATM   18  C   UNL     1     -43.775 -52.921  12.176  1.00  0.00     0.045 C 
HETATM   19  C   UNL     1     -44.989 -52.522  13.005  1.00  0.00     0.137 C 
HETATM   20  N   UNL     1     -44.758 -52.708  14.458  1.00  0.00    -0.311 N 
HETATM   21  C   UNL     1     -43.579 -51.922  14.921  1.00  0.00     0.137 C 
HETATM   22  C   UNL     1     -42.317 -52.355  14.187  1.00  0.00     0.045 C 
BRANCH  20  23
HETATM   23  S   UNL     1     -44.883 -54.274  15.117  1.00  0.00     0.228 S 
HETATM   24  O   UNL     1     -43.566 -54.870  15.059  1.00  0.00    -0.206 OA
HETATM   25  O   UNL     1     -46.021 -54.928  14.510  1.00  0.00    -0.206 OA
BRANCH  23  26
HETATM   26  C   UNL     1     -45.263 -53.957  16.840  1.00  0.00     0.159 C 
HETATM   27  C   UNL     1     -44.064 -54.274  17.716  1.00  0.00     0.023 C 
ENDBRANCH  23  26
ENDBRANCH  20  23
ENDBRANCH   1  17
TORSDOF 7
ENDMDL
MODEL 4
REMARK VINA RESULT:      -5.4      2.404      4.093
REMARK  7 active torsions:
REMARK  status: ('A' for Active; 'I' for Inactive)
REMARK    1  A    between atoms: C_2  and  S_3 
REMARK    2  A    between atoms: S_3  and  N_6 
REMARK    3  A    between atoms: C_9  and  N_12 
REMARK       I    between atoms: N_12  and  C_13 
REMARK    4  A    between atoms: C_13  and  C_15 
REMARK    5  A    between atoms: N_20  and  C_21 
REMARK    6  A    between atoms: C_21  and  C_22 
REMARK    7  A    between atoms: C_22  and  O_23 
ROOT
HETATM    1  N   UNL     1     -40.673 -46.958  10.872  1.00  0.00    -0.351 N 
HETATM    2  C   UNL     1     -41.423 -48.079  10.599  1.00  0.00     0.269 C 
HETATM    3  O   UNL     1     -42.405 -48.128   9.875  1.00  0.00    -0.266 OA
HETATM    4  H   UNL     1     -39.983 -47.054  11.613  1.00  0.00     0.163 HD
ENDROOT
BRANCH   2   5
HETATM    5  C   UNL     1     -40.893 -49.348  11.261  1.00  0.00     0.116 A 
HETATM    6  C   UNL     1     -39.468 -49.333  11.634  1.00  0.00     0.042 A 
HETATM    7  C   UNL     1     -39.013 -50.402  12.288  1.00  0.00     0.078 A 
HETATM    8  C   UNL     1     -39.900 -51.546  12.584  1.00  0.00     0.262 A 
HETATM    9  O   UNL     1     -39.452 -52.500  13.213  1.00  0.00    -0.267 OA
HETATM   10  N   UNL     1     -41.202 -51.451  12.101  1.00  0.00    -0.255 N 
HETATM   11  N   UNL     1     -41.720 -50.328  11.478  1.00  0.00    -0.290 N 
ATOM     12  HN  UNL     1     -42.701 -50.271  11.203  1.00  0.00     0.187 HD
BRANCH  10  13
HETATM   13  C   UNL     1     -42.103 -52.588  12.254  1.00  0.00     0.178 C 
BRANCH  13  14
HETATM   14  C   UNL     1     -43.068 -52.435  13.427  1.00  0.00     0.189 C 
BRANCH  14  15
HETATM   15  O   UNL     1     -43.634 -51.121  13.389  1.00  0.00    -0.394 OA
HETATM   16  C   UNL     1     -44.808 -51.027  14.185  1.00  0.00     0.201 C 
ENDBRANCH  14  15
ENDBRANCH  13  14
ENDBRANCH  10  13
ENDBRANCH   2   5
BRANCH   1  17
HETATM   17  C   UNL     1     -41.000 -45.652  10.313  1.00  0.00     0.087 C 
HETATM   18  C   UNL     1     -39.833 -44.678  10.496  1.00  0.00     0.045 C 
HETATM   19  C   UNL     1     -39.767 -44.094  11.902  1.00  0.00     0.137 C 
HETATM   20  N   UNL     1     -41.068 -43.529  12.333  1.00  0.00    -0.311 N 
HETATM   21  C   UNL     1     -42.144 -44.560  12.290  1.00  0.00     0.137 C 
HETATM   22  C   UNL     1     -42.315 -45.107  10.879  1.00  0.00     0.045 C 
BRANCH  20  23
HETATM   23  S   UNL     1     -41.525 -41.989  11.767  1.00  0.00     0.228 S 
HETATM   24  O   UNL     1     -41.985 -42.152  10.405  1.00  0.00    -0.206 OA
HETATM   25  O   UNL     1     -40.463 -41.060  12.085  1.00  0.00    -0.206 OA
BRANCH  23  26
HETATM   26  C   UNL     1     -42.949 -41.593  12.780  1.00  0.00     0.159 C 
HETATM   27  C   UNL     1     -43.361 -40.145  12.576  1.00  0.00     0.023 C 
ENDBRANCH  23  26
ENDBRANCH  20  23
ENDBRANCH   1  17
TORSDOF 7
ENDMDL
MODEL 5
REMARK VINA RESULT:      -5.4      1.932      2.389
REMARK  7 active torsions:
REMARK  status: ('A' for Active; 'I' for Inactive)
REMARK    1  A    between atoms: C_2  and  S_3 
REMARK    2  A    between atoms: S_3  and  N_6 
REMARK    3  A    between atoms: C_9  and  N_12 
REMARK       I    between atoms: N_12  and  C_13 
REMARK    4  A    between atoms: C_13  and  C_15 
REMARK    5  A    between atoms: N_20  and  C_21 
REMARK    6  A    between atoms: C_21  and  C_22 
REMARK    7  A    between atoms: C_22  and  O_23 
ROOT
HETATM    1  N   UNL     1     -40.542 -50.268  12.240  1.00  0.00    -0.351 N 
HETATM    2  C   UNL     1     -39.626 -51.231  12.598  1.00  0.00     0.269 C 
HETATM    3  O   UNL     1     -38.459 -51.281  12.242  1.00  0.00    -0.266 OA
HETATM    4  H   UNL     1     -41.508 -50.456  12.497  1.00  0.00     0.163 HD
ENDROOT
BRANCH   2   5
HETATM    5  C   UNL     1     -40.179 -52.273  13.568  1.00  0.00     0.116 A 
HETATM    6  C   UNL     1     -39.236 -52.772  14.584  1.00  0.00     0.042 A 
HETATM    7  C   UNL     1     -39.729 -53.618  15.488  1.00  0.00     0.078 A 
HETATM    8  C   UNL     1     -41.142 -54.047  15.437  1.00  0.00     0.262 A 
HETATM    9  O   UNL     1     -41.567 -54.805  16.303  1.00  0.00    -0.267 OA
HETATM   10  N   UNL     1     -41.892 -53.553  14.373  1.00  0.00    -0.255 N 
HETATM   11  N   UNL     1     -41.427 -52.622  13.459  1.00  0.00    -0.290 N 
ATOM     12  HN  UNL     1     -42.031 -52.230  12.738  1.00  0.00     0.187 HD
BRANCH  10  13
HETATM   13  C   UNL     1     -43.263 -54.019  14.191  1.00  0.00     0.178 C 
BRANCH  13  14
HETATM   14  C   UNL     1     -43.828 -53.695  12.811  1.00  0.00     0.189 C 
BRANCH  14  15
HETATM   15  O   UNL     1     -44.995 -54.494  12.593  1.00  0.00    -0.394 OA
HETATM   16  C   UNL     1     -45.457 -55.095  13.796  1.00  0.00     0.201 C 
ENDBRANCH  14  15
ENDBRANCH  13  14
ENDBRANCH  10  13
ENDBRANCH   2   5
BRANCH   1  17
HETATM   17  C   UNL     1     -40.201 -49.171  11.343  1.00  0.00     0.087 C 
HETATM   18  C   UNL     1     -39.496 -48.047  12.108  1.00  0.00     0.045 C 
HETATM   19  C   UNL     1     -40.465 -47.158  12.877  1.00  0.00     0.137 C 
HETATM   20  N   UNL     1     -41.575 -46.672  12.022  1.00  0.00    -0.311 N 
HETATM   21  C   UNL     1     -42.333 -47.808  11.425  1.00  0.00     0.137 C 
HETATM   22  C   UNL     1     -41.424 -48.675  10.565  1.00  0.00     0.045 C 
BRANCH  20  23
HETATM   23  S   UNL     1     -41.289 -45.365  10.966  1.00  0.00     0.228 S 
HETATM   24  O   UNL     1     -42.412 -45.295  10.057  1.00  0.00    -0.206 OA
HETATM   25  O   UNL     1     -39.936 -45.479  10.467  1.00  0.00    -0.206 OA
BRANCH  23  26
HETATM   26  C   UNL     1     -41.375 -43.943  12.053  1.00  0.00     0.159 C 
HETATM   27  C   UNL     1     -42.549 -44.073  13.008  1.00  0.00     0.023 C 
ENDBRANCH  23  26
ENDBRANCH  20  23
ENDBRANCH   1  17
TORSDOF 7
ENDMDL
MODEL 6
REMARK VINA RESULT:      -5.3      2.214      3.569
REMARK  7 active torsions:
REMARK  status: ('A' for Active; 'I' for Inactive)
REMARK    1  A    between atoms: C_2  and  S_3 
REMARK    2  A    between atoms: S_3  and  N_6 
REMARK    3  A    between atoms: C_9  and  N_12 
REMARK       I    between atoms: N_12  and  C_13 
REMARK    4  A    between atoms: C_13  and  C_15 
REMARK    5  A    between atoms: N_20  and  C_21 
REMARK    6  A    between atoms: C_21  and  C_22 
REMARK    7  A    between atoms: C_22  and  O_23 
ROOT
HETATM    1  N   UNL     1     -41.160 -50.252  12.002  1.00  0.00    -0.351 N 
HETATM    2  C   UNL     1     -40.355 -51.294  12.405  1.00  0.00     0.269 C 
HETATM    3  O   UNL     1     -39.148 -51.376  12.237  1.00  0.00    -0.266 OA
HETATM    4  H   UNL     1     -42.161 -50.409  12.081  1.00  0.00     0.163 HD
ENDROOT
BRANCH   2   5
HETATM    5  C   UNL     1     -41.101 -52.388  13.165  1.00  0.00     0.116 A 
HETATM    6  C   UNL     1     -42.488 -52.639  12.736  1.00  0.00     0.042 A 
HETATM    7  C   UNL     1     -43.121 -53.647  13.334  1.00  0.00     0.078 A 
HETATM    8  C   UNL     1     -42.462 -54.439  14.392  1.00  0.00     0.262 A 
HETATM    9  O   UNL     1     -43.067 -55.378  14.900  1.00  0.00    -0.267 OA
HETATM   10  N   UNL     1     -41.177 -54.035  14.747  1.00  0.00    -0.255 N 
HETATM   11  N   UNL     1     -40.470 -53.036  14.099  1.00  0.00    -0.290 N 
ATOM     12  HN  UNL     1     -39.503 -52.819  14.342  1.00  0.00     0.187 HD
BRANCH  10  13
HETATM   13  C   UNL     1     -40.505 -54.695  15.861  1.00  0.00     0.178 C 
BRANCH  13  14
HETATM   14  C   UNL     1     -39.106 -55.194  15.507  1.00  0.00     0.189 C 
BRANCH  14  15
HETATM   15  O   UNL     1     -38.859 -56.410  16.222  1.00  0.00    -0.394 OA
HETATM   16  C   UNL     1     -39.982 -56.805  16.998  1.00  0.00     0.201 C 
ENDBRANCH  14  15
ENDBRANCH  13  14
ENDBRANCH  10  13
ENDBRANCH   2   5
BRANCH   1  17
HETATM   17  C   UNL     1     -40.632 -49.098  11.286  1.00  0.00     0.087 C 
HETATM   18  C   UNL     1     -40.084 -48.058  12.266  1.00  0.00     0.045 C 
HETATM   19  C   UNL     1     -41.178 -47.205  12.895  1.00  0.00     0.137 C 
HETATM   20  N   UNL     1     -42.086 -46.623  11.878  1.00  0.00    -0.311 N 
HETATM   21  C   UNL     1     -42.721 -47.687  11.050  1.00  0.00     0.137 C 
HETATM   22  C   UNL     1     -41.666 -48.509  10.321  1.00  0.00     0.045 C 
BRANCH  20  23
HETATM   23  S   UNL     1     -41.578 -45.246  11.013  1.00  0.00     0.228 S 
HETATM   24  O   UNL     1     -42.668 -44.858  10.145  1.00  0.00    -0.206 OA
HETATM   25  O   UNL     1     -40.261 -45.513  10.476  1.00  0.00    -0.206 OA
BRANCH  23  26
HETATM   26  C   UNL     1     -41.427 -43.999  12.291  1.00  0.00     0.159 C 
HETATM   27  C   UNL     1     -40.122 -43.238  12.141  1.00  0.00     0.023 C 
ENDBRANCH  23  26
ENDBRANCH  20  23
ENDBRANCH   1  17
TORSDOF 7
ENDMDL
MODEL 7
REMARK VINA RESULT:      -5.3      1.603      2.820
REMARK  7 active torsions:
REMARK  status: ('A' for Active; 'I' for Inactive)
REMARK    1  A    between atoms: C_2  and  S_3 
REMARK    2  A    between atoms: S_3  and  N_6 
REMARK    3  A    between atoms: C_9  and  N_12 
REMARK       I    between atoms: N_12  and  C_13 
REMARK    4  A    between atoms: C_13  and  C_15 
REMARK    5  A    between atoms: N_20  and  C_21 
REMARK    6  A    between atoms: C_21  and  C_22 
REMARK    7  A    between atoms: C_22  and  O_23 
ROOT
HETATM    1  N   UNL     1     -41.774 -50.549  11.853  1.00  0.00    -0.351 N 
HETATM    2  C   UNL     1     -41.233 -51.750  12.251  1.00  0.00     0.269 C 
HETATM    3  O   UNL     1     -40.057 -52.069  12.177  1.00  0.00    -0.266 OA
HETATM    4  H   UNL     1     -42.790 -50.501  11.840  1.00  0.00     0.163 HD
ENDROOT
BRANCH   2   5
HETATM    5  C   UNL     1     -42.249 -52.703  12.875  1.00  0.00     0.116 A 
HETATM    6  C   UNL     1     -43.606 -52.663  12.304  1.00  0.00     0.042 A 
HETATM    7  C   UNL     1     -44.479 -53.549  12.783  1.00  0.00     0.078 A 
HETATM    8  C   UNL     1     -44.096 -54.492  13.854  1.00  0.00     0.262 A 
HETATM    9  O   UNL     1     -44.919 -55.311  14.249  1.00  0.00    -0.267 OA
HETATM   10  N   UNL     1     -42.802 -54.360  14.350  1.00  0.00    -0.255 N 
HETATM   11  N   UNL     1     -41.854 -53.495  13.828  1.00  0.00    -0.290 N 
ATOM     12  HN  UNL     1     -40.894 -53.481  14.173  1.00  0.00     0.187 HD
BRANCH  10  13
HETATM   13  C   UNL     1     -42.387 -55.177  15.485  1.00  0.00     0.178 C 
BRANCH  13  14
HETATM   14  C   UNL     1     -42.153 -54.366  16.756  1.00  0.00     0.189 C 
BRANCH  14  15
HETATM   15  O   UNL     1     -40.955 -54.832  17.384  1.00  0.00    -0.394 OA
HETATM   16  C   UNL     1     -40.302 -55.827  16.606  1.00  0.00     0.201 C 
ENDBRANCH  14  15
ENDBRANCH  13  14
ENDBRANCH  10  13
ENDBRANCH   2   5
BRANCH   1  17
HETATM   17  C   UNL     1     -40.963 -49.494  11.258  1.00  0.00     0.087 C 
HETATM   18  C   UNL     1     -40.255 -48.679  12.344  1.00  0.00     0.045 C 
HETATM   19  C   UNL     1     -41.168 -47.650  12.999  1.00  0.00     0.137 C 
HETATM   20  N   UNL     1     -41.864 -46.805  11.999  1.00  0.00    -0.311 N 
HETATM   21  C   UNL     1     -42.670 -47.634  11.059  1.00  0.00     0.137 C 
HETATM   22  C   UNL     1     -41.783 -48.617  10.306  1.00  0.00     0.045 C 
BRANCH  20  23
HETATM   23  S   UNL     1     -41.014 -45.518  11.274  1.00  0.00     0.228 S 
HETATM   24  O   UNL     1     -41.952 -44.803  10.435  1.00  0.00    -0.206 OA
HETATM   25  O   UNL     1     -39.782 -46.045  10.728  1.00  0.00    -0.206 OA
BRANCH  23  26
HETATM   26  C   UNL     1     -40.613 -44.464  12.667  1.00  0.00     0.159 C 
HETATM   27  C   UNL     1     -39.113 -44.441  12.901  1.00  0.00     0.023 C 
ENDBRANCH  23  26
ENDBRANCH  20  23
ENDBRANCH   1  17
TORSDOF 7
ENDMDL
MODEL 8
REMARK VINA RESULT:      -5.1      5.162      8.541
REMARK  7 active torsions:
REMARK  status: ('A' for Active; 'I' for Inactive)
REMARK    1  A    between atoms: C_2  and  S_3 
REMARK    2  A    between atoms: S_3  and  N_6 
REMARK    3  A    between atoms: C_9  and  N_12 
REMARK       I    between atoms: N_12  and  C_13 
REMARK    4  A    between atoms: C_13  and  C_15 
REMARK    5  A    between atoms: N_20  and  C_21 
REMARK    6  A    between atoms: C_21  and  C_22 
REMARK    7  A    between atoms: C_22  and  O_23 
ROOT
HETATM    1  N   UNL     1     -40.673 -54.030  15.629  1.00  0.00    -0.351 N 
HETATM    2  C   UNL     1     -39.417 -54.562  15.816  1.00  0.00     0.269 C 
HETATM    3  O   UNL     1     -38.986 -55.584  15.306  1.00  0.00    -0.266 OA
HETATM    4  H   UNL     1     -40.926 -53.261  16.244  1.00  0.00     0.163 HD
ENDROOT
BRANCH   2   5
HETATM    5  C   UNL     1     -38.522 -53.717  16.718  1.00  0.00     0.116 A 
HETATM    6  C   UNL     1     -37.843 -54.437  17.809  1.00  0.00     0.042 A 
HETATM    7  C   UNL     1     -36.993 -53.728  18.552  1.00  0.00     0.078 A 
HETATM    8  C   UNL     1     -36.783 -52.288  18.300  1.00  0.00     0.262 A 
HETATM    9  O   UNL     1     -35.972 -51.674  18.986  1.00  0.00    -0.267 OA
HETATM   10  N   UNL     1     -37.553 -51.726  17.285  1.00  0.00    -0.255 N 
HETATM   11  N   UNL     1     -38.392 -52.450  16.454  1.00  0.00    -0.290 N 
ATOM     12  HN  UNL     1     -38.884 -52.012  15.676  1.00  0.00     0.187 HD
BRANCH  10  13
HETATM   13  C   UNL     1     -37.485 -50.287  17.052  1.00  0.00     0.178 C 
BRANCH  13  14
HETATM   14  C   UNL     1     -36.767 -49.922  15.755  1.00  0.00     0.189 C 
BRANCH  14  15
HETATM   15  O   UNL     1     -35.464 -49.424  16.077  1.00  0.00    -0.394 OA
HETATM   16  C   UNL     1     -35.489 -48.571  17.214  1.00  0.00     0.201 C 
ENDBRANCH  14  15
ENDBRANCH  13  14
ENDBRANCH  10  13
ENDBRANCH   2   5
BRANCH   1  17
HETATM   17  C   UNL     1     -41.668 -54.674  14.780  1.00  0.00     0.087 C 
HETATM   18  C   UNL     1     -42.069 -53.753  13.624  1.00  0.00     0.045 C 
HETATM   19  C   UNL     1     -43.071 -52.685  14.042  1.00  0.00     0.137 C 
HETATM   20  N   UNL     1     -44.236 -53.261  14.756  1.00  0.00    -0.311 N 
HETATM   21  C   UNL     1     -43.805 -54.017  15.967  1.00  0.00     0.137 C 
HETATM   22  C   UNL     1     -42.874 -55.161  15.589  1.00  0.00     0.045 C 
BRANCH  20  23
HETATM   23  S   UNL     1     -45.474 -54.001  13.850  1.00  0.00     0.228 S 
HETATM   24  O   UNL     1     -46.191 -54.884  14.744  1.00  0.00    -0.206 OA
HETATM   25  O   UNL     1     -44.895 -54.499  12.621  1.00  0.00    -0.206 OA
BRANCH  23  26
HETATM   26  C   UNL     1     -46.557 -52.629  13.451  1.00  0.00     0.159 C 
HETATM   27  C   UNL     1     -46.558 -51.608  14.576  1.00  0.00     0.023 C 
ENDBRANCH  23  26
ENDBRANCH  20  23
ENDBRANCH   1  17
TORSDOF 7
ENDMDL
MODEL 9
REMARK VINA RESULT:      -5.0      3.169      8.265
REMARK  7 active torsions:
REMARK  status: ('A' for Active; 'I' for Inactive)
REMARK    1  A    between atoms: C_2  and  S_3 
REMARK    2  A    between atoms: S_3  and  N_6 
REMARK    3  A    between atoms: C_9  and  N_12 
REMARK       I    between atoms: N_12  and  C_13 
REMARK    4  A    between atoms: C_13  and  C_15 
REMARK    5  A    between atoms: N_20  and  C_21 
REMARK    6  A    between atoms: C_21  and  C_22 
REMARK    7  A    between atoms: C_22  and  O_23 
ROOT
HETATM    1  N   UNL     1     -40.969 -48.536  12.243  1.00  0.00    -0.351 N 
HETATM    2  C   UNL     1     -41.099 -47.495  11.353  1.00  0.00     0.269 C 
HETATM    3  O   UNL     1     -41.570 -47.563  10.229  1.00  0.00    -0.266 OA
HETATM    4  H   UNL     1     -40.417 -48.345  13.075  1.00  0.00     0.163 HD
ENDROOT
BRANCH   2   5
HETATM    5  C   UNL     1     -40.631 -46.152  11.909  1.00  0.00     0.116 A 
HETATM    6  C   UNL     1     -39.590 -46.212  12.949  1.00  0.00     0.042 A 
HETATM    7  C   UNL     1     -39.113 -45.045  13.381  1.00  0.00     0.078 A 
HETATM    8  C   UNL     1     -39.638 -43.768  12.857  1.00  0.00     0.262 A 
HETATM    9  O   UNL     1     -39.155 -42.714  13.259  1.00  0.00    -0.267 OA
HETATM   10  N   UNL     1     -40.676 -43.867  11.935  1.00  0.00    -0.255 N 
HETATM   11  N   UNL     1     -41.146 -45.063  11.417  1.00  0.00    -0.290 N 
ATOM     12  HN  UNL     1     -41.859 -45.089  10.689  1.00  0.00     0.187 HD
BRANCH  10  13
HETATM   13  C   UNL     1     -41.323 -42.650  11.457  1.00  0.00     0.178 C 
BRANCH  13  14
HETATM   14  C   UNL     1     -42.845 -42.694  11.570  1.00  0.00     0.189 C 
BRANCH  14  15
HETATM   15  O   UNL     1     -43.195 -43.068  12.907  1.00  0.00    -0.394 OA
HETATM   16  C   UNL     1     -43.069 -41.978  13.811  1.00  0.00     0.201 C 
ENDBRANCH  14  15
ENDBRANCH  13  14
ENDBRANCH  10  13
ENDBRANCH   2   5
BRANCH   1  17
HETATM   17  C   UNL     1     -41.384 -49.894  11.911  1.00  0.00     0.087 C 
HETATM   18  C   UNL     1     -42.427 -50.400  12.911  1.00  0.00     0.045 C 
HETATM   19  C   UNL     1     -41.809 -50.875  14.219  1.00  0.00     0.137 C 
HETATM   20  N   UNL     1     -40.704 -51.838  13.996  1.00  0.00    -0.311 N 
HETATM   21  C   UNL     1     -39.634 -51.243  13.147  1.00  0.00     0.137 C 
HETATM   22  C   UNL     1     -40.184 -50.838  11.785  1.00  0.00     0.045 C 
BRANCH  20  23
HETATM   23  S   UNL     1     -41.084 -53.461  13.642  1.00  0.00     0.228 S 
HETATM   24  O   UNL     1     -39.860 -54.106  13.219  1.00  0.00    -0.206 OA
HETATM   25  O   UNL     1     -42.260 -53.473  12.798  1.00  0.00    -0.206 OA
BRANCH  23  26
HETATM   26  C   UNL     1     -41.529 -54.130  15.244  1.00  0.00     0.159 C 
HETATM   27  C   UNL     1     -42.806 -54.946  15.144  1.00  0.00     0.023 C 
ENDBRANCH  23  26
ENDBRANCH  20  23
ENDBRANCH   1  17
TORSDOF 7
ENDMDL
