MODEL 1
REMARK VINA RESULT:      -5.9      0.000      0.000
REMARK  3 active torsions:
REMARK  status: ('A' for Active; 'I' for Inactive)
REMARK    1  A    between atoms: C_2  and  C_4 
REMARK    2  A    between atoms: C_9  and  N_12 
REMARK    3  A    between atoms: C_17  and  C_18 
REMARK       I    between atoms: C_18  and  N_20 
ROOT
HETATM    1  C   UNL     1     -45.178 -52.699  13.857  1.00  0.00     0.086 A 
HETATM    2  N   UNL     1     -45.750 -53.900  13.652  1.00  0.00    -0.355 N 
ATOM      3  HN  UNL     1     -46.744 -53.994  13.447  1.00  0.00     0.166 HD
HETATM    4  C   UNL     1     -44.941 -54.963  13.731  1.00  0.00     0.093 A 
HETATM    5  C   UNL     1     -43.605 -54.864  14.018  1.00  0.00     0.065 A 
HETATM    6  C   UNL     1     -43.098 -53.600  14.272  1.00  0.00     0.106 A 
HETATM    7  N   UNL     1     -43.876 -52.509  14.180  1.00  0.00    -0.332 N 
ATOM      8  HN  UNL     1     -43.502 -51.575  14.346  1.00  0.00     0.168 HD
ENDROOT
BRANCH   6   9
HETATM    9  N   UNL     1     -41.748 -53.493  14.584  1.00  0.00    -0.350 N 
HETATM   10  C   UNL     1     -41.181 -54.529  15.464  1.00  0.00     0.151 C 
HETATM   11  C   UNL     1     -39.871 -53.970  16.065  1.00  0.00     0.187 C 
HETATM   12  O   UNL     1     -38.936 -53.551  15.050  1.00  0.00    -0.387 OA
HETATM   13  C   UNL     1     -39.537 -52.575  14.168  1.00  0.00     0.202 C 
HETATM   14  C   UNL     1     -40.780 -53.172  13.488  1.00  0.00     0.201 C 
BRANCH  14  15
HETATM   15  C   UNL     1     -41.300 -52.225  12.401  1.00  0.00     0.240 C 
HETATM   16  O   UNL     1     -41.718 -51.091  12.603  1.00  0.00    -0.271 OA
HETATM   17  N   UNL     1     -41.300 -52.751  11.133  1.00  0.00    -0.368 N 
HETATM   18  H   UNL     1     -41.276 -53.756  10.998  1.00  0.00     0.159 HD
HETATM   19  H   UNL     1     -41.752 -52.200  10.415  1.00  0.00     0.159 HD
ENDBRANCH  14  15
ENDBRANCH   6   9
BRANCH   1  20
HETATM   20  C   UNL     1     -46.071 -51.495  13.652  1.00  0.00     0.045 C 
HETATM   21  C   UNL     1     -46.823 -51.568  12.326  1.00  0.00     0.017 C 
HETATM   22  C   UNL     1     -47.025 -51.326  14.833  1.00  0.00     0.017 C 
ENDBRANCH   1  20
TORSDOF 3
ENDMDL
MODEL 2
REMARK VINA RESULT:      -5.9      4.367      5.640
REMARK  3 active torsions:
REMARK  status: ('A' for Active; 'I' for Inactive)
REMARK    1  A    between atoms: C_2  and  C_4 
REMARK    2  A    between atoms: C_9  and  N_12 
REMARK    3  A    between atoms: C_17  and  C_18 
REMARK       I    between atoms: C_18  and  N_20 
ROOT
HETATM    1  C   UNL     1     -43.627 -47.188  10.484  1.00  0.00     0.086 A 
HETATM    2  N   UNL     1     -43.202 -46.043  11.051  1.00  0.00    -0.355 N 
ATOM      3  HN  UNL     1     -43.311 -45.142  10.587  1.00  0.00     0.166 HD
HETATM    4  C   UNL     1     -42.631 -46.155  12.255  1.00  0.00     0.093 A 
HETATM    5  C   UNL     1     -42.460 -47.356  12.893  1.00  0.00     0.065 A 
HETATM    6  C   UNL     1     -42.872 -48.497  12.224  1.00  0.00     0.106 A 
HETATM    7  N   UNL     1     -43.470 -48.421  11.024  1.00  0.00    -0.332 N 
ATOM      8  HN  UNL     1     -43.793 -49.257  10.538  1.00  0.00     0.168 HD
ENDROOT
BRANCH   6   9
HETATM    9  N   UNL     1     -42.685 -49.721  12.854  1.00  0.00    -0.350 N 
HETATM   10  C   UNL     1     -43.898 -50.459  13.252  1.00  0.00     0.151 C 
HETATM   11  C   UNL     1     -43.489 -51.488  14.331  1.00  0.00     0.187 C 
HETATM   12  O   UNL     1     -42.441 -52.371  13.879  1.00  0.00    -0.387 OA
HETATM   13  C   UNL     1     -41.286 -51.618  13.444  1.00  0.00     0.202 C 
HETATM   14  C   UNL     1     -41.674 -50.672  12.295  1.00  0.00     0.201 C 
BRANCH  14  15
HETATM   15  C   UNL     1     -40.422 -50.027  11.690  1.00  0.00     0.240 C 
HETATM   16  O   UNL     1     -39.508 -49.531  12.338  1.00  0.00    -0.271 OA
HETATM   17  N   UNL     1     -40.392 -50.007  10.318  1.00  0.00    -0.368 N 
HETATM   18  H   UNL     1     -41.252 -50.103   9.788  1.00  0.00     0.159 HD
HETATM   19  H   UNL     1     -39.643 -49.478   9.889  1.00  0.00     0.159 HD
ENDBRANCH  14  15
ENDBRANCH   6   9
BRANCH   1  20
HETATM   20  C   UNL     1     -44.375 -47.043   9.177  1.00  0.00     0.045 C 
HETATM   21  C   UNL     1     -43.619 -47.685   8.018  1.00  0.00     0.017 C 
HETATM   22  C   UNL     1     -45.792 -47.600   9.304  1.00  0.00     0.017 C 
ENDBRANCH   1  20
TORSDOF 3
ENDMDL
MODEL 3
REMARK VINA RESULT:      -5.7      4.137      5.436
REMARK  3 active torsions:
REMARK  status: ('A' for Active; 'I' for Inactive)
REMARK    1  A    between atoms: C_2  and  C_4 
REMARK    2  A    between atoms: C_9  and  N_12 
REMARK    3  A    between atoms: C_17  and  C_18 
REMARK       I    between atoms: C_18  and  N_20 
ROOT
HETATM    1  C   UNL     1     -43.202 -47.704  10.554  1.00  0.00     0.086 A 
HETATM    2  N   UNL     1     -43.533 -46.823  11.517  1.00  0.00    -0.355 N 
ATOM      3  HN  UNL     1     -44.192 -46.064  11.349  1.00  0.00     0.166 HD
HETATM    4  C   UNL     1     -42.948 -47.000  12.707  1.00  0.00     0.093 A 
HETATM    5  C   UNL     1     -42.049 -48.005  12.955  1.00  0.00     0.065 A 
HETATM    6  C   UNL     1     -41.716 -48.838  11.900  1.00  0.00     0.106 A 
HETATM    7  N   UNL     1     -42.300 -48.703  10.698  1.00  0.00    -0.332 N 
ATOM      8  HN  UNL     1     -42.073 -49.328   9.925  1.00  0.00     0.168 HD
ENDROOT
BRANCH   6   9
HETATM    9  N   UNL     1     -40.790 -49.847  12.137  1.00  0.00    -0.350 N 
HETATM   10  C   UNL     1     -39.436 -49.429  12.541  1.00  0.00     0.151 C 
HETATM   11  C   UNL     1     -38.479 -50.613  12.271  1.00  0.00     0.187 C 
HETATM   12  O   UNL     1     -38.896 -51.821  12.940  1.00  0.00    -0.387 OA
HETATM   13  C   UNL     1     -40.247 -52.176  12.565  1.00  0.00     0.202 C 
HETATM   14  C   UNL     1     -41.214 -51.039  12.936  1.00  0.00     0.201 C 
BRANCH  14  15
HETATM   15  C   UNL     1     -42.665 -51.489  12.738  1.00  0.00     0.240 C 
HETATM   16  O   UNL     1     -43.623 -51.061  13.372  1.00  0.00    -0.271 OA
HETATM   17  N   UNL     1     -42.840 -52.464  11.787  1.00  0.00    -0.368 N 
HETATM   18  H   UNL     1     -42.058 -53.045  11.503  1.00  0.00     0.159 HD
HETATM   19  H   UNL     1     -43.764 -52.871  11.721  1.00  0.00     0.159 HD
ENDBRANCH  14  15
ENDBRANCH   6   9
BRANCH   1  20
HETATM   20  C   UNL     1     -43.953 -47.568   9.247  1.00  0.00     0.045 C 
HETATM   21  C   UNL     1     -45.463 -47.547   9.461  1.00  0.00     0.017 C 
HETATM   22  C   UNL     1     -43.475 -46.339   8.477  1.00  0.00     0.017 C 
ENDBRANCH   1  20
TORSDOF 3
ENDMDL
MODEL 4
REMARK VINA RESULT:      -5.5      6.835      8.050
REMARK  3 active torsions:
REMARK  status: ('A' for Active; 'I' for Inactive)
REMARK    1  A    between atoms: C_2  and  C_4 
REMARK    2  A    between atoms: C_9  and  N_12 
REMARK    3  A    between atoms: C_17  and  C_18 
REMARK       I    between atoms: C_18  and  N_20 
ROOT
HETATM    1  C   UNL     1     -42.640 -47.340  10.127  1.00  0.00     0.086 A 
HETATM    2  N   UNL     1     -42.066 -48.554  10.044  1.00  0.00    -0.355 N 
ATOM      3  HN  UNL     1     -42.401 -49.265   9.393  1.00  0.00     0.166 HD
HETATM    4  C   UNL     1     -41.033 -48.778  10.863  1.00  0.00     0.093 A 
HETATM    5  C   UNL     1     -40.572 -47.847  11.756  1.00  0.00     0.065 A 
HETATM    6  C   UNL     1     -41.248 -46.639  11.824  1.00  0.00     0.106 A 
HETATM    7  N   UNL     1     -42.275 -46.372  11.001  1.00  0.00    -0.332 N 
ATOM      8  HN  UNL     1     -42.762 -45.476  11.033  1.00  0.00     0.168 HD
ENDROOT
BRANCH   6   9
HETATM    9  N   UNL     1     -40.800 -45.695  12.740  1.00  0.00    -0.350 N 
HETATM   10  C   UNL     1     -40.380 -46.194  14.061  1.00  0.00     0.151 C 
HETATM   11  C   UNL     1     -40.404 -45.000  15.044  1.00  0.00     0.187 C 
HETATM   12  O   UNL     1     -39.585 -43.901  14.594  1.00  0.00    -0.387 OA
HETATM   13  C   UNL     1     -39.986 -43.469  13.273  1.00  0.00     0.202 C 
HETATM   14  C   UNL     1     -39.856 -44.632  12.275  1.00  0.00     0.201 C 
BRANCH  14  15
HETATM   15  C   UNL     1     -40.075 -44.131  10.843  1.00  0.00     0.240 C 
HETATM   16  O   UNL     1     -39.785 -44.758   9.831  1.00  0.00    -0.271 OA
HETATM   17  N   UNL     1     -40.609 -42.870  10.751  1.00  0.00    -0.368 N 
HETATM   18  H   UNL     1     -40.545 -42.230  11.535  1.00  0.00     0.159 HD
HETATM   19  H   UNL     1     -40.648 -42.461   9.826  1.00  0.00     0.159 HD
ENDBRANCH  14  15
ENDBRANCH   6   9
BRANCH   1  20
HETATM   20  C   UNL     1     -43.732 -47.052   9.119  1.00  0.00     0.045 C 
HETATM   21  C   UNL     1     -43.470 -47.749   7.787  1.00  0.00     0.017 C 
HETATM   22  C   UNL     1     -45.100 -47.421   9.689  1.00  0.00     0.017 C 
ENDBRANCH   1  20
TORSDOF 3
ENDMDL
MODEL 5
REMARK VINA RESULT:      -5.4      2.379      2.838
REMARK  3 active torsions:
REMARK  status: ('A' for Active; 'I' for Inactive)
REMARK    1  A    between atoms: C_2  and  C_4 
REMARK    2  A    between atoms: C_9  and  N_12 
REMARK    3  A    between atoms: C_17  and  C_18 
REMARK       I    between atoms: C_18  and  N_20 
ROOT
HETATM    1  C   UNL     1     -44.631 -51.698  13.048  1.00  0.00     0.086 A 
HETATM    2  N   UNL     1     -44.430 -52.921  12.524  1.00  0.00    -0.355 N 
ATOM      3  HN  UNL     1     -45.205 -53.519  12.238  1.00  0.00     0.166 HD
HETATM    4  C   UNL     1     -43.156 -53.309  12.398  1.00  0.00     0.093 A 
HETATM    5  C   UNL     1     -42.096 -52.532  12.786  1.00  0.00     0.065 A 
HETATM    6  C   UNL     1     -42.383 -51.308  13.369  1.00  0.00     0.106 A 
HETATM    7  N   UNL     1     -43.649 -50.877  13.490  1.00  0.00    -0.332 N 
ATOM      8  HN  UNL     1     -43.863 -49.968  13.900  1.00  0.00     0.168 HD
ENDROOT
BRANCH   6   9
HETATM    9  N   UNL     1     -41.316 -50.521  13.784  1.00  0.00    -0.350 N 
HETATM   10  C   UNL     1     -40.499 -51.036  14.896  1.00  0.00     0.151 C 
HETATM   11  C   UNL     1     -39.726 -49.843  15.504  1.00  0.00     0.187 C 
HETATM   12  O   UNL     1     -38.929 -49.147  14.524  1.00  0.00    -0.387 OA
HETATM   13  C   UNL     1     -39.748 -48.701  13.418  1.00  0.00     0.202 C 
HETATM   14  C   UNL     1     -40.430 -49.904  12.747  1.00  0.00     0.201 C 
BRANCH  14  15
HETATM   15  C   UNL     1     -41.128 -49.468  11.454  1.00  0.00     0.240 C 
HETATM   16  O   UNL     1     -42.155 -48.802  11.404  1.00  0.00    -0.271 OA
HETATM   17  N   UNL     1     -40.529 -49.909  10.300  1.00  0.00    -0.368 N 
HETATM   18  H   UNL     1     -39.901 -50.706  10.325  1.00  0.00     0.159 HD
HETATM   19  H   UNL     1     -41.032 -49.746   9.438  1.00  0.00     0.159 HD
ENDBRANCH  14  15
ENDBRANCH   6   9
BRANCH   1  20
HETATM   20  C   UNL     1     -46.066 -51.219  13.081  1.00  0.00     0.045 C 
HETATM   21  C   UNL     1     -46.885 -51.806  11.935  1.00  0.00     0.017 C 
HETATM   22  C   UNL     1     -46.701 -51.515  14.438  1.00  0.00     0.017 C 
ENDBRANCH   1  20
TORSDOF 3
ENDMDL
MODEL 6
REMARK VINA RESULT:      -5.4      5.159      8.010
REMARK  3 active torsions:
REMARK  status: ('A' for Active; 'I' for Inactive)
REMARK    1  A    between atoms: C_2  and  C_4 
REMARK    2  A    between atoms: C_9  and  N_12 
REMARK    3  A    between atoms: C_17  and  C_18 
REMARK       I    between atoms: C_18  and  N_20 
ROOT
HETATM    1  C   UNL     1     -39.227 -49.746  11.776  1.00  0.00     0.086 A 
HETATM    2  N   UNL     1     -39.945 -50.759  12.296  1.00  0.00    -0.355 N 
ATOM      3  HN  UNL     1     -39.500 -51.594  12.676  1.00  0.00     0.166 HD
HETATM    4  C   UNL     1     -41.274 -50.609  12.286  1.00  0.00     0.093 A 
HETATM    5  C   UNL     1     -41.897 -49.504  11.769  1.00  0.00     0.065 A 
HETATM    6  C   UNL     1     -41.096 -48.527  11.201  1.00  0.00     0.106 A 
HETATM    7  N   UNL     1     -39.757 -48.634  11.213  1.00  0.00    -0.332 N 
ATOM      8  HN  UNL     1     -39.164 -47.907  10.814  1.00  0.00     0.168 HD
ENDROOT
BRANCH   6   9
HETATM    9  N   UNL     1     -41.720 -47.411  10.656  1.00  0.00    -0.350 N 
HETATM   10  C   UNL     1     -42.851 -47.657   9.744  1.00  0.00     0.151 C 
HETATM   11  C   UNL     1     -43.060 -46.379   8.899  1.00  0.00     0.187 C 
HETATM   12  O   UNL     1     -43.267 -45.208   9.715  1.00  0.00    -0.387 OA
HETATM   13  C   UNL     1     -42.168 -45.023  10.637  1.00  0.00     0.202 C 
HETATM   14  C   UNL     1     -42.032 -46.253  11.550  1.00  0.00     0.201 C 
BRANCH  14  15
HETATM   15  C   UNL     1     -41.013 -45.980  12.662  1.00  0.00     0.240 C 
HETATM   16  O   UNL     1     -39.840 -45.679  12.477  1.00  0.00    -0.271 OA
HETATM   17  N   UNL     1     -41.500 -46.129  13.937  1.00  0.00    -0.368 N 
HETATM   18  H   UNL     1     -42.335 -46.680  14.103  1.00  0.00     0.159 HD
HETATM   19  H   UNL     1     -40.824 -46.080  14.688  1.00  0.00     0.159 HD
ENDBRANCH  14  15
ENDBRANCH   6   9
BRANCH   1  20
HETATM   20  C   UNL     1     -37.724 -49.869  11.895  1.00  0.00     0.045 C 
HETATM   21  C   UNL     1     -37.322 -50.994  12.844  1.00  0.00     0.017 C 
HETATM   22  C   UNL     1     -37.087 -50.039  10.517  1.00  0.00     0.017 C 
ENDBRANCH   1  20
TORSDOF 3
ENDMDL
MODEL 7
REMARK VINA RESULT:      -5.3      3.488      5.173
REMARK  3 active torsions:
REMARK  status: ('A' for Active; 'I' for Inactive)
REMARK    1  A    between atoms: C_2  and  C_4 
REMARK    2  A    between atoms: C_9  and  N_12 
REMARK    3  A    between atoms: C_17  and  C_18 
REMARK       I    between atoms: C_18  and  N_20 
ROOT
HETATM    1  C   UNL     1     -42.621 -48.516  12.155  1.00  0.00     0.086 A 
HETATM    2  N   UNL     1     -42.267 -47.910  13.303  1.00  0.00    -0.355 N 
ATOM      3  HN  UNL     1     -41.795 -47.006  13.312  1.00  0.00     0.166 HD
HETATM    4  C   UNL     1     -42.569 -48.559  14.433  1.00  0.00     0.093 A 
HETATM    5  C   UNL     1     -43.191 -49.781  14.449  1.00  0.00     0.065 A 
HETATM    6  C   UNL     1     -43.475 -50.368  13.227  1.00  0.00     0.106 A 
HETATM    7  N   UNL     1     -43.206 -49.735  12.073  1.00  0.00    -0.332 N 
ATOM      8  HN  UNL     1     -43.432 -50.155  11.172  1.00  0.00     0.168 HD
ENDROOT
BRANCH   6   9
HETATM    9  N   UNL     1     -44.087 -51.616  13.233  1.00  0.00    -0.350 N 
HETATM   10  C   UNL     1     -45.542 -51.646  13.004  1.00  0.00     0.151 C 
HETATM   11  C   UNL     1     -46.073 -53.000  13.529  1.00  0.00     0.187 C 
HETATM   12  O   UNL     1     -45.405 -54.125  12.923  1.00  0.00    -0.387 OA
HETATM   13  C   UNL     1     -43.974 -54.040  13.117  1.00  0.00     0.202 C 
HETATM   14  C   UNL     1     -43.433 -52.741  12.495  1.00  0.00     0.201 C 
BRANCH  14  15
HETATM   15  C   UNL     1     -41.901 -52.742  12.510  1.00  0.00     0.240 C 
HETATM   16  O   UNL     1     -41.211 -52.875  13.514  1.00  0.00    -0.271 OA
HETATM   17  N   UNL     1     -41.314 -52.547  11.284  1.00  0.00    -0.368 N 
HETATM   18  H   UNL     1     -41.840 -52.118  10.530  1.00  0.00     0.159 HD
HETATM   19  H   UNL     1     -40.311 -52.416  11.277  1.00  0.00     0.159 HD
ENDBRANCH  14  15
ENDBRANCH   6   9
BRANCH   1  20
HETATM   20  C   UNL     1     -42.382 -47.725  10.887  1.00  0.00     0.045 C 
HETATM   21  C   UNL     1     -43.687 -47.216  10.283  1.00  0.00     0.017 C 
HETATM   22  C   UNL     1     -41.396 -46.586  11.142  1.00  0.00     0.017 C 
ENDBRANCH   1  20
TORSDOF 3
ENDMDL
MODEL 8
REMARK VINA RESULT:      -5.2      2.484      3.542
REMARK  3 active torsions:
REMARK  status: ('A' for Active; 'I' for Inactive)
REMARK    1  A    between atoms: C_2  and  C_4 
REMARK    2  A    between atoms: C_9  and  N_12 
REMARK    3  A    between atoms: C_17  and  C_18 
REMARK       I    between atoms: C_18  and  N_20 
ROOT
HETATM    1  C   UNL     1     -44.483 -51.189  14.205  1.00  0.00     0.086 A 
HETATM    2  N   UNL     1     -44.268 -51.720  15.423  1.00  0.00    -0.355 N 
ATOM      3  HN  UNL     1     -45.023 -52.132  15.971  1.00  0.00     0.166 HD
HETATM    4  C   UNL     1     -43.010 -51.676  15.874  1.00  0.00     0.093 A 
HETATM    5  C   UNL     1     -41.980 -51.117  15.163  1.00  0.00     0.065 A 
HETATM    6  C   UNL     1     -42.288 -50.541  13.941  1.00  0.00     0.106 A 
HETATM    7  N   UNL     1     -43.536 -50.585  13.447  1.00  0.00    -0.332 N 
ATOM      8  HN  UNL     1     -43.762 -50.181  12.539  1.00  0.00     0.168 HD
ENDROOT
BRANCH   6   9
HETATM    9  N   UNL     1     -41.254 -49.953  13.222  1.00  0.00    -0.350 N 
HETATM   10  C   UNL     1     -40.726 -48.676  13.734  1.00  0.00     0.151 C 
HETATM   11  C   UNL     1     -39.980 -47.977  12.574  1.00  0.00     0.187 C 
HETATM   12  O   UNL     1     -38.943 -48.805  12.010  1.00  0.00    -0.387 OA
HETATM   13  C   UNL     1     -39.480 -50.072  11.566  1.00  0.00     0.202 C 
HETATM   14  C   UNL     1     -40.127 -50.815  12.748  1.00  0.00     0.201 C 
BRANCH  14  15
HETATM   15  C   UNL     1     -40.510 -52.240  12.335  1.00  0.00     0.240 C 
HETATM   16  O   UNL     1     -40.193 -53.254  12.946  1.00  0.00    -0.271 OA
HETATM   17  N   UNL     1     -41.236 -52.326  11.173  1.00  0.00    -0.368 N 
HETATM   18  H   UNL     1     -41.221 -51.564  10.504  1.00  0.00     0.159 HD
HETATM   19  H   UNL     1     -41.396 -53.256  10.808  1.00  0.00     0.159 HD
ENDBRANCH  14  15
ENDBRANCH   6   9
BRANCH   1  20
HETATM   20  C   UNL     1     -45.883 -51.345  13.652  1.00  0.00     0.045 C 
HETATM   21  C   UNL     1     -45.972 -52.493  12.651  1.00  0.00     0.017 C 
HETATM   22  C   UNL     1     -46.894 -51.505  14.785  1.00  0.00     0.017 C 
ENDBRANCH   1  20
TORSDOF 3
ENDMDL
MODEL 9
REMARK VINA RESULT:      -5.1      1.324      1.535
REMARK  3 active torsions:
REMARK  status: ('A' for Active; 'I' for Inactive)
REMARK    1  A    between atoms: C_2  and  C_4 
REMARK    2  A    between atoms: C_9  and  N_12 
REMARK    3  A    between atoms: C_17  and  C_18 
REMARK       I    between atoms: C_18  and  N_20 
ROOT
HETATM    1  C   UNL     1     -44.493 -52.725  14.618  1.00  0.00     0.086 A 
HETATM    2  N   UNL     1     -44.667 -54.058  14.560  1.00  0.00    -0.355 N 
ATOM      3  HN  UNL     1     -45.594 -54.481  14.589  1.00  0.00     0.166 HD
HETATM    4  C   UNL     1     -43.556 -54.797  14.463  1.00  0.00     0.093 A 
HETATM    5  C   UNL     1     -42.298 -54.254  14.436  1.00  0.00     0.065 A 
HETATM    6  C   UNL     1     -42.195 -52.877  14.556  1.00  0.00     0.106 A 
HETATM    7  N   UNL     1     -43.289 -52.103  14.634  1.00  0.00    -0.332 N 
ATOM      8  HN  UNL     1     -43.218 -51.088  14.701  1.00  0.00     0.168 HD
ENDROOT
BRANCH   6   9
HETATM    9  N   UNL     1     -40.922 -52.319  14.550  1.00  0.00    -0.350 N 
HETATM   10  C   UNL     1     -39.964 -52.829  15.547  1.00  0.00     0.151 C 
HETATM   11  C   UNL     1     -38.839 -51.779  15.699  1.00  0.00     0.187 C 
HETATM   12  O   UNL     1     -38.202 -51.471  14.442  1.00  0.00    -0.387 OA
HETATM   13  C   UNL     1     -39.174 -51.025  13.468  1.00  0.00     0.202 C 
HETATM   14  C   UNL     1     -40.231 -52.117  13.238  1.00  0.00     0.201 C 
BRANCH  14  15
HETATM   15  C   UNL     1     -41.138 -51.741  12.062  1.00  0.00     0.240 C 
HETATM   16  O   UNL     1     -41.795 -50.709  11.988  1.00  0.00    -0.271 OA
HETATM   17  N   UNL     1     -41.203 -52.680  11.063  1.00  0.00    -0.368 N 
HETATM   18  H   UNL     1     -40.946 -53.643  11.251  1.00  0.00     0.159 HD
HETATM   19  H   UNL     1     -41.887 -52.521  10.335  1.00  0.00     0.159 HD
ENDBRANCH  14  15
ENDBRANCH   6   9
BRANCH   1  20
HETATM   20  C   UNL     1     -45.755 -51.890  14.612  1.00  0.00     0.045 C 
HETATM   21  C   UNL     1     -46.997 -52.745  14.379  1.00  0.00     0.017 C 
HETATM   22  C   UNL     1     -45.866 -51.072  15.897  1.00  0.00     0.017 C 
ENDBRANCH   1  20
TORSDOF 3
ENDMDL
