MODEL 1
REMARK VINA RESULT:      -5.6      0.000      0.000
REMARK  2 active torsions:
REMARK  status: ('A' for Active; 'I' for Inactive)
REMARK       I    between atoms: C_2  and  N_3 
REMARK       I    between atoms: C_2  and  N_10 
REMARK    1  A    between atoms: N_3  and  C_4 
REMARK    2  A    between atoms: N_10  and  C_11 
ROOT
HETATM    1  O   UNL     1     -41.623 -48.841  11.318  1.00  0.00    -0.247 OA
HETATM    2  C   UNL     1     -41.218 -49.943  11.675  1.00  0.00     0.322 C 
HETATM    3  N   UNL     1     -39.927 -50.197  12.026  1.00  0.00    -0.338 N 
HETATM    4  N   UNL     1     -42.088 -50.996  11.756  1.00  0.00    -0.288 N 
HETATM    5  H   UNL     1     -39.724 -51.140  12.339  1.00  0.00     0.164 HD
HETATM    6  H   UNL     1     -43.053 -50.789  11.554  1.00  0.00     0.172 HD
ENDROOT
BRANCH   3   7
HETATM    7  C   UNL     1     -38.817 -49.258  12.003  1.00  0.00     0.086 C 
HETATM    8  C   UNL     1     -37.472 -49.950  11.754  1.00  0.00     0.025 C 
HETATM    9  C   UNL     1     -37.111 -50.913  12.883  1.00  0.00     0.002 C 
HETATM   10  C   UNL     1     -37.111 -50.219  14.241  1.00  0.00     0.000 C 
HETATM   11  C   UNL     1     -38.396 -49.439  14.509  1.00  0.00     0.002 C 
HETATM   12  C   UNL     1     -38.769 -48.511  13.346  1.00  0.00     0.025 C 
ENDBRANCH   3   7
BRANCH   4  13
HETATM   13  C   UNL     1     -41.746 -52.269  12.119  1.00  0.00     0.168 A 
HETATM   14  N   UNL     1     -41.040 -53.148  11.443  1.00  0.00    -0.279 N 
HETATM   15  N   UNL     1     -40.837 -54.313  12.157  1.00  0.00    -0.303 N 
ATOM     16  HN  UNL     1     -40.684 -52.988  10.502  1.00  0.00     0.189 HD
HETATM   17  C   UNL     1     -41.405 -54.249  13.342  1.00  0.00     0.160 A 
ATOM     18  HN  UNL     1     -40.315 -55.117  11.810  1.00  0.00     0.186 HD
HETATM   19  S   UNL     1     -42.256 -52.788  13.659  1.00  0.00    -0.046 SA
ENDBRANCH   4  13
TORSDOF 2
ENDMDL
MODEL 2
REMARK VINA RESULT:      -5.5      3.892      6.510
REMARK  2 active torsions:
REMARK  status: ('A' for Active; 'I' for Inactive)
REMARK       I    between atoms: C_2  and  N_3 
REMARK       I    between atoms: C_2  and  N_10 
REMARK    1  A    between atoms: N_3  and  C_4 
REMARK    2  A    between atoms: N_10  and  C_11 
ROOT
HETATM    1  O   UNL     1     -42.970 -55.564  16.125  1.00  0.00    -0.247 OA
HETATM    2  C   UNL     1     -42.790 -54.818  15.166  1.00  0.00     0.322 C 
HETATM    3  N   UNL     1     -43.773 -54.068  14.597  1.00  0.00    -0.338 N 
HETATM    4  N   UNL     1     -41.540 -54.694  14.624  1.00  0.00    -0.288 N 
HETATM    5  H   UNL     1     -43.492 -53.463  13.834  1.00  0.00     0.164 HD
HETATM    6  H   UNL     1     -40.804 -55.204  15.087  1.00  0.00     0.172 HD
ENDROOT
BRANCH   3   7
HETATM    7  C   UNL     1     -45.178 -54.043  14.973  1.00  0.00     0.086 C 
HETATM    8  C   UNL     1     -46.108 -53.976  13.756  1.00  0.00     0.025 C 
HETATM    9  C   UNL     1     -45.918 -52.682  12.967  1.00  0.00     0.002 C 
HETATM   10  C   UNL     1     -46.102 -51.450  13.847  1.00  0.00     0.000 C 
HETATM   11  C   UNL     1     -45.263 -51.500  15.122  1.00  0.00     0.002 C 
HETATM   12  C   UNL     1     -45.429 -52.825  15.878  1.00  0.00     0.025 C 
ENDBRANCH   3   7
BRANCH   4  13
HETATM   13  C   UNL     1     -41.228 -53.913  13.547  1.00  0.00     0.168 A 
HETATM   14  N   UNL     1     -41.139 -54.264  12.284  1.00  0.00    -0.279 N 
HETATM   15  N   UNL     1     -40.868 -53.188  11.461  1.00  0.00    -0.303 N 
ATOM     16  HN  UNL     1     -41.257 -55.220  11.949  1.00  0.00     0.189 HD
HETATM   17  C   UNL     1     -40.766 -52.074  12.154  1.00  0.00     0.160 A 
ATOM     18  HN  UNL     1     -40.760 -53.249  10.449  1.00  0.00     0.186 HD
HETATM   19  S   UNL     1     -40.954 -52.260  13.854  1.00  0.00    -0.046 SA
ENDBRANCH   4  13
TORSDOF 2
ENDMDL
MODEL 3
REMARK VINA RESULT:      -5.4      2.830      5.232
REMARK  2 active torsions:
REMARK  status: ('A' for Active; 'I' for Inactive)
REMARK       I    between atoms: C_2  and  N_3 
REMARK       I    between atoms: C_2  and  N_10 
REMARK    1  A    between atoms: N_3  and  C_4 
REMARK    2  A    between atoms: N_10  and  C_11 
ROOT
HETATM    1  O   UNL     1     -38.938 -52.622  13.470  1.00  0.00    -0.247 OA
HETATM    2  C   UNL     1     -39.677 -51.774  12.977  1.00  0.00     0.322 C 
HETATM    3  N   UNL     1     -41.008 -51.681  13.249  1.00  0.00    -0.338 N 
HETATM    4  N   UNL     1     -39.166 -50.842  12.115  1.00  0.00    -0.288 N 
HETATM    5  H   UNL     1     -41.504 -50.914  12.807  1.00  0.00     0.164 HD
HETATM    6  H   UNL     1     -38.170 -50.878  11.964  1.00  0.00     0.172 HD
ENDROOT
BRANCH   3   7
HETATM    7  C   UNL     1     -41.785 -52.560  14.107  1.00  0.00     0.086 C 
HETATM    8  C   UNL     1     -42.538 -53.635  13.315  1.00  0.00     0.025 C 
HETATM    9  C   UNL     1     -43.579 -53.024  12.378  1.00  0.00     0.002 C 
HETATM   10  C   UNL     1     -44.561 -52.130  13.129  1.00  0.00     0.000 C 
HETATM   11  C   UNL     1     -43.865 -51.092  14.007  1.00  0.00     0.002 C 
HETATM   12  C   UNL     1     -42.790 -51.715  14.907  1.00  0.00     0.025 C 
ENDBRANCH   3   7
BRANCH   4  13
HETATM   13  C   UNL     1     -39.895 -49.869  11.492  1.00  0.00     0.168 A 
HETATM   14  N   UNL     1     -40.562 -49.947  10.361  1.00  0.00    -0.279 N 
HETATM   15  N   UNL     1     -41.240 -48.779  10.074  1.00  0.00    -0.303 N 
ATOM     16  HN  UNL     1     -40.576 -50.775   9.766  1.00  0.00     0.189 HD
HETATM   17  C   UNL     1     -41.047 -47.875  11.011  1.00  0.00     0.160 A 
ATOM     18  HN  UNL     1     -41.815 -48.636   9.244  1.00  0.00     0.186 HD
HETATM   19  S   UNL     1     -40.001 -48.366  12.285  1.00  0.00    -0.046 SA
ENDBRANCH   4  13
TORSDOF 2
ENDMDL
MODEL 4
REMARK VINA RESULT:      -5.0      4.086      6.575
REMARK  2 active torsions:
REMARK  status: ('A' for Active; 'I' for Inactive)
REMARK       I    between atoms: C_2  and  N_3 
REMARK       I    between atoms: C_2  and  N_10 
REMARK    1  A    between atoms: N_3  and  C_4 
REMARK    2  A    between atoms: N_10  and  C_11 
ROOT
HETATM    1  O   UNL     1     -44.577 -54.482  12.231  1.00  0.00    -0.247 OA
HETATM    2  C   UNL     1     -44.143 -53.397  12.605  1.00  0.00     0.322 C 
HETATM    3  N   UNL     1     -44.850 -52.525  13.378  1.00  0.00    -0.338 N 
HETATM    4  N   UNL     1     -42.876 -53.014  12.262  1.00  0.00    -0.288 N 
HETATM    5  H   UNL     1     -44.368 -51.676  13.652  1.00  0.00     0.164 HD
HETATM    6  H   UNL     1     -42.335 -53.687  11.742  1.00  0.00     0.172 HD
ENDROOT
BRANCH   3   7
HETATM    7  C   UNL     1     -46.215 -52.690  13.850  1.00  0.00     0.086 C 
HETATM    8  C   UNL     1     -46.760 -51.421  14.517  1.00  0.00     0.025 C 
HETATM    9  C   UNL     1     -45.977 -51.063  15.778  1.00  0.00     0.002 C 
HETATM   10  C   UNL     1     -45.948 -52.218  16.774  1.00  0.00     0.000 C 
HETATM   11  C   UNL     1     -45.495 -53.533  16.144  1.00  0.00     0.002 C 
HETATM   12  C   UNL     1     -46.258 -53.855  14.853  1.00  0.00     0.025 C 
ENDBRANCH   3   7
BRANCH   4  13
HETATM   13  C   UNL     1     -42.298 -51.823  12.603  1.00  0.00     0.168 A 
HETATM   14  N   UNL     1     -42.417 -50.658  12.006  1.00  0.00    -0.279 N 
HETATM   15  N   UNL     1     -41.739 -49.658  12.674  1.00  0.00    -0.303 N 
ATOM     16  HN  UNL     1     -42.949 -50.511  11.148  1.00  0.00     0.189 HD
HETATM   17  C   UNL     1     -41.140 -50.125  13.748  1.00  0.00     0.160 A 
ATOM     18  HN  UNL     1     -41.707 -48.684  12.374  1.00  0.00     0.186 HD
HETATM   19  S   UNL     1     -41.326 -51.817  14.002  1.00  0.00    -0.046 SA
ENDBRANCH   4  13
TORSDOF 2
ENDMDL
MODEL 5
REMARK VINA RESULT:      -4.9      3.657      6.312
REMARK  2 active torsions:
REMARK  status: ('A' for Active; 'I' for Inactive)
REMARK       I    between atoms: C_2  and  N_3 
REMARK       I    between atoms: C_2  and  N_10 
REMARK    1  A    between atoms: N_3  and  C_4 
REMARK    2  A    between atoms: N_10  and  C_11 
ROOT
HETATM    1  O   UNL     1     -41.586 -53.114  14.609  1.00  0.00    -0.247 OA
HETATM    2  C   UNL     1     -42.086 -52.207  13.950  1.00  0.00     0.322 C 
HETATM    3  N   UNL     1     -43.414 -52.130  13.654  1.00  0.00    -0.338 N 
HETATM    4  N   UNL     1     -41.301 -51.187  13.487  1.00  0.00    -0.288 N 
HETATM    5  H   UNL     1     -43.711 -51.312  13.134  1.00  0.00     0.164 HD
HETATM    6  H   UNL     1     -40.331 -51.217  13.760  1.00  0.00     0.172 HD
ENDROOT
BRANCH   3   7
HETATM    7  C   UNL     1     -44.442 -53.094  14.010  1.00  0.00     0.086 C 
HETATM    8  C   UNL     1     -45.604 -53.105  13.009  1.00  0.00     0.025 C 
HETATM    9  C   UNL     1     -46.346 -51.770  12.986  1.00  0.00     0.002 C 
HETATM   10  C   UNL     1     -46.841 -51.374  14.373  1.00  0.00     0.000 C 
HETATM   11  C   UNL     1     -45.743 -51.429  15.433  1.00  0.00     0.002 C 
HETATM   12  C   UNL     1     -44.977 -52.757  15.412  1.00  0.00     0.025 C 
ENDBRANCH   3   7
BRANCH   4  13
HETATM   13  C   UNL     1     -41.743 -50.140  12.729  1.00  0.00     0.168 A 
HETATM   14  N   UNL     1     -41.788 -50.043  11.419  1.00  0.00    -0.279 N 
HETATM   15  N   UNL     1     -42.362 -48.858  11.003  1.00  0.00    -0.303 N 
ATOM     16  HN  UNL     1     -41.439 -50.759  10.783  1.00  0.00     0.189 HD
HETATM   17  C   UNL     1     -42.723 -48.119  12.030  1.00  0.00     0.160 A 
ATOM     18  HN  UNL     1     -42.490 -48.591  10.027  1.00  0.00     0.186 HD
HETATM   19  S   UNL     1     -42.357 -48.792  13.570  1.00  0.00    -0.046 SA
ENDBRANCH   4  13
TORSDOF 2
ENDMDL
MODEL 6
REMARK VINA RESULT:      -4.7      3.206      5.615
REMARK  2 active torsions:
REMARK  status: ('A' for Active; 'I' for Inactive)
REMARK       I    between atoms: C_2  and  N_3 
REMARK       I    between atoms: C_2  and  N_10 
REMARK    1  A    between atoms: N_3  and  C_4 
REMARK    2  A    between atoms: N_10  and  C_11 
ROOT
HETATM    1  O   UNL     1     -42.977 -49.118  13.408  1.00  0.00    -0.247 OA
HETATM    2  C   UNL     1     -42.771 -50.328  13.390  1.00  0.00     0.322 C 
HETATM    3  N   UNL     1     -43.692 -51.258  13.767  1.00  0.00    -0.338 N 
HETATM    4  N   UNL     1     -41.566 -50.808  12.956  1.00  0.00    -0.288 N 
HETATM    5  H   UNL     1     -43.415 -52.228  13.672  1.00  0.00     0.164 HD
HETATM    6  H   UNL     1     -40.910 -50.119  12.621  1.00  0.00     0.172 HD
ENDROOT
BRANCH   3   7
HETATM    7  C   UNL     1     -45.027 -51.002  14.283  1.00  0.00     0.086 C 
HETATM    8  C   UNL     1     -45.284 -51.714  15.616  1.00  0.00     0.025 C 
HETATM    9  C   UNL     1     -45.235 -53.234  15.466  1.00  0.00     0.002 C 
HETATM   10  C   UNL     1     -46.208 -53.729  14.400  1.00  0.00     0.000 C 
HETATM   11  C   UNL     1     -46.057 -52.992  13.071  1.00  0.00     0.002 C 
HETATM   12  C   UNL     1     -46.061 -51.468  13.245  1.00  0.00     0.025 C 
ENDBRANCH   3   7
BRANCH   4  13
HETATM   13  C   UNL     1     -41.218 -52.128  12.913  1.00  0.00     0.168 A 
HETATM   14  N   UNL     1     -41.441 -53.000  11.954  1.00  0.00    -0.279 N 
HETATM   15  N   UNL     1     -40.882 -54.233  12.229  1.00  0.00    -0.303 N 
ATOM     16  HN  UNL     1     -41.965 -52.790  11.105  1.00  0.00     0.189 HD
HETATM   17  C   UNL     1     -40.262 -54.224  13.390  1.00  0.00     0.160 A 
ATOM     18  HN  UNL     1     -40.942 -55.043  11.613  1.00  0.00     0.186 HD
HETATM   19  S   UNL     1     -40.347 -52.734  14.245  1.00  0.00    -0.046 SA
ENDBRANCH   4  13
TORSDOF 2
ENDMDL
MODEL 7
REMARK VINA RESULT:      -4.6      3.808      6.257
REMARK  2 active torsions:
REMARK  status: ('A' for Active; 'I' for Inactive)
REMARK       I    between atoms: C_2  and  N_3 
REMARK       I    between atoms: C_2  and  N_10 
REMARK    1  A    between atoms: N_3  and  C_4 
REMARK    2  A    between atoms: N_10  and  C_11 
ROOT
HETATM    1  O   UNL     1     -42.434 -53.086  16.540  1.00  0.00    -0.247 OA
HETATM    2  C   UNL     1     -42.399 -52.690  15.379  1.00  0.00     0.322 C 
HETATM    3  N   UNL     1     -43.446 -52.789  14.514  1.00  0.00    -0.338 N 
HETATM    4  N   UNL     1     -41.267 -52.094  14.896  1.00  0.00    -0.288 N 
HETATM    5  H   UNL     1     -43.306 -52.391  13.592  1.00  0.00     0.164 HD
HETATM    6  H   UNL     1     -40.516 -51.968  15.557  1.00  0.00     0.172 HD
ENDROOT
BRANCH   3   7
HETATM    7  C   UNL     1     -44.739 -53.398  14.779  1.00  0.00     0.086 C 
HETATM    8  C   UNL     1     -45.435 -53.874  13.497  1.00  0.00     0.025 C 
HETATM    9  C   UNL     1     -45.763 -52.709  12.565  1.00  0.00     0.002 C 
HETATM   10  C   UNL     1     -46.603 -51.644  13.264  1.00  0.00     0.000 C 
HETATM   11  C   UNL     1     -46.002 -51.193  14.593  1.00  0.00     0.002 C 
HETATM   12  C   UNL     1     -45.634 -52.376  15.499  1.00  0.00     0.025 C 
ENDBRANCH   3   7
BRANCH   4  13
HETATM   13  C   UNL     1     -41.106 -51.635  13.619  1.00  0.00     0.168 A 
HETATM   14  N   UNL     1     -40.842 -52.326  12.532  1.00  0.00    -0.279 N 
HETATM   15  N   UNL     1     -40.818 -51.531  11.402  1.00  0.00    -0.303 N 
ATOM     16  HN  UNL     1     -40.674 -53.331  12.523  1.00  0.00     0.189 HD
HETATM   17  C   UNL     1     -41.068 -50.274  11.701  1.00  0.00     0.160 A 
ATOM     18  HN  UNL     1     -40.631 -51.874  10.460  1.00  0.00     0.186 HD
HETATM   19  S   UNL     1     -41.312 -49.962  13.374  1.00  0.00    -0.046 SA
ENDBRANCH   4  13
TORSDOF 2
ENDMDL
MODEL 8
REMARK VINA RESULT:      -4.6      4.375      5.824
REMARK  2 active torsions:
REMARK  status: ('A' for Active; 'I' for Inactive)
REMARK       I    between atoms: C_2  and  N_3 
REMARK       I    between atoms: C_2  and  N_10 
REMARK    1  A    between atoms: N_3  and  C_4 
REMARK    2  A    between atoms: N_10  and  C_11 
ROOT
HETATM    1  O   UNL     1     -43.892 -54.897  16.860  1.00  0.00    -0.247 OA
HETATM    2  C   UNL     1     -44.161 -54.187  15.895  1.00  0.00     0.322 C 
HETATM    3  N   UNL     1     -43.228 -53.510  15.170  1.00  0.00    -0.338 N 
HETATM    4  N   UNL     1     -45.459 -54.061  15.482  1.00  0.00    -0.288 N 
HETATM    5  H   UNL     1     -43.571 -52.988  14.372  1.00  0.00     0.164 HD
HETATM    6  H   UNL     1     -46.139 -54.612  15.983  1.00  0.00     0.172 HD
ENDROOT
BRANCH   3   7
HETATM    7  C   UNL     1     -41.796 -53.465  15.420  1.00  0.00     0.086 C 
HETATM    8  C   UNL     1     -41.200 -52.078  15.153  1.00  0.00     0.025 C 
HETATM    9  C   UNL     1     -41.327 -51.679  13.684  1.00  0.00     0.002 C 
HETATM   10  C   UNL     1     -40.699 -52.718  12.759  1.00  0.00     0.000 C 
HETATM   11  C   UNL     1     -41.192 -54.136  13.038  1.00  0.00     0.002 C 
HETATM   12  C   UNL     1     -41.101 -54.504  14.524  1.00  0.00     0.025 C 
ENDBRANCH   3   7
BRANCH   4  13
HETATM   13  C   UNL     1     -45.877 -53.285  14.438  1.00  0.00     0.168 A 
HETATM   14  N   UNL     1     -46.029 -53.627  13.178  1.00  0.00    -0.279 N 
HETATM   15  N   UNL     1     -46.538 -52.594  12.415  1.00  0.00    -0.303 N 
ATOM     16  HN  UNL     1     -45.799 -54.548  12.806  1.00  0.00     0.189 HD
HETATM   17  C   UNL     1     -46.744 -51.520  13.147  1.00  0.00     0.160 A 
ATOM     18  HN  UNL     1     -46.728 -52.656  11.415  1.00  0.00     0.186 HD
HETATM   19  S   UNL     1     -46.301 -51.676  14.801  1.00  0.00    -0.046 SA
ENDBRANCH   4  13
TORSDOF 2
ENDMDL
MODEL 9
REMARK VINA RESULT:      -4.5      2.400      4.523
REMARK  2 active torsions:
REMARK  status: ('A' for Active; 'I' for Inactive)
REMARK       I    between atoms: C_2  and  N_3 
REMARK       I    between atoms: C_2  and  N_10 
REMARK    1  A    between atoms: N_3  and  C_4 
REMARK    2  A    between atoms: N_10  and  C_11 
ROOT
HETATM    1  O   UNL     1     -43.050 -50.189  13.801  1.00  0.00    -0.247 OA
HETATM    2  C   UNL     1     -41.931 -50.451  13.369  1.00  0.00     0.322 C 
HETATM    3  N   UNL     1     -41.304 -51.643  13.568  1.00  0.00    -0.338 N 
HETATM    4  N   UNL     1     -41.254 -49.525  12.625  1.00  0.00    -0.288 N 
HETATM    5  H   UNL     1     -40.397 -51.752  13.129  1.00  0.00     0.164 HD
HETATM    6  H   UNL     1     -41.747 -48.668  12.429  1.00  0.00     0.172 HD
ENDROOT
BRANCH   3   7
HETATM    7  C   UNL     1     -41.802 -52.772  14.337  1.00  0.00     0.086 C 
HETATM    8  C   UNL     1     -41.108 -52.902  15.699  1.00  0.00     0.025 C 
HETATM    9  C   UNL     1     -39.616 -53.192  15.549  1.00  0.00     0.002 C 
HETATM   10  C   UNL     1     -39.362 -54.434  14.699  1.00  0.00     0.000 C 
HETATM   11  C   UNL     1     -40.101 -54.399  13.363  1.00  0.00     0.002 C 
HETATM   12  C   UNL     1     -41.588 -54.061  13.527  1.00  0.00     0.025 C 
ENDBRANCH   3   7
BRANCH   4  13
HETATM   13  C   UNL     1     -39.999 -49.697  12.112  1.00  0.00     0.168 A 
HETATM   14  N   UNL     1     -39.658 -50.093  10.906  1.00  0.00    -0.279 N 
HETATM   15  N   UNL     1     -38.289 -50.085  10.722  1.00  0.00    -0.303 N 
ATOM     16  HN  UNL     1     -40.326 -50.373  10.189  1.00  0.00     0.189 HD
HETATM   17  C   UNL     1     -37.666 -49.680  11.808  1.00  0.00     0.160 A 
ATOM     18  HN  UNL     1     -37.822 -50.357   9.857  1.00  0.00     0.186 HD
HETATM   19  S   UNL     1     -38.694 -49.318  13.139  1.00  0.00    -0.046 SA
ENDBRANCH   4  13
TORSDOF 2
ENDMDL
