MODEL 1
REMARK VINA RESULT:      -6.8      0.000      0.000
REMARK  2 active torsions:
REMARK  status: ('A' for Active; 'I' for Inactive)
REMARK    1  A    between atoms: C_4  and  N_5 
REMARK       I    between atoms: N_5  and  C_6 
REMARK       I    between atoms: C_6  and  N_8 
REMARK    2  A    between atoms: N_8  and  C_9 
ROOT
HETATM    1  N   UNL     1     -42.309 -46.445   9.702  1.00  0.00    -0.293 N 
HETATM    2  C   UNL     1     -41.496 -46.915  10.696  1.00  0.00     0.322 C 
HETATM    3  O   UNL     1     -40.578 -46.216  11.118  1.00  0.00    -0.247 OA
HETATM    4  N   UNL     1     -41.725 -48.189  11.114  1.00  0.00    -0.338 N 
HETATM    5  H   UNL     1     -42.062 -45.525   9.369  1.00  0.00     0.172 HD
HETATM    6  H   UNL     1     -42.545 -48.647  10.727  1.00  0.00     0.164 HD
ENDROOT
BRANCH   4   7
HETATM    7  C   UNL     1     -40.788 -48.986  11.878  1.00  0.00     0.091 C 
HETATM    8  C   UNL     1     -41.297 -50.408  12.090  1.00  0.00     0.066 C 
HETATM    9  C   UNL     1     -40.279 -51.266  12.866  1.00  0.00     0.153 C 
HETATM   10  C   UNL     1     -40.265 -50.904  14.362  1.00  0.00     0.048 C 
HETATM   11  C   UNL     1     -40.725 -52.742  12.771  1.00  0.00     0.048 C 
HETATM   12  N   UNL     1     -38.927 -51.194  12.272  1.00  0.00     0.101 N 
HETATM   13  C   UNL     1     -38.398 -49.860  11.926  1.00  0.00     0.153 C 
HETATM   14  H   UNL     1     -38.929 -51.763  11.422  1.00  0.00     0.317 HD
HETATM   15  C   UNL     1     -37.886 -49.090  13.156  1.00  0.00     0.048 C 
HETATM   16  C   UNL     1     -37.172 -50.091  11.012  1.00  0.00     0.048 C 
HETATM   17  C   UNL     1     -39.441 -49.038  11.150  1.00  0.00     0.066 C 
ENDBRANCH   4   7
BRANCH   1  18
HETATM   18  C   UNL     1     -43.254 -47.164   8.996  1.00  0.00     0.132 A 
HETATM   19  C   UNL     1     -44.559 -47.458   9.458  1.00  0.00     0.084 A 
HETATM   20  C   UNL     1     -45.165 -48.081   8.394  1.00  0.00     0.076 A 
HETATM   21  C   UNL     1     -46.519 -48.583   8.111  1.00  0.00     0.079 C 
HETATM   22  O   UNL     1     -44.271 -48.211   7.384  1.00  0.00    -0.241 OA
HETATM   23  N   UNL     1     -43.079 -47.643   7.758  1.00  0.00    -0.245 N 
ATOM     24  HN  UNL     1     -42.226 -47.594   7.201  1.00  0.00     0.196 HD
ENDBRANCH   1  18
TORSDOF 2
ENDMDL
MODEL 2
REMARK VINA RESULT:      -6.8      1.525      2.311
REMARK  2 active torsions:
REMARK  status: ('A' for Active; 'I' for Inactive)
REMARK    1  A    between atoms: C_4  and  N_5 
REMARK       I    between atoms: N_5  and  C_6 
REMARK       I    between atoms: C_6  and  N_8 
REMARK    2  A    between atoms: N_8  and  C_9 
ROOT
HETATM    1  N   UNL     1     -42.643 -45.908   9.037  1.00  0.00    -0.293 N 
HETATM    2  C   UNL     1     -41.755 -46.020  10.071  1.00  0.00     0.322 C 
HETATM    3  O   UNL     1     -40.935 -45.127  10.273  1.00  0.00    -0.247 OA
HETATM    4  N   UNL     1     -41.799 -47.177  10.783  1.00  0.00    -0.338 N 
HETATM    5  H   UNL     1     -42.532 -45.069   8.488  1.00  0.00     0.172 HD
HETATM    6  H   UNL     1     -42.553 -47.817  10.554  1.00  0.00     0.164 HD
ENDROOT
BRANCH   4   7
HETATM    7  C   UNL     1     -40.746 -47.642  11.664  1.00  0.00     0.091 C 
HETATM    8  C   UNL     1     -41.009 -47.250  13.115  1.00  0.00     0.066 C 
HETATM    9  C   UNL     1     -39.912 -47.782  14.055  1.00  0.00     0.153 C 
HETATM   10  C   UNL     1     -38.617 -46.960  13.927  1.00  0.00     0.048 C 
HETATM   11  C   UNL     1     -40.402 -47.612  15.510  1.00  0.00     0.048 C 
HETATM   12  N   UNL     1     -39.666 -49.227  13.858  1.00  0.00     0.101 N 
HETATM   13  C   UNL     1     -39.514 -49.716  12.474  1.00  0.00     0.153 C 
HETATM   14  H   UNL     1     -40.440 -49.736  14.290  1.00  0.00     0.317 HD
HETATM   15  C   UNL     1     -38.123 -49.412  11.889  1.00  0.00     0.048 C 
HETATM   16  C   UNL     1     -39.638 -51.257  12.531  1.00  0.00     0.048 C 
HETATM   17  C   UNL     1     -40.630 -49.167  11.569  1.00  0.00     0.066 C 
ENDBRANCH   4   7
BRANCH   1  18
HETATM   18  C   UNL     1     -43.492 -46.890   8.565  1.00  0.00     0.132 A 
HETATM   19  C   UNL     1     -44.781 -47.161   9.081  1.00  0.00     0.084 A 
HETATM   20  C   UNL     1     -45.289 -48.124   8.241  1.00  0.00     0.076 A 
HETATM   21  C   UNL     1     -46.580 -48.816   8.105  1.00  0.00     0.079 C 
HETATM   22  O   UNL     1     -44.349 -48.456   7.323  1.00  0.00    -0.241 OA
HETATM   23  N   UNL     1     -43.228 -47.690   7.524  1.00  0.00    -0.245 N 
ATOM     24  HN  UNL     1     -42.362 -47.724   6.986  1.00  0.00     0.196 HD
ENDBRANCH   1  18
TORSDOF 2
ENDMDL
MODEL 3
REMARK VINA RESULT:      -6.7      3.714      5.884
REMARK  2 active torsions:
REMARK  status: ('A' for Active; 'I' for Inactive)
REMARK    1  A    between atoms: C_4  and  N_5 
REMARK       I    between atoms: N_5  and  C_6 
REMARK       I    between atoms: C_6  and  N_8 
REMARK    2  A    between atoms: N_8  and  C_9 
ROOT
HETATM    1  N   UNL     1     -40.133 -50.729  11.317  1.00  0.00    -0.293 N 
HETATM    2  C   UNL     1     -40.780 -51.682  12.055  1.00  0.00     0.322 C 
HETATM    3  O   UNL     1     -40.457 -52.863  11.948  1.00  0.00    -0.247 OA
HETATM    4  N   UNL     1     -41.811 -51.251  12.829  1.00  0.00    -0.338 N 
HETATM    5  H   UNL     1     -39.423 -51.097  10.702  1.00  0.00     0.172 HD
HETATM    6  H   UNL     1     -41.950 -50.246  12.873  1.00  0.00     0.164 HD
ENDROOT
BRANCH   4   7
HETATM    7  C   UNL     1     -42.829 -52.111  13.397  1.00  0.00     0.091 C 
HETATM    8  C   UNL     1     -42.458 -52.571  14.804  1.00  0.00     0.066 C 
HETATM    9  C   UNL     1     -43.561 -53.450  15.423  1.00  0.00     0.153 C 
HETATM   10  C   UNL     1     -43.560 -54.864  14.815  1.00  0.00     0.048 C 
HETATM   11  C   UNL     1     -43.255 -53.615  16.928  1.00  0.00     0.048 C 
HETATM   12  N   UNL     1     -44.893 -52.815  15.330  1.00  0.00     0.101 N 
HETATM   13  C   UNL     1     -45.290 -52.237  14.031  1.00  0.00     0.153 C 
HETATM   14  H   UNL     1     -44.935 -52.073  16.032  1.00  0.00     0.317 HD
HETATM   15  C   UNL     1     -45.744 -53.307  13.022  1.00  0.00     0.048 C 
HETATM   16  C   UNL     1     -46.522 -51.340  14.301  1.00  0.00     0.048 C 
HETATM   17  C   UNL     1     -44.166 -51.364  13.449  1.00  0.00     0.066 C 
ENDBRANCH   4   7
BRANCH   1  18
HETATM   18  C   UNL     1     -40.492 -49.403  11.181  1.00  0.00     0.132 A 
HETATM   19  C   UNL     1     -39.926 -48.332  11.912  1.00  0.00     0.084 A 
HETATM   20  C   UNL     1     -40.501 -47.207  11.369  1.00  0.00     0.076 A 
HETATM   21  C   UNL     1     -40.338 -45.757  11.557  1.00  0.00     0.079 C 
HETATM   22  O   UNL     1     -41.397 -47.577  10.423  1.00  0.00    -0.241 OA
HETATM   23  N   UNL     1     -41.396 -48.943  10.305  1.00  0.00    -0.245 N 
ATOM     24  HN  UNL     1     -41.971 -49.502   9.674  1.00  0.00     0.196 HD
ENDBRANCH   1  18
TORSDOF 2
ENDMDL
MODEL 4
REMARK VINA RESULT:      -6.6      3.771      5.846
REMARK  2 active torsions:
REMARK  status: ('A' for Active; 'I' for Inactive)
REMARK    1  A    between atoms: C_4  and  N_5 
REMARK       I    between atoms: N_5  and  C_6 
REMARK       I    between atoms: C_6  and  N_8 
REMARK    2  A    between atoms: N_8  and  C_9 
ROOT
HETATM    1  N   UNL     1     -40.522 -50.561  11.065  1.00  0.00    -0.293 N 
HETATM    2  C   UNL     1     -41.272 -51.472  11.756  1.00  0.00     0.322 C 
HETATM    3  O   UNL     1     -41.090 -52.674  11.580  1.00  0.00    -0.247 OA
HETATM    4  N   UNL     1     -42.242 -50.968  12.565  1.00  0.00    -0.338 N 
HETATM    5  H   UNL     1     -39.864 -50.973  10.422  1.00  0.00     0.172 HD
HETATM    6  H   UNL     1     -42.262 -49.958  12.667  1.00  0.00     0.164 HD
ENDROOT
BRANCH   4   7
HETATM    7  C   UNL     1     -43.350 -51.735  13.097  1.00  0.00     0.091 C 
HETATM    8  C   UNL     1     -42.881 -53.041  13.730  1.00  0.00     0.066 C 
HETATM    9  C   UNL     1     -44.055 -53.835  14.333  1.00  0.00     0.153 C 
HETATM   10  C   UNL     1     -44.896 -54.512  13.237  1.00  0.00     0.048 C 
HETATM   11  C   UNL     1     -43.471 -54.967  15.207  1.00  0.00     0.048 C 
HETATM   12  N   UNL     1     -44.888 -52.999  15.225  1.00  0.00     0.101 N 
HETATM   13  C   UNL     1     -45.294 -51.666  14.738  1.00  0.00     0.153 C 
HETATM   14  H   UNL     1     -44.377 -52.873  16.101  1.00  0.00     0.317 HD
HETATM   15  C   UNL     1     -46.458 -51.734  13.734  1.00  0.00     0.048 C 
HETATM   16  C   UNL     1     -45.819 -50.885  15.965  1.00  0.00     0.048 C 
HETATM   17  C   UNL     1     -44.094 -50.906  14.149  1.00  0.00     0.066 C 
ENDBRANCH   4   7
BRANCH   1  18
HETATM   18  C   UNL     1     -40.725 -49.195  11.007  1.00  0.00     0.132 A 
HETATM   19  C   UNL     1     -40.020 -48.239  11.776  1.00  0.00     0.084 A 
HETATM   20  C   UNL     1     -40.469 -47.028  11.308  1.00  0.00     0.076 A 
HETATM   21  C   UNL     1     -40.132 -45.619  11.566  1.00  0.00     0.079 C 
HETATM   22  O   UNL     1     -41.424 -47.238  10.370  1.00  0.00    -0.241 OA
HETATM   23  N   UNL     1     -41.587 -48.587  10.182  1.00  0.00    -0.245 N 
ATOM     24  HN  UNL     1     -42.238 -49.039   9.540  1.00  0.00     0.196 HD
ENDBRANCH   1  18
TORSDOF 2
ENDMDL
MODEL 5
REMARK VINA RESULT:      -6.6      3.491      5.932
REMARK  2 active torsions:
REMARK  status: ('A' for Active; 'I' for Inactive)
REMARK    1  A    between atoms: C_4  and  N_5 
REMARK       I    between atoms: N_5  and  C_6 
REMARK       I    between atoms: C_6  and  N_8 
REMARK    2  A    between atoms: N_8  and  C_9 
ROOT
HETATM    1  N   UNL     1     -41.818 -52.128  12.457  1.00  0.00    -0.293 N 
HETATM    2  C   UNL     1     -41.385 -50.872  12.134  1.00  0.00     0.322 C 
HETATM    3  O   UNL     1     -40.185 -50.613  12.157  1.00  0.00    -0.247 OA
HETATM    4  N   UNL     1     -42.349 -49.950  11.867  1.00  0.00    -0.338 N 
HETATM    5  H   UNL     1     -41.079 -52.763  12.719  1.00  0.00     0.172 HD
HETATM    6  H   UNL     1     -43.303 -50.297  11.829  1.00  0.00     0.164 HD
ENDROOT
BRANCH   4   7
HETATM    7  C   UNL     1     -42.136 -48.517  11.853  1.00  0.00     0.091 C 
HETATM    8  C   UNL     1     -42.739 -47.869  10.610  1.00  0.00     0.066 C 
HETATM    9  C   UNL     1     -42.550 -46.340  10.619  1.00  0.00     0.153 C 
HETATM   10  C   UNL     1     -41.098 -45.953  10.282  1.00  0.00     0.048 C 
HETATM   11  C   UNL     1     -43.438 -45.740   9.507  1.00  0.00     0.048 C 
HETATM   12  N   UNL     1     -42.998 -45.733  11.891  1.00  0.00     0.101 N 
HETATM   13  C   UNL     1     -42.555 -46.368  13.148  1.00  0.00     0.153 C 
HETATM   14  H   UNL     1     -44.020 -45.720  11.887  1.00  0.00     0.317 HD
HETATM   15  C   UNL     1     -41.101 -46.016  13.507  1.00  0.00     0.048 C 
HETATM   16  C   UNL     1     -43.438 -45.782  14.276  1.00  0.00     0.048 C 
HETATM   17  C   UNL     1     -42.765 -47.890  13.102  1.00  0.00     0.066 C 
ENDBRANCH   4   7
BRANCH   1  18
HETATM   18  C   UNL     1     -43.125 -52.528  12.658  1.00  0.00     0.132 A 
HETATM   19  C   UNL     1     -43.934 -52.129  13.748  1.00  0.00     0.084 A 
HETATM   20  C   UNL     1     -45.167 -52.671  13.474  1.00  0.00     0.076 A 
HETATM   21  C   UNL     1     -46.497 -52.610  14.100  1.00  0.00     0.079 C 
HETATM   22  O   UNL     1     -45.091 -53.399  12.333  1.00  0.00    -0.241 OA
HETATM   23  N   UNL     1     -43.820 -53.313  11.825  1.00  0.00    -0.245 N 
ATOM     24  HN  UNL     1     -43.471 -53.760  10.977  1.00  0.00     0.196 HD
ENDBRANCH   1  18
TORSDOF 2
ENDMDL
MODEL 6
REMARK VINA RESULT:      -6.4      3.625      5.261
REMARK  2 active torsions:
REMARK  status: ('A' for Active; 'I' for Inactive)
REMARK    1  A    between atoms: C_4  and  N_5 
REMARK       I    between atoms: N_5  and  C_6 
REMARK       I    between atoms: C_6  and  N_8 
REMARK    2  A    between atoms: N_8  and  C_9 
ROOT
HETATM    1  N   UNL     1     -42.598 -53.038  14.424  1.00  0.00    -0.293 N 
HETATM    2  C   UNL     1     -41.493 -52.249  14.253  1.00  0.00     0.322 C 
HETATM    3  O   UNL     1     -40.624 -52.217  15.121  1.00  0.00    -0.247 OA
HETATM    4  N   UNL     1     -41.466 -51.481  13.131  1.00  0.00    -0.338 N 
HETATM    5  H   UNL     1     -42.616 -53.537  15.301  1.00  0.00     0.172 HD
HETATM    6  H   UNL     1     -42.217 -51.633  12.465  1.00  0.00     0.164 HD
ENDROOT
BRANCH   4   7
HETATM    7  C   UNL     1     -40.591 -50.344  12.934  1.00  0.00     0.091 C 
HETATM    8  C   UNL     1     -39.297 -50.742  12.230  1.00  0.00     0.066 C 
HETATM    9  C   UNL     1     -38.387 -49.525  11.982  1.00  0.00     0.153 C 
HETATM   10  C   UNL     1     -37.698 -49.067  13.280  1.00  0.00     0.048 C 
HETATM   11  C   UNL     1     -37.264 -49.954  11.012  1.00  0.00     0.048 C 
HETATM   12  N   UNL     1     -39.111 -48.416  11.325  1.00  0.00     0.101 N 
HETATM   13  C   UNL     1     -40.430 -48.038  11.870  1.00  0.00     0.153 C 
HETATM   14  H   UNL     1     -39.236 -48.664  10.342  1.00  0.00     0.317 HD
HETATM   15  C   UNL     1     -40.319 -47.190  13.150  1.00  0.00     0.048 C 
HETATM   16  C   UNL     1     -41.109 -47.140  10.809  1.00  0.00     0.048 C 
HETATM   17  C   UNL     1     -41.309 -49.279  12.099  1.00  0.00     0.066 C 
ENDBRANCH   4   7
BRANCH   1  18
HETATM   18  C   UNL     1     -43.738 -53.046  13.644  1.00  0.00     0.132 A 
HETATM   19  C   UNL     1     -44.788 -52.102  13.736  1.00  0.00     0.084 A 
HETATM   20  C   UNL     1     -45.636 -52.435  12.707  1.00  0.00     0.076 A 
HETATM   21  C   UNL     1     -46.868 -51.861  12.142  1.00  0.00     0.079 C 
HETATM   22  O   UNL     1     -45.166 -53.540  12.081  1.00  0.00    -0.241 OA
HETATM   23  N   UNL     1     -43.985 -53.924  12.663  1.00  0.00    -0.245 N 
ATOM     24  HN  UNL     1     -43.407 -54.723  12.401  1.00  0.00     0.196 HD
ENDBRANCH   1  18
TORSDOF 2
ENDMDL
MODEL 7
REMARK VINA RESULT:      -6.3      3.258      4.868
REMARK  2 active torsions:
REMARK  status: ('A' for Active; 'I' for Inactive)
REMARK    1  A    between atoms: C_4  and  N_5 
REMARK       I    between atoms: N_5  and  C_6 
REMARK       I    between atoms: C_6  and  N_8 
REMARK    2  A    between atoms: N_8  and  C_9 
ROOT
HETATM    1  N   UNL     1     -40.953 -48.995  10.747  1.00  0.00    -0.293 N 
HETATM    2  C   UNL     1     -41.229 -50.053  11.569  1.00  0.00     0.322 C 
HETATM    3  O   UNL     1     -40.478 -51.025  11.589  1.00  0.00    -0.247 OA
HETATM    4  N   UNL     1     -42.386 -49.980  12.280  1.00  0.00    -0.338 N 
HETATM    5  H   UNL     1     -40.126 -49.118  10.183  1.00  0.00     0.172 HD
HETATM    6  H   UNL     1     -42.896 -49.105  12.219  1.00  0.00     0.164 HD
ENDROOT
BRANCH   4   7
HETATM    7  C   UNL     1     -43.031 -51.109  12.919  1.00  0.00     0.091 C 
HETATM    8  C   UNL     1     -42.333 -51.496  14.220  1.00  0.00     0.066 C 
HETATM    9  C   UNL     1     -43.046 -52.668  14.920  1.00  0.00     0.153 C 
HETATM   10  C   UNL     1     -42.757 -54.003  14.211  1.00  0.00     0.048 C 
HETATM   11  C   UNL     1     -42.474 -52.792  16.350  1.00  0.00     0.048 C 
HETATM   12  N   UNL     1     -44.498 -52.427  15.065  1.00  0.00     0.101 N 
HETATM   13  C   UNL     1     -45.235 -51.938  13.883  1.00  0.00     0.153 C 
HETATM   14  H   UNL     1     -44.628 -51.750  15.820  1.00  0.00     0.317 HD
HETATM   15  C   UNL     1     -45.534 -53.057  12.870  1.00  0.00     0.048 C 
HETATM   16  C   UNL     1     -46.605 -51.431  14.392  1.00  0.00     0.048 C 
HETATM   17  C   UNL     1     -44.494 -50.767  13.216  1.00  0.00     0.066 C 
ENDBRANCH   4   7
BRANCH   1  18
HETATM   18  C   UNL     1     -41.780 -47.924  10.470  1.00  0.00     0.132 A 
HETATM   19  C   UNL     1     -42.719 -47.878   9.414  1.00  0.00     0.084 A 
HETATM   20  C   UNL     1     -43.380 -46.687   9.596  1.00  0.00     0.076 A 
HETATM   21  C   UNL     1     -44.518 -46.014   8.950  1.00  0.00     0.079 C 
HETATM   22  O   UNL     1     -42.833 -46.030  10.648  1.00  0.00    -0.241 OA
HETATM   23  N   UNL     1     -41.835 -46.797  11.193  1.00  0.00    -0.245 N 
ATOM     24  HN  UNL     1     -41.249 -46.557  11.992  1.00  0.00     0.196 HD
ENDBRANCH   1  18
TORSDOF 2
ENDMDL
MODEL 8
REMARK VINA RESULT:      -6.2      4.311      5.694
REMARK  2 active torsions:
REMARK  status: ('A' for Active; 'I' for Inactive)
REMARK    1  A    between atoms: C_4  and  N_5 
REMARK       I    between atoms: N_5  and  C_6 
REMARK       I    between atoms: C_6  and  N_8 
REMARK    2  A    between atoms: N_8  and  C_9 
ROOT
HETATM    1  N   UNL     1     -42.075 -54.289  13.061  1.00  0.00    -0.293 N 
HETATM    2  C   UNL     1     -40.911 -53.576  12.976  1.00  0.00     0.322 C 
HETATM    3  O   UNL     1     -39.838 -54.124  13.220  1.00  0.00    -0.247 OA
HETATM    4  N   UNL     1     -41.031 -52.253  12.684  1.00  0.00    -0.338 N 
HETATM    5  H   UNL     1     -41.951 -55.247  13.350  1.00  0.00     0.172 HD
HETATM    6  H   UNL     1     -41.965 -51.928  12.453  1.00  0.00     0.164 HD
ENDROOT
BRANCH   4   7
HETATM    7  C   UNL     1     -39.990 -51.267  12.891  1.00  0.00     0.091 C 
HETATM    8  C   UNL     1     -40.204 -50.030  12.023  1.00  0.00     0.066 C 
HETATM    9  C   UNL     1     -39.120 -48.965  12.276  1.00  0.00     0.153 C 
HETATM   10  C   UNL     1     -37.784 -49.359  11.622  1.00  0.00     0.048 C 
HETATM   11  C   UNL     1     -39.573 -47.650  11.603  1.00  0.00     0.048 C 
HETATM   12  N   UNL     1     -38.960 -48.669  13.716  1.00  0.00     0.101 N 
HETATM   13  C   UNL     1     -38.862 -49.811  14.646  1.00  0.00     0.153 C 
HETATM   14  H   UNL     1     -39.753 -48.093  14.007  1.00  0.00     0.317 HD
HETATM   15  C   UNL     1     -37.467 -50.462  14.637  1.00  0.00     0.048 C 
HETATM   16  C   UNL     1     -39.071 -49.244  16.070  1.00  0.00     0.048 C 
HETATM   17  C   UNL     1     -39.961 -50.848  14.364  1.00  0.00     0.066 C 
ENDBRANCH   4   7
BRANCH   1  18
HETATM   18  C   UNL     1     -43.360 -53.785  13.002  1.00  0.00     0.132 A 
HETATM   19  C   UNL     1     -44.092 -53.302  14.112  1.00  0.00     0.084 A 
HETATM   20  C   UNL     1     -45.252 -52.807  13.567  1.00  0.00     0.076 A 
HETATM   21  C   UNL     1     -46.426 -52.088  14.086  1.00  0.00     0.079 C 
HETATM   22  O   UNL     1     -45.249 -53.034  12.231  1.00  0.00    -0.241 OA
HETATM   23  N   UNL     1     -44.073 -53.645  11.877  1.00  0.00    -0.245 N 
ATOM     24  HN  UNL     1     -43.796 -53.937  10.939  1.00  0.00     0.196 HD
ENDBRANCH   1  18
TORSDOF 2
ENDMDL
MODEL 9
REMARK VINA RESULT:      -6.1      3.880      6.218
REMARK  2 active torsions:
REMARK  status: ('A' for Active; 'I' for Inactive)
REMARK    1  A    between atoms: C_4  and  N_5 
REMARK       I    between atoms: N_5  and  C_6 
REMARK       I    between atoms: C_6  and  N_8 
REMARK    2  A    between atoms: N_8  and  C_9 
ROOT
HETATM    1  N   UNL     1     -41.796 -53.913  12.905  1.00  0.00    -0.293 N 
HETATM    2  C   UNL     1     -41.140 -52.720  12.773  1.00  0.00     0.322 C 
HETATM    3  O   UNL     1     -39.912 -52.688  12.811  1.00  0.00    -0.247 OA
HETATM    4  N   UNL     1     -41.919 -51.610  12.673  1.00  0.00    -0.338 N 
HETATM    5  H   UNL     1     -41.186 -54.704  13.050  1.00  0.00     0.172 HD
HETATM    6  H   UNL     1     -42.919 -51.768  12.601  1.00  0.00     0.164 HD
ENDROOT
BRANCH   4   7
HETATM    7  C   UNL     1     -41.450 -50.254  12.878  1.00  0.00     0.091 C 
HETATM    8  C   UNL     1     -41.549 -49.423  11.603  1.00  0.00     0.066 C 
HETATM    9  C   UNL     1     -41.091 -47.971  11.834  1.00  0.00     0.153 C 
HETATM   10  C   UNL     1     -39.558 -47.876  11.937  1.00  0.00     0.048 C 
HETATM   11  C   UNL     1     -41.505 -47.135  10.602  1.00  0.00     0.048 C 
HETATM   12  N   UNL     1     -41.758 -47.359  13.003  1.00  0.00     0.101 N 
HETATM   13  C   UNL     1     -41.811 -48.144  14.253  1.00  0.00     0.153 C 
HETATM   14  H   UNL     1     -42.717 -47.132  12.732  1.00  0.00     0.317 HD
HETATM   15  C   UNL     1     -40.477 -48.125  15.019  1.00  0.00     0.048 C 
HETATM   16  C   UNL     1     -42.851 -47.453  15.166  1.00  0.00     0.048 C 
HETATM   17  C   UNL     1     -42.277 -49.583  13.980  1.00  0.00     0.066 C 
ENDBRANCH   4   7
BRANCH   1  18
HETATM   18  C   UNL     1     -43.155 -54.097  13.070  1.00  0.00     0.132 A 
HETATM   19  C   UNL     1     -43.781 -54.463  14.284  1.00  0.00     0.084 A 
HETATM   20  C   UNL     1     -45.125 -54.417  14.003  1.00  0.00     0.076 A 
HETATM   21  C   UNL     1     -46.362 -54.588  14.781  1.00  0.00     0.079 C 
HETATM   22  O   UNL     1     -45.296 -54.108  12.695  1.00  0.00    -0.241 OA
HETATM   23  N   UNL     1     -44.071 -53.911  12.111  1.00  0.00    -0.245 N 
ATOM     24  HN  UNL     1     -43.892 -53.669  11.136  1.00  0.00     0.196 HD
ENDBRANCH   1  18
TORSDOF 2
ENDMDL
