MODEL 1
REMARK VINA RESULT:      -5.5      0.000      0.000
REMARK  4 active torsions:
REMARK  status: ('A' for Active; 'I' for Inactive)
REMARK    1  A    between atoms: C_3  and  C_4 
REMARK    2  A    between atoms: C_4  and  C_5 
REMARK    3  A    between atoms: C_5  and  N_6 
REMARK    4  A    between atoms: N_6  and  C_7 
ROOT
HETATM    1  C   UNL     1     -45.367 -54.957  13.723  1.00  0.00     0.275 C 
ENDROOT
BRANCH   1   2
HETATM    2  C   UNL     1     -43.885 -54.924  14.126  1.00  0.00     0.072 C 
BRANCH   2   3
HETATM    3  C   UNL     1     -43.062 -53.923  13.369  1.00  0.00    -0.016 A 
HETATM    4  C   UNL     1     -41.777 -53.498  13.672  1.00  0.00     0.032 A 
HETATM    5  C   UNL     1     -40.866 -53.867  14.786  1.00  0.00     0.070 C 
HETATM    6  N   UNL     1     -41.439 -52.595  12.697  1.00  0.00    -0.301 N 
HETATM    7  N   UNL     1     -42.408 -52.404  11.786  1.00  0.00    -0.309 N 
HETATM    8  C   UNL     1     -40.197 -51.869  12.568  1.00  0.00     0.177 C 
HETATM    9  C   UNL     1     -43.390 -53.206  12.195  1.00  0.00     0.116 A 
ATOM     10  HN  UNL     1     -42.395 -51.789  10.972  1.00  0.00     0.186 HD
ENDBRANCH   2   3
ENDBRANCH   1   2
BRANCH   1  11
HETATM   11  N   UNL     1     -46.319 -54.752  14.823  1.00  0.00     0.088 N 
HETATM   12  H   UNL     1     -45.817 -54.890  15.698  1.00  0.00     0.316 HD
BRANCH  11  13
HETATM   13  C   UNL     1     -46.974 -53.448  14.830  1.00  0.00     0.225 C 
HETATM   14  C   UNL     1     -46.585 -52.472  13.694  1.00  0.00     0.040 C 
HETATM   15  C   UNL     1     -46.274 -51.162  14.443  1.00  0.00    -0.012 C 
HETATM   16  C   UNL     1     -44.897 -51.301  15.113  1.00  0.00     0.005 C 
HETATM   17  C   UNL     1     -47.208 -51.235  15.650  1.00  0.00     0.011 C 
HETATM   18  C   UNL     1     -45.170 -52.300  16.246  1.00  0.00     0.007 C 
HETATM   19  C   UNL     1     -46.674 -52.601  16.095  1.00  0.00     0.019 C 
ENDBRANCH  11  13
ENDBRANCH   1  11
TORSDOF 4
ENDMDL
MODEL 2
REMARK VINA RESULT:      -5.1      1.537      2.243
REMARK  4 active torsions:
REMARK  status: ('A' for Active; 'I' for Inactive)
REMARK    1  A    between atoms: C_3  and  C_4 
REMARK    2  A    between atoms: C_4  and  C_5 
REMARK    3  A    between atoms: C_5  and  N_6 
REMARK    4  A    between atoms: N_6  and  C_7 
ROOT
HETATM    1  C   UNL     1     -42.577 -53.929  14.742  1.00  0.00     0.275 C 
ENDROOT
BRANCH   1   2
HETATM    2  C   UNL     1     -41.599 -54.211  13.592  1.00  0.00     0.072 C 
BRANCH   2   3
HETATM    3  C   UNL     1     -41.087 -52.980  12.902  1.00  0.00    -0.016 A 
HETATM    4  C   UNL     1     -39.967 -52.237  13.242  1.00  0.00     0.032 A 
HETATM    5  C   UNL     1     -38.984 -52.405  14.343  1.00  0.00     0.070 C 
HETATM    6  N   UNL     1     -39.896 -51.220  12.325  1.00  0.00    -0.301 N 
HETATM    7  N   UNL     1     -40.886 -51.251  11.416  1.00  0.00    -0.309 N 
HETATM    8  C   UNL     1     -38.902 -50.175  12.250  1.00  0.00     0.177 C 
HETATM    9  C   UNL     1     -41.607 -52.314  11.768  1.00  0.00     0.116 A 
ATOM     10  HN  UNL     1     -41.047 -50.611  10.639  1.00  0.00     0.186 HD
ENDBRANCH   2   3
ENDBRANCH   1   2
BRANCH   1  11
HETATM   11  N   UNL     1     -44.000 -54.067  14.401  1.00  0.00     0.088 N 
HETATM   12  H   UNL     1     -44.261 -55.041  14.547  1.00  0.00     0.316 HD
BRANCH  11  13
HETATM   13  C   UNL     1     -44.896 -53.197  15.156  1.00  0.00     0.225 C 
HETATM   14  C   UNL     1     -46.411 -53.361  14.887  1.00  0.00     0.040 C 
HETATM   15  C   UNL     1     -46.888 -51.915  14.653  1.00  0.00    -0.012 C 
HETATM   16  C   UNL     1     -46.448 -51.480  13.247  1.00  0.00     0.005 C 
HETATM   17  C   UNL     1     -45.942 -51.102  15.534  1.00  0.00     0.011 C 
HETATM   18  C   UNL     1     -44.927 -51.329  13.398  1.00  0.00     0.007 C 
HETATM   19  C   UNL     1     -44.685 -51.685  14.878  1.00  0.00     0.019 C 
ENDBRANCH  11  13
ENDBRANCH   1  11
TORSDOF 4
ENDMDL
MODEL 3
REMARK VINA RESULT:      -4.9      1.607      2.624
REMARK  4 active torsions:
REMARK  status: ('A' for Active; 'I' for Inactive)
REMARK    1  A    between atoms: C_3  and  C_4 
REMARK    2  A    between atoms: C_4  and  C_5 
REMARK    3  A    between atoms: C_5  and  N_6 
REMARK    4  A    between atoms: N_6  and  C_7 
ROOT
HETATM    1  C   UNL     1     -43.249 -54.312  14.576  1.00  0.00     0.275 C 
ENDROOT
BRANCH   1   2
HETATM    2  C   UNL     1     -42.455 -54.114  13.276  1.00  0.00     0.072 C 
BRANCH   2   3
HETATM    3  C   UNL     1     -41.110 -53.477  13.467  1.00  0.00    -0.016 A 
HETATM    4  C   UNL     1     -40.698 -52.239  12.995  1.00  0.00     0.032 A 
HETATM    5  C   UNL     1     -41.412 -51.218  12.186  1.00  0.00     0.070 C 
HETATM    6  N   UNL     1     -39.405 -52.083  13.425  1.00  0.00    -0.301 N 
HETATM    7  N   UNL     1     -38.950 -53.126  14.140  1.00  0.00    -0.309 N 
HETATM    8  C   UNL     1     -38.535 -50.955  13.191  1.00  0.00     0.177 C 
HETATM    9  C   UNL     1     -39.982 -53.969  14.162  1.00  0.00     0.116 A 
ATOM     10  HN  UNL     1     -38.031 -53.245  14.565  1.00  0.00     0.186 HD
ENDBRANCH   2   3
ENDBRANCH   1   2
BRANCH   1  11
HETATM   11  N   UNL     1     -43.472 -53.093  15.366  1.00  0.00     0.088 N 
HETATM   12  H   UNL     1     -42.964 -52.334  14.914  1.00  0.00     0.316 HD
BRANCH  11  13
HETATM   13  C   UNL     1     -44.873 -52.720  15.533  1.00  0.00     0.225 C 
HETATM   14  C   UNL     1     -45.916 -53.607  14.813  1.00  0.00     0.040 C 
HETATM   15  C   UNL     1     -46.808 -52.585  14.084  1.00  0.00    -0.012 C 
HETATM   16  C   UNL     1     -46.049 -52.070  12.850  1.00  0.00     0.005 C 
HETATM   17  C   UNL     1     -46.749 -51.369  15.007  1.00  0.00     0.011 C 
HETATM   18  C   UNL     1     -44.946 -51.199  13.469  1.00  0.00     0.007 C 
HETATM   19  C   UNL     1     -45.218 -51.311  14.982  1.00  0.00     0.019 C 
ENDBRANCH  11  13
ENDBRANCH   1  11
TORSDOF 4
ENDMDL
MODEL 4
REMARK VINA RESULT:      -4.9      2.740      4.140
REMARK  4 active torsions:
REMARK  status: ('A' for Active; 'I' for Inactive)
REMARK    1  A    between atoms: C_3  and  C_4 
REMARK    2  A    between atoms: C_4  and  C_5 
REMARK    3  A    between atoms: C_5  and  N_6 
REMARK    4  A    between atoms: N_6  and  C_7 
ROOT
HETATM    1  C   UNL     1     -41.814 -51.984  13.560  1.00  0.00     0.275 C 
ENDROOT
BRANCH   1   2
HETATM    2  C   UNL     1     -41.726 -51.613  12.072  1.00  0.00     0.072 C 
BRANCH   2   3
HETATM    3  C   UNL     1     -41.036 -50.308  11.802  1.00  0.00    -0.016 A 
HETATM    4  C   UNL     1     -41.612 -49.047  11.790  1.00  0.00     0.032 A 
HETATM    5  C   UNL     1     -43.015 -48.614  12.015  1.00  0.00     0.070 C 
HETATM    6  N   UNL     1     -40.595 -48.170  11.510  1.00  0.00    -0.301 N 
HETATM    7  N   UNL     1     -39.405 -48.770  11.339  1.00  0.00    -0.309 N 
HETATM    8  C   UNL     1     -40.685 -46.734  11.389  1.00  0.00     0.177 C 
HETATM    9  C   UNL     1     -39.674 -50.064  11.514  1.00  0.00     0.116 A 
ATOM     10  HN  UNL     1     -38.506 -48.338  11.127  1.00  0.00     0.186 HD
ENDBRANCH   2   3
ENDBRANCH   1   2
BRANCH   1  11
HETATM   11  N   UNL     1     -43.119 -52.496  14.001  1.00  0.00     0.088 N 
HETATM   12  H   UNL     1     -43.135 -52.469  15.019  1.00  0.00     0.316 HD
BRANCH  11  13
HETATM   13  C   UNL     1     -44.270 -51.771  13.470  1.00  0.00     0.225 C 
HETATM   14  C   UNL     1     -45.140 -51.007  14.495  1.00  0.00     0.040 C 
HETATM   15  C   UNL     1     -46.573 -51.454  14.147  1.00  0.00    -0.012 C 
HETATM   16  C   UNL     1     -46.781 -52.879  14.682  1.00  0.00     0.005 C 
HETATM   17  C   UNL     1     -46.491 -51.702  12.642  1.00  0.00     0.011 C 
HETATM   18  C   UNL     1     -45.909 -53.725  13.743  1.00  0.00     0.007 C 
HETATM   19  C   UNL     1     -45.319 -52.680  12.776  1.00  0.00     0.019 C 
ENDBRANCH  11  13
ENDBRANCH   1  11
TORSDOF 4
ENDMDL
MODEL 5
REMARK VINA RESULT:      -4.6      2.272      6.370
REMARK  4 active torsions:
REMARK  status: ('A' for Active; 'I' for Inactive)
REMARK    1  A    between atoms: C_3  and  C_4 
REMARK    2  A    between atoms: C_4  and  C_5 
REMARK    3  A    between atoms: C_5  and  N_6 
REMARK    4  A    between atoms: N_6  and  C_7 
ROOT
HETATM    1  C   UNL     1     -40.448 -53.029  14.274  1.00  0.00     0.275 C 
ENDROOT
BRANCH   1   2
HETATM    2  C   UNL     1     -41.136 -53.828  13.157  1.00  0.00     0.072 C 
BRANCH   2   3
HETATM    3  C   UNL     1     -42.635 -53.800  13.214  1.00  0.00    -0.016 A 
HETATM    4  C   UNL     1     -43.450 -54.473  14.113  1.00  0.00     0.032 A 
HETATM    5  C   UNL     1     -43.115 -55.391  15.232  1.00  0.00     0.070 C 
HETATM    6  N   UNL     1     -44.737 -54.135  13.783  1.00  0.00    -0.301 N 
HETATM    7  N   UNL     1     -44.817 -53.293  12.737  1.00  0.00    -0.309 N 
HETATM    8  C   UNL     1     -45.952 -54.577  14.426  1.00  0.00     0.177 C 
HETATM    9  C   UNL     1     -43.545 -53.095  12.393  1.00  0.00     0.116 A 
ATOM     10  HN  UNL     1     -45.654 -52.899  12.309  1.00  0.00     0.186 HD
ENDBRANCH   2   3
ENDBRANCH   1   2
BRANCH   1  11
HETATM   11  N   UNL     1     -39.112 -52.515  13.944  1.00  0.00     0.088 N 
HETATM   12  H   UNL     1     -38.896 -52.802  12.991  1.00  0.00     0.316 HD
BRANCH  11  13
HETATM   13  C   UNL     1     -38.966 -51.068  14.070  1.00  0.00     0.225 C 
HETATM   14  C   UNL     1     -39.875 -50.200  13.169  1.00  0.00     0.040 C 
HETATM   15  C   UNL     1     -38.891 -49.200  12.532  1.00  0.00    -0.012 C 
HETATM   16  C   UNL     1     -38.101 -49.929  11.433  1.00  0.00     0.005 C 
HETATM   17  C   UNL     1     -37.826 -49.039  13.616  1.00  0.00     0.011 C 
HETATM   18  C   UNL     1     -37.185 -50.863  12.236  1.00  0.00     0.007 C 
HETATM   19  C   UNL     1     -37.553 -50.545  13.699  1.00  0.00     0.019 C 
ENDBRANCH  11  13
ENDBRANCH   1  11
TORSDOF 4
ENDMDL
MODEL 6
REMARK VINA RESULT:      -4.5      3.389      6.145
REMARK  4 active torsions:
REMARK  status: ('A' for Active; 'I' for Inactive)
REMARK    1  A    between atoms: C_3  and  C_4 
REMARK    2  A    between atoms: C_4  and  C_5 
REMARK    3  A    between atoms: C_5  and  N_6 
REMARK    4  A    between atoms: N_6  and  C_7 
ROOT
HETATM    1  C   UNL     1     -42.105 -50.727  12.815  1.00  0.00     0.275 C 
ENDROOT
BRANCH   1   2
HETATM    2  C   UNL     1     -43.609 -50.696  13.122  1.00  0.00     0.072 C 
BRANCH   2   3
HETATM    3  C   UNL     1     -44.218 -52.047  13.360  1.00  0.00    -0.016 A 
HETATM    4  C   UNL     1     -45.338 -52.334  14.125  1.00  0.00     0.032 A 
HETATM    5  C   UNL     1     -46.230 -51.450  14.918  1.00  0.00     0.070 C 
HETATM    6  N   UNL     1     -45.517 -53.691  14.037  1.00  0.00    -0.301 N 
HETATM    7  N   UNL     1     -44.597 -54.303  13.271  1.00  0.00    -0.309 N 
HETATM    8  C   UNL     1     -46.554 -54.481  14.660  1.00  0.00     0.177 C 
HETATM    9  C   UNL     1     -43.811 -53.307  12.865  1.00  0.00     0.116 A 
ATOM     10  HN  UNL     1     -44.519 -55.295  13.053  1.00  0.00     0.186 HD
ENDBRANCH   2   3
ENDBRANCH   1   2
BRANCH   1  11
HETATM   11  N   UNL     1     -41.737 -50.339  11.446  1.00  0.00     0.088 N 
HETATM   12  H   UNL     1     -42.586 -50.348  10.882  1.00  0.00     0.316 HD
BRANCH  11  13
HETATM   13  C   UNL     1     -41.085 -49.038  11.335  1.00  0.00     0.225 C 
HETATM   14  C   UNL     1     -40.922 -48.231  12.644  1.00  0.00     0.040 C 
HETATM   15  C   UNL     1     -41.456 -46.835  12.268  1.00  0.00    -0.012 C 
HETATM   16  C   UNL     1     -42.991 -46.897  12.223  1.00  0.00     0.005 C 
HETATM   17  C   UNL     1     -41.111 -46.731  10.784  1.00  0.00     0.011 C 
HETATM   18  C   UNL     1     -43.260 -47.730  10.961  1.00  0.00     0.007 C 
HETATM   19  C   UNL     1     -41.844 -48.030  10.430  1.00  0.00     0.019 C 
ENDBRANCH  11  13
ENDBRANCH   1  11
TORSDOF 4
ENDMDL
MODEL 7
REMARK VINA RESULT:      -4.5      3.074      6.403
REMARK  4 active torsions:
REMARK  status: ('A' for Active; 'I' for Inactive)
REMARK    1  A    between atoms: C_3  and  C_4 
REMARK    2  A    between atoms: C_4  and  C_5 
REMARK    3  A    between atoms: C_5  and  N_6 
REMARK    4  A    between atoms: N_6  and  C_7 
ROOT
HETATM    1  C   UNL     1     -41.355 -51.589  12.252  1.00  0.00     0.275 C 
ENDROOT
BRANCH   1   2
HETATM    2  C   UNL     1     -40.868 -53.042  12.150  1.00  0.00     0.072 C 
BRANCH   2   3
HETATM    3  C   UNL     1     -40.896 -53.795  13.448  1.00  0.00    -0.016 A 
HETATM    4  C   UNL     1     -42.016 -54.276  14.109  1.00  0.00     0.032 A 
HETATM    5  C   UNL     1     -43.460 -54.191  13.769  1.00  0.00     0.070 C 
HETATM    6  N   UNL     1     -41.550 -54.900  15.237  1.00  0.00    -0.301 N 
HETATM    7  N   UNL     1     -40.211 -54.859  15.355  1.00  0.00    -0.309 N 
HETATM    8  C   UNL     1     -42.327 -55.564  16.257  1.00  0.00     0.177 C 
HETATM    9  C   UNL     1     -39.818 -54.188  14.273  1.00  0.00     0.116 A 
ATOM     10  HN  UNL     1     -39.633 -55.250  16.098  1.00  0.00     0.186 HD
ENDBRANCH   2   3
ENDBRANCH   1   2
BRANCH   1  11
HETATM   11  N   UNL     1     -40.929 -50.870  13.460  1.00  0.00     0.088 N 
HETATM   12  H   UNL     1     -40.491 -51.545  14.085  1.00  0.00     0.316 HD
BRANCH  11  13
HETATM   13  C   UNL     1     -40.016 -49.757  13.218  1.00  0.00     0.225 C 
HETATM   14  C   UNL     1     -39.571 -49.532  11.754  1.00  0.00     0.040 C 
HETATM   15  C   UNL     1     -38.039 -49.407  11.865  1.00  0.00    -0.012 C 
HETATM   16  C   UNL     1     -37.451 -50.811  12.075  1.00  0.00     0.005 C 
HETATM   17  C   UNL     1     -37.852 -48.788  13.249  1.00  0.00     0.011 C 
HETATM   18  C   UNL     1     -37.882 -51.150  13.510  1.00  0.00     0.007 C 
HETATM   19  C   UNL     1     -38.654 -49.890  13.950  1.00  0.00     0.019 C 
ENDBRANCH  11  13
ENDBRANCH   1  11
TORSDOF 4
ENDMDL
MODEL 8
REMARK VINA RESULT:      -4.4      2.174      3.658
REMARK  4 active torsions:
REMARK  status: ('A' for Active; 'I' for Inactive)
REMARK    1  A    between atoms: C_3  and  C_4 
REMARK    2  A    between atoms: C_4  and  C_5 
REMARK    3  A    between atoms: C_5  and  N_6 
REMARK    4  A    between atoms: N_6  and  C_7 
ROOT
HETATM    1  C   UNL     1     -43.664 -50.613  14.693  1.00  0.00     0.275 C 
ENDROOT
BRANCH   1   2
HETATM    2  C   UNL     1     -43.433 -50.103  13.262  1.00  0.00     0.072 C 
BRANCH   2   3
HETATM    3  C   UNL     1     -42.081 -50.432  12.701  1.00  0.00    -0.016 A 
HETATM    4  C   UNL     1     -40.980 -49.592  12.628  1.00  0.00     0.032 A 
HETATM    5  C   UNL     1     -40.804 -48.177  13.045  1.00  0.00     0.070 C 
HETATM    6  N   UNL     1     -39.979 -50.331  12.053  1.00  0.00    -0.301 N 
HETATM    7  N   UNL     1     -40.349 -51.587  11.749  1.00  0.00    -0.309 N 
HETATM    8  C   UNL     1     -38.630 -49.904  11.762  1.00  0.00     0.177 C 
HETATM    9  C   UNL     1     -41.622 -51.645  12.139  1.00  0.00     0.116 A 
ATOM     10  HN  UNL     1     -39.787 -52.323  11.321  1.00  0.00     0.186 HD
ENDBRANCH   2   3
ENDBRANCH   1   2
BRANCH   1  11
HETATM   11  N   UNL     1     -45.038 -51.041  14.990  1.00  0.00     0.088 N 
HETATM   12  H   UNL     1     -45.641 -50.681  14.253  1.00  0.00     0.316 HD
BRANCH  11  13
HETATM   13  C   UNL     1     -45.215 -52.484  15.114  1.00  0.00     0.225 C 
HETATM   14  C   UNL     1     -43.953 -53.356  14.911  1.00  0.00     0.040 C 
HETATM   15  C   UNL     1     -44.422 -54.430  13.910  1.00  0.00    -0.012 C 
HETATM   16  C   UNL     1     -44.492 -53.794  12.513  1.00  0.00     0.005 C 
HETATM   17  C   UNL     1     -45.903 -54.583  14.250  1.00  0.00     0.011 C 
HETATM   18  C   UNL     1     -45.707 -52.862  12.625  1.00  0.00     0.007 C 
HETATM   19  C   UNL     1     -46.192 -53.089  14.070  1.00  0.00     0.019 C 
ENDBRANCH  11  13
ENDBRANCH   1  11
TORSDOF 4
ENDMDL
MODEL 9
REMARK VINA RESULT:      -4.4      2.299      5.288
REMARK  4 active torsions:
REMARK  status: ('A' for Active; 'I' for Inactive)
REMARK    1  A    between atoms: C_3  and  C_4 
REMARK    2  A    between atoms: C_4  and  C_5 
REMARK    3  A    between atoms: C_5  and  N_6 
REMARK    4  A    between atoms: N_6  and  C_7 
ROOT
HETATM    1  C   UNL     1     -42.937 -54.835  16.098  1.00  0.00     0.275 C 
ENDROOT
BRANCH   1   2
HETATM    2  C   UNL     1     -43.550 -55.296  14.767  1.00  0.00     0.072 C 
BRANCH   2   3
HETATM    3  C   UNL     1     -44.718 -54.472  14.309  1.00  0.00    -0.016 A 
HETATM    4  C   UNL     1     -44.717 -53.500  13.320  1.00  0.00     0.032 A 
HETATM    5  C   UNL     1     -43.620 -52.987  12.460  1.00  0.00     0.070 C 
HETATM    6  N   UNL     1     -46.005 -53.034  13.247  1.00  0.00    -0.301 N 
HETATM    7  N   UNL     1     -46.839 -53.632  14.115  1.00  0.00    -0.309 N 
HETATM    8  C   UNL     1     -46.518 -52.012  12.366  1.00  0.00     0.177 C 
HETATM    9  C   UNL     1     -46.058 -54.499  14.759  1.00  0.00     0.116 A 
ATOM     10  HN  UNL     1     -47.835 -53.462  14.250  1.00  0.00     0.186 HD
ENDBRANCH   2   3
ENDBRANCH   1   2
BRANCH   1  11
HETATM   11  N   UNL     1     -41.491 -55.064  16.233  1.00  0.00     0.088 N 
HETATM   12  H   UNL     1     -41.199 -55.666  15.465  1.00  0.00     0.316 HD
BRANCH  11  13
HETATM   13  C   UNL     1     -40.680 -53.851  16.246  1.00  0.00     0.225 C 
HETATM   14  C   UNL     1     -41.295 -52.599  15.577  1.00  0.00     0.040 C 
HETATM   15  C   UNL     1     -40.166 -52.099  14.655  1.00  0.00    -0.012 C 
HETATM   16  C   UNL     1     -40.104 -53.015  13.423  1.00  0.00     0.005 C 
HETATM   17  C   UNL     1     -38.905 -52.518  15.409  1.00  0.00     0.011 C 
HETATM   18  C   UNL     1     -39.538 -54.322  13.998  1.00  0.00     0.007 C 
HETATM   19  C   UNL     1     -39.332 -53.988  15.489  1.00  0.00     0.019 C 
ENDBRANCH  11  13
ENDBRANCH   1  11
TORSDOF 4
ENDMDL
