MODEL 1
REMARK VINA RESULT:      -6.7      0.000      0.000
REMARK  5 active torsions:
REMARK  status: ('A' for Active; 'I' for Inactive)
REMARK    1  A    between atoms: O_2  and  C_3 
REMARK    2  A    between atoms: C_3  and  C_4 
REMARK    3  A    between atoms: C_4  and  N_5 
REMARK    4  A    between atoms: C_8  and  N_9 
REMARK       I    between atoms: N_9  and  C_10 
REMARK       I    between atoms: C_10  and  N_12 
REMARK    5  A    between atoms: N_12  and  C_13 
ROOT
HETATM    1  N   UNL     1     -40.278 -50.941  11.281  1.00  0.00    -0.294 N 
HETATM    2  C   UNL     1     -40.907 -51.891  12.036  1.00  0.00     0.322 C 
HETATM    3  O   UNL     1     -40.484 -53.045  12.043  1.00  0.00    -0.247 OA
HETATM    4  N   UNL     1     -41.996 -51.483  12.748  1.00  0.00    -0.338 N 
HETATM    5  H   UNL     1     -39.491 -51.280  10.747  1.00  0.00     0.172 HD
HETATM    6  H   UNL     1     -42.109 -50.470  12.781  1.00  0.00     0.164 HD
ENDROOT
BRANCH   1   7
HETATM    7  C   UNL     1     -40.588 -49.600  11.195  1.00  0.00     0.125 A 
HETATM    8  C   UNL     1     -39.989 -48.571  11.957  1.00  0.00     0.069 A 
HETATM    9  C   UNL     1     -40.605 -47.411  11.544  1.00  0.00     0.114 A 
HETATM   10  N   UNL     1     -41.497 -47.784  10.583  1.00  0.00    -0.300 N 
HETATM   11  N   UNL     1     -41.522 -49.106  10.376  1.00  0.00    -0.283 N 
ATOM     12  HN  UNL     1     -42.122 -49.624   9.734  1.00  0.00     0.188 HD
BRANCH  10  13
HETATM   13  C   UNL     1     -42.380 -46.937   9.812  1.00  0.00     0.174 C 
BRANCH  13  14
HETATM   14  C   UNL     1     -43.821 -47.422   9.838  1.00  0.00     0.188 C 
BRANCH  14  15
HETATM   15  O   UNL     1     -44.367 -47.310   8.523  1.00  0.00    -0.394 OA
HETATM   16  C   UNL     1     -43.543 -47.951   7.558  1.00  0.00     0.201 C 
ENDBRANCH  14  15
ENDBRANCH  13  14
ENDBRANCH  10  13
ENDBRANCH   1   7
BRANCH   4  17
HETATM   17  C   UNL     1     -42.671 -52.294  13.744  1.00  0.00     0.086 C 
HETATM   18  C   UNL     1     -43.397 -53.475  13.085  1.00  0.00     0.026 C 
HETATM   19  C   UNL     1     -44.698 -53.088  12.369  1.00  0.00     0.011 C 
HETATM   20  C   UNL     1     -45.648 -52.217  13.221  1.00  0.00    -0.048 C 
HETATM   21  C   UNL     1     -46.789 -51.695  12.327  1.00  0.00     0.015 C 
HETATM   22  C   UNL     1     -46.281 -53.047  14.356  1.00  0.00     0.015 C 
HETATM   23  C   UNL     1     -44.871 -51.017  13.802  1.00  0.00     0.011 C 
HETATM   24  C   UNL     1     -43.623 -51.436  14.583  1.00  0.00     0.026 C 
ENDBRANCH   4  17
TORSDOF 5
ENDMDL
MODEL 2
REMARK VINA RESULT:      -6.3      1.513      2.020
REMARK  5 active torsions:
REMARK  status: ('A' for Active; 'I' for Inactive)
REMARK    1  A    between atoms: O_2  and  C_3 
REMARK    2  A    between atoms: C_3  and  C_4 
REMARK    3  A    between atoms: C_4  and  N_5 
REMARK    4  A    between atoms: C_8  and  N_9 
REMARK       I    between atoms: N_9  and  C_10 
REMARK       I    between atoms: C_10  and  N_12 
REMARK    5  A    between atoms: N_12  and  C_13 
ROOT
HETATM    1  N   UNL     1     -40.893 -50.831  11.546  1.00  0.00    -0.294 N 
HETATM    2  C   UNL     1     -41.337 -52.064  11.938  1.00  0.00     0.322 C 
HETATM    3  O   UNL     1     -40.577 -53.028  11.900  1.00  0.00    -0.247 OA
HETATM    4  N   UNL     1     -42.634 -52.141  12.352  1.00  0.00    -0.338 N 
HETATM    5  H   UNL     1     -39.937 -50.812  11.223  1.00  0.00     0.172 HD
HETATM    6  H   UNL     1     -43.074 -51.233  12.498  1.00  0.00     0.164 HD
ENDROOT
BRANCH   1   7
HETATM    7  C   UNL     1     -41.591 -49.643  11.569  1.00  0.00     0.125 A 
HETATM    8  C   UNL     1     -42.130 -49.032  12.725  1.00  0.00     0.069 A 
HETATM    9  C   UNL     1     -42.737 -47.882  12.276  1.00  0.00     0.114 A 
HETATM   10  N   UNL     1     -42.530 -47.852  10.929  1.00  0.00    -0.300 N 
HETATM   11  N   UNL     1     -41.863 -48.921  10.478  1.00  0.00    -0.283 N 
ATOM     12  HN  UNL     1     -41.615 -49.138   9.512  1.00  0.00     0.188 HD
BRANCH  10  13
HETATM   13  C   UNL     1     -42.946 -46.837   9.987  1.00  0.00     0.174 C 
BRANCH  13  14
HETATM   14  C   UNL     1     -42.533 -45.439  10.417  1.00  0.00     0.188 C 
BRANCH  14  15
HETATM   15  O   UNL     1     -41.256 -45.142   9.849  1.00  0.00    -0.394 OA
HETATM   16  C   UNL     1     -40.243 -45.081  10.845  1.00  0.00     0.201 C 
ENDBRANCH  14  15
ENDBRANCH  13  14
ENDBRANCH  10  13
ENDBRANCH   1   7
BRANCH   4  17
HETATM   17  C   UNL     1     -43.222 -53.311  12.978  1.00  0.00     0.086 C 
HETATM   18  C   UNL     1     -44.583 -53.639  12.350  1.00  0.00     0.026 C 
HETATM   19  C   UNL     1     -45.717 -52.705  12.790  1.00  0.00     0.011 C 
HETATM   20  C   UNL     1     -45.811 -52.509  14.320  1.00  0.00    -0.048 C 
HETATM   21  C   UNL     1     -46.812 -51.378  14.622  1.00  0.00     0.015 C 
HETATM   22  C   UNL     1     -46.326 -53.790  15.006  1.00  0.00     0.015 C 
HETATM   23  C   UNL     1     -44.426 -52.121  14.878  1.00  0.00     0.011 C 
HETATM   24  C   UNL     1     -43.327 -53.115  14.494  1.00  0.00     0.026 C 
ENDBRANCH   4  17
TORSDOF 5
ENDMDL
MODEL 3
REMARK VINA RESULT:      -5.9      1.800      2.272
REMARK  5 active torsions:
REMARK  status: ('A' for Active; 'I' for Inactive)
REMARK    1  A    between atoms: O_2  and  C_3 
REMARK    2  A    between atoms: C_3  and  C_4 
REMARK    3  A    between atoms: C_4  and  N_5 
REMARK    4  A    between atoms: C_8  and  N_9 
REMARK       I    between atoms: N_9  and  C_10 
REMARK       I    between atoms: C_10  and  N_12 
REMARK    5  A    between atoms: N_12  and  C_13 
ROOT
HETATM    1  N   UNL     1     -38.936 -49.853  11.765  1.00  0.00    -0.294 N 
HETATM    2  C   UNL     1     -38.954 -50.959  12.569  1.00  0.00     0.322 C 
HETATM    3  O   UNL     1     -37.933 -51.628  12.712  1.00  0.00    -0.247 OA
HETATM    4  N   UNL     1     -40.140 -51.255  13.172  1.00  0.00    -0.338 N 
HETATM    5  H   UNL     1     -38.051 -49.674  11.315  1.00  0.00     0.172 HD
HETATM    6  H   UNL     1     -40.834 -50.512  13.102  1.00  0.00     0.164 HD
ENDROOT
BRANCH   1   7
HETATM    7  C   UNL     1     -39.969 -48.970  11.533  1.00  0.00     0.125 A 
HETATM    8  C   UNL     1     -40.265 -47.831  12.317  1.00  0.00     0.069 A 
HETATM    9  C   UNL     1     -41.367 -47.260  11.722  1.00  0.00     0.114 A 
HETATM   10  N   UNL     1     -41.657 -48.043  10.645  1.00  0.00    -0.300 N 
HETATM   11  N   UNL     1     -40.841 -49.097  10.528  1.00  0.00    -0.283 N 
ATOM     12  HN  UNL     1     -40.876 -49.837   9.826  1.00  0.00     0.188 HD
BRANCH  10  13
HETATM   13  C   UNL     1     -42.712 -47.862   9.672  1.00  0.00     0.174 C 
BRANCH  13  14
HETATM   14  C   UNL     1     -43.394 -46.510   9.798  1.00  0.00     0.188 C 
BRANCH  14  15
HETATM   15  O   UNL     1     -44.379 -46.395   8.769  1.00  0.00    -0.394 OA
HETATM   16  C   UNL     1     -45.544 -47.152   9.073  1.00  0.00     0.201 C 
ENDBRANCH  14  15
ENDBRANCH  13  14
ENDBRANCH  10  13
ENDBRANCH   1   7
BRANCH   4  17
HETATM   17  C   UNL     1     -40.302 -52.267  14.200  1.00  0.00     0.086 C 
HETATM   18  C   UNL     1     -40.282 -53.675  13.586  1.00  0.00     0.026 C 
HETATM   19  C   UNL     1     -41.576 -54.058  12.858  1.00  0.00     0.011 C 
HETATM   20  C   UNL     1     -42.860 -53.795  13.677  1.00  0.00    -0.048 C 
HETATM   21  C   UNL     1     -44.086 -53.985  12.765  1.00  0.00     0.015 C 
HETATM   22  C   UNL     1     -42.980 -54.796  14.844  1.00  0.00     0.015 C 
HETATM   23  C   UNL     1     -42.846 -52.348  14.211  1.00  0.00     0.011 C 
HETATM   24  C   UNL     1     -41.581 -52.017  15.007  1.00  0.00     0.026 C 
ENDBRANCH   4  17
TORSDOF 5
ENDMDL
MODEL 4
REMARK VINA RESULT:      -5.6      3.951      5.231
REMARK  5 active torsions:
REMARK  status: ('A' for Active; 'I' for Inactive)
REMARK    1  A    between atoms: O_2  and  C_3 
REMARK    2  A    between atoms: C_3  and  C_4 
REMARK    3  A    between atoms: C_4  and  N_5 
REMARK    4  A    between atoms: C_8  and  N_9 
REMARK       I    between atoms: N_9  and  C_10 
REMARK       I    between atoms: C_10  and  N_12 
REMARK    5  A    between atoms: N_12  and  C_13 
ROOT
HETATM    1  N   UNL     1     -42.598 -53.937  12.805  1.00  0.00    -0.294 N 
HETATM    2  C   UNL     1     -43.930 -53.985  13.110  1.00  0.00     0.322 C 
HETATM    3  O   UNL     1     -44.729 -54.437  12.293  1.00  0.00    -0.247 OA
HETATM    4  N   UNL     1     -44.293 -53.509  14.335  1.00  0.00    -0.338 N 
HETATM    5  H   UNL     1     -42.365 -54.274  11.882  1.00  0.00     0.172 HD
HETATM    6  H   UNL     1     -43.505 -53.340  14.960  1.00  0.00     0.164 HD
ENDROOT
BRANCH   1   7
HETATM    7  C   UNL     1     -41.568 -53.508  13.615  1.00  0.00     0.125 A 
HETATM    8  C   UNL     1     -40.928 -54.286  14.607  1.00  0.00     0.069 A 
HETATM    9  C   UNL     1     -39.979 -53.458  15.160  1.00  0.00     0.114 A 
HETATM   10  N   UNL     1     -40.080 -52.275  14.489  1.00  0.00    -0.300 N 
HETATM   11  N   UNL     1     -41.053 -52.276  13.570  1.00  0.00    -0.283 N 
ATOM     12  HN  UNL     1     -41.340 -51.504  12.967  1.00  0.00     0.188 HD
BRANCH  10  13
HETATM   13  C   UNL     1     -39.288 -51.079  14.670  1.00  0.00     0.174 C 
BRANCH  13  14
HETATM   14  C   UNL     1     -39.070 -50.323  13.370  1.00  0.00     0.188 C 
BRANCH  14  15
HETATM   15  O   UNL     1     -38.474 -51.207  12.419  1.00  0.00    -0.394 OA
HETATM   16  C   UNL     1     -37.399 -50.584  11.727  1.00  0.00     0.201 C 
ENDBRANCH  14  15
ENDBRANCH  13  14
ENDBRANCH  10  13
ENDBRANCH   1   7
BRANCH   4  17
HETATM   17  C   UNL     1     -45.619 -53.651  14.906  1.00  0.00     0.086 C 
HETATM   18  C   UNL     1     -46.525 -52.489  14.475  1.00  0.00     0.026 C 
HETATM   19  C   UNL     1     -46.241 -51.170  15.204  1.00  0.00     0.011 C 
HETATM   20  C   UNL     1     -46.156 -51.308  16.741  1.00  0.00    -0.048 C 
HETATM   21  C   UNL     1     -45.631 -49.987  17.336  1.00  0.00     0.015 C 
HETATM   22  C   UNL     1     -47.549 -51.576  17.345  1.00  0.00     0.015 C 
HETATM   23  C   UNL     1     -45.184 -52.449  17.106  1.00  0.00     0.011 C 
HETATM   24  C   UNL     1     -45.540 -53.776  16.431  1.00  0.00     0.026 C 
ENDBRANCH   4  17
TORSDOF 5
ENDMDL
MODEL 5
REMARK VINA RESULT:      -5.6      2.307      3.552
REMARK  5 active torsions:
REMARK  status: ('A' for Active; 'I' for Inactive)
REMARK    1  A    between atoms: O_2  and  C_3 
REMARK    2  A    between atoms: C_3  and  C_4 
REMARK    3  A    between atoms: C_4  and  N_5 
REMARK    4  A    between atoms: C_8  and  N_9 
REMARK       I    between atoms: N_9  and  C_10 
REMARK       I    between atoms: C_10  and  N_12 
REMARK    5  A    between atoms: N_12  and  C_13 
ROOT
HETATM    1  N   UNL     1     -42.923 -52.819  12.087  1.00  0.00    -0.294 N 
HETATM    2  C   UNL     1     -44.140 -53.205  12.576  1.00  0.00     0.322 C 
HETATM    3  O   UNL     1     -44.673 -54.227  12.152  1.00  0.00    -0.247 OA
HETATM    4  N   UNL     1     -44.698 -52.403  13.527  1.00  0.00    -0.338 N 
HETATM    5  H   UNL     1     -42.548 -53.420  11.368  1.00  0.00     0.172 HD
HETATM    6  H   UNL     1     -44.058 -51.702  13.901  1.00  0.00     0.164 HD
ENDROOT
BRANCH   1   7
HETATM    7  C   UNL     1     -42.168 -51.735  12.482  1.00  0.00     0.125 A 
HETATM    8  C   UNL     1     -41.490 -51.616  13.717  1.00  0.00     0.069 A 
HETATM    9  C   UNL     1     -40.880 -50.383  13.677  1.00  0.00     0.114 A 
HETATM   10  N   UNL     1     -41.196 -49.850  12.462  1.00  0.00    -0.300 N 
HETATM   11  N   UNL     1     -41.996 -50.640  11.736  1.00  0.00    -0.283 N 
ATOM     12  HN  UNL     1     -42.390 -50.448  10.814  1.00  0.00     0.188 HD
BRANCH  10  13
HETATM   13  C   UNL     1     -40.783 -48.577  11.914  1.00  0.00     0.174 C 
BRANCH  13  14
HETATM   14  C   UNL     1     -41.936 -47.810  11.289  1.00  0.00     0.188 C 
BRANCH  14  15
HETATM   15  O   UNL     1     -42.038 -48.176   9.912  1.00  0.00    -0.394 OA
HETATM   16  C   UNL     1     -43.172 -47.578   9.295  1.00  0.00     0.201 C 
ENDBRANCH  14  15
ENDBRANCH  13  14
ENDBRANCH  10  13
ENDBRANCH   1   7
BRANCH   4  17
HETATM   17  C   UNL     1     -45.881 -52.747  14.293  1.00  0.00     0.086 C 
HETATM   18  C   UNL     1     -46.560 -51.485  14.844  1.00  0.00     0.026 C 
HETATM   19  C   UNL     1     -45.838 -50.860  16.045  1.00  0.00     0.011 C 
HETATM   20  C   UNL     1     -45.485 -51.869  17.160  1.00  0.00    -0.048 C 
HETATM   21  C   UNL     1     -44.561 -51.183  18.185  1.00  0.00     0.015 C 
HETATM   22  C   UNL     1     -46.755 -52.329  17.905  1.00  0.00     0.015 C 
HETATM   23  C   UNL     1     -44.752 -53.081  16.549  1.00  0.00     0.011 C 
HETATM   24  C   UNL     1     -45.533 -53.738  15.409  1.00  0.00     0.026 C 
ENDBRANCH   4  17
TORSDOF 5
ENDMDL
MODEL 6
REMARK VINA RESULT:      -5.6      2.868      6.432
REMARK  5 active torsions:
REMARK  status: ('A' for Active; 'I' for Inactive)
REMARK    1  A    between atoms: O_2  and  C_3 
REMARK    2  A    between atoms: C_3  and  C_4 
REMARK    3  A    between atoms: C_4  and  N_5 
REMARK    4  A    between atoms: C_8  and  N_9 
REMARK       I    between atoms: N_9  and  C_10 
REMARK       I    between atoms: C_10  and  N_12 
REMARK    5  A    between atoms: N_12  and  C_13 
ROOT
HETATM    1  N   UNL     1     -41.066 -51.656  11.254  1.00  0.00    -0.294 N 
HETATM    2  C   UNL     1     -40.571 -50.440  11.635  1.00  0.00     0.322 C 
HETATM    3  O   UNL     1     -40.112 -49.673  10.791  1.00  0.00    -0.247 OA
HETATM    4  N   UNL     1     -40.617 -50.153  12.967  1.00  0.00    -0.338 N 
HETATM    5  H   UNL     1     -40.995 -51.848  10.265  1.00  0.00     0.172 HD
HETATM    6  H   UNL     1     -41.186 -50.804  13.508  1.00  0.00     0.164 HD
ENDROOT
BRANCH   1   7
HETATM    7  C   UNL     1     -41.655 -52.609  12.056  1.00  0.00     0.125 A 
HETATM    8  C   UNL     1     -40.973 -53.442  12.974  1.00  0.00     0.069 A 
HETATM    9  C   UNL     1     -41.950 -54.229  13.541  1.00  0.00     0.114 A 
HETATM   10  N   UNL     1     -43.124 -53.835  12.971  1.00  0.00    -0.300 N 
HETATM   11  N   UNL     1     -42.964 -52.876  12.051  1.00  0.00    -0.283 N 
ATOM     12  HN  UNL     1     -43.684 -52.443  11.472  1.00  0.00     0.188 HD
BRANCH  10  13
HETATM   13  C   UNL     1     -44.455 -54.333  13.241  1.00  0.00     0.174 C 
BRANCH  13  14
HETATM   14  C   UNL     1     -45.480 -53.217  13.359  1.00  0.00     0.188 C 
BRANCH  14  15
HETATM   15  O   UNL     1     -45.972 -52.905  12.055  1.00  0.00    -0.394 OA
HETATM   16  C   UNL     1     -46.757 -51.719  12.062  1.00  0.00     0.201 C 
ENDBRANCH  14  15
ENDBRANCH  13  14
ENDBRANCH  10  13
ENDBRANCH   1   7
BRANCH   4  17
HETATM   17  C   UNL     1     -40.319 -48.850  13.533  1.00  0.00     0.086 C 
HETATM   18  C   UNL     1     -38.975 -48.324  13.010  1.00  0.00     0.026 C 
HETATM   19  C   UNL     1     -37.750 -48.995  13.645  1.00  0.00     0.011 C 
HETATM   20  C   UNL     1     -37.796 -49.053  15.189  1.00  0.00    -0.048 C 
HETATM   21  C   UNL     1     -36.651 -49.953  15.692  1.00  0.00     0.015 C 
HETATM   22  C   UNL     1     -37.595 -47.650  15.795  1.00  0.00     0.015 C 
HETATM   23  C   UNL     1     -39.145 -49.647  15.645  1.00  0.00     0.011 C 
HETATM   24  C   UNL     1     -40.351 -48.906  15.064  1.00  0.00     0.026 C 
ENDBRANCH   4  17
TORSDOF 5
ENDMDL
MODEL 7
REMARK VINA RESULT:      -5.4      4.592      6.918
REMARK  5 active torsions:
REMARK  status: ('A' for Active; 'I' for Inactive)
REMARK    1  A    between atoms: O_2  and  C_3 
REMARK    2  A    between atoms: C_3  and  C_4 
REMARK    3  A    between atoms: C_4  and  N_5 
REMARK    4  A    between atoms: C_8  and  N_9 
REMARK       I    between atoms: N_9  and  C_10 
REMARK       I    between atoms: C_10  and  N_12 
REMARK    5  A    between atoms: N_12  and  C_13 
ROOT
HETATM    1  N   UNL     1     -42.491 -54.051  12.912  1.00  0.00    -0.294 N 
HETATM    2  C   UNL     1     -43.843 -54.016  13.115  1.00  0.00     0.322 C 
HETATM    3  O   UNL     1     -44.605 -54.371  12.218  1.00  0.00    -0.247 OA
HETATM    4  N   UNL     1     -44.266 -53.573  14.332  1.00  0.00    -0.338 N 
HETATM    5  H   UNL     1     -42.211 -54.361  11.993  1.00  0.00     0.172 HD
HETATM    6  H   UNL     1     -43.519 -53.491  15.022  1.00  0.00     0.164 HD
ENDROOT
BRANCH   1   7
HETATM    7  C   UNL     1     -41.500 -53.736  13.817  1.00  0.00     0.125 A 
HETATM    8  C   UNL     1     -40.665 -52.597  13.754  1.00  0.00     0.069 A 
HETATM    9  C   UNL     1     -39.835 -52.697  14.847  1.00  0.00     0.114 A 
HETATM   10  N   UNL     1     -40.208 -53.837  15.496  1.00  0.00    -0.300 N 
HETATM   11  N   UNL     1     -41.195 -54.494  14.875  1.00  0.00    -0.283 N 
ATOM     12  HN  UNL     1     -41.620 -55.380  15.148  1.00  0.00     0.188 HD
BRANCH  10  13
HETATM   13  C   UNL     1     -39.664 -54.383  16.720  1.00  0.00     0.174 C 
BRANCH  13  14
HETATM   14  C   UNL     1     -40.399 -55.633  17.176  1.00  0.00     0.188 C 
BRANCH  14  15
HETATM   15  O   UNL     1     -39.789 -56.772  16.566  1.00  0.00    -0.394 OA
HETATM   16  C   UNL     1     -39.614 -57.833  17.497  1.00  0.00     0.201 C 
ENDBRANCH  14  15
ENDBRANCH  13  14
ENDBRANCH  10  13
ENDBRANCH   1   7
BRANCH   4  17
HETATM   17  C   UNL     1     -45.639 -53.645  14.796  1.00  0.00     0.086 C 
HETATM   18  C   UNL     1     -46.439 -52.424  14.322  1.00  0.00     0.026 C 
HETATM   19  C   UNL     1     -46.136 -51.137  15.100  1.00  0.00     0.011 C 
HETATM   20  C   UNL     1     -46.180 -51.307  16.635  1.00  0.00    -0.048 C 
HETATM   21  C   UNL     1     -45.627 -50.031  17.298  1.00  0.00     0.015 C 
HETATM   22  C   UNL     1     -47.630 -51.501  17.124  1.00  0.00     0.015 C 
HETATM   23  C   UNL     1     -45.308 -52.511  17.049  1.00  0.00     0.011 C 
HETATM   24  C   UNL     1     -45.687 -53.801  16.319  1.00  0.00     0.026 C 
ENDBRANCH   4  17
TORSDOF 5
ENDMDL
MODEL 8
REMARK VINA RESULT:      -5.4      3.353      7.188
REMARK  5 active torsions:
REMARK  status: ('A' for Active; 'I' for Inactive)
REMARK    1  A    between atoms: O_2  and  C_3 
REMARK    2  A    between atoms: C_3  and  C_4 
REMARK    3  A    between atoms: C_4  and  N_5 
REMARK    4  A    between atoms: C_8  and  N_9 
REMARK       I    between atoms: N_9  and  C_10 
REMARK       I    between atoms: C_10  and  N_12 
REMARK    5  A    between atoms: N_12  and  C_13 
ROOT
HETATM    1  N   UNL     1     -41.290 -49.408  10.757  1.00  0.00    -0.294 N 
HETATM    2  C   UNL     1     -41.626 -48.161  10.309  1.00  0.00     0.322 C 
HETATM    3  O   UNL     1     -42.632 -48.009   9.620  1.00  0.00    -0.247 OA
HETATM    4  N   UNL     1     -40.795 -47.140  10.665  1.00  0.00    -0.338 N 
HETATM    5  H   UNL     1     -41.911 -50.145  10.457  1.00  0.00     0.172 HD
HETATM    6  H   UNL     1     -40.115 -47.395  11.382  1.00  0.00     0.164 HD
ENDROOT
BRANCH   1   7
HETATM    7  C   UNL     1     -40.231 -49.748  11.572  1.00  0.00     0.125 A 
HETATM    8  C   UNL     1     -38.865 -49.536  11.272  1.00  0.00     0.069 A 
HETATM    9  C   UNL     1     -38.177 -50.029  12.357  1.00  0.00     0.114 A 
HETATM   10  N   UNL     1     -39.125 -50.479  13.227  1.00  0.00    -0.300 N 
HETATM   11  N   UNL     1     -40.372 -50.344  12.760  1.00  0.00    -0.283 N 
ATOM     12  HN  UNL     1     -41.240 -50.632  13.212  1.00  0.00     0.188 HD
BRANCH  10  13
HETATM   13  C   UNL     1     -38.926 -51.068  14.533  1.00  0.00     0.174 C 
BRANCH  13  14
HETATM   14  C   UNL     1     -39.574 -52.438  14.659  1.00  0.00     0.188 C 
BRANCH  14  15
HETATM   15  O   UNL     1     -39.552 -53.075  13.380  1.00  0.00    -0.394 OA
HETATM   16  C   UNL     1     -40.496 -54.136  13.309  1.00  0.00     0.201 C 
ENDBRANCH  14  15
ENDBRANCH  13  14
ENDBRANCH  10  13
ENDBRANCH   1   7
BRANCH   4  17
HETATM   17  C   UNL     1     -41.088 -45.736  10.448  1.00  0.00     0.086 C 
HETATM   18  C   UNL     1     -39.815 -44.887  10.580  1.00  0.00     0.026 C 
HETATM   19  C   UNL     1     -39.354 -44.673  12.027  1.00  0.00     0.011 C 
HETATM   20  C   UNL     1     -40.475 -44.200  12.980  1.00  0.00    -0.048 C 
HETATM   21  C   UNL     1     -39.958 -44.256  14.431  1.00  0.00     0.015 C 
HETATM   22  C   UNL     1     -40.873 -42.742  12.677  1.00  0.00     0.015 C 
HETATM   23  C   UNL     1     -41.698 -45.131  12.843  1.00  0.00     0.011 C 
HETATM   24  C   UNL     1     -42.191 -45.260  11.400  1.00  0.00     0.026 C 
ENDBRANCH   4  17
TORSDOF 5
ENDMDL
MODEL 9
REMARK VINA RESULT:      -5.3      2.952      6.005
REMARK  5 active torsions:
REMARK  status: ('A' for Active; 'I' for Inactive)
REMARK    1  A    between atoms: O_2  and  C_3 
REMARK    2  A    between atoms: C_3  and  C_4 
REMARK    3  A    between atoms: C_4  and  N_5 
REMARK    4  A    between atoms: C_8  and  N_9 
REMARK       I    between atoms: N_9  and  C_10 
REMARK       I    between atoms: C_10  and  N_12 
REMARK    5  A    between atoms: N_12  and  C_13 
ROOT
HETATM    1  N   UNL     1     -40.967 -51.763  11.425  1.00  0.00    -0.294 N 
HETATM    2  C   UNL     1     -40.494 -50.544  11.826  1.00  0.00     0.322 C 
HETATM    3  O   UNL     1     -39.807 -49.873  11.060  1.00  0.00    -0.247 OA
HETATM    4  N   UNL     1     -40.823 -50.148  13.088  1.00  0.00    -0.338 N 
HETATM    5  H   UNL     1     -40.687 -52.038  10.495  1.00  0.00     0.172 HD
HETATM    6  H   UNL     1     -41.541 -50.725  13.527  1.00  0.00     0.164 HD
ENDROOT
BRANCH   1   7
HETATM    7  C   UNL     1     -41.784 -52.618  12.133  1.00  0.00     0.125 A 
HETATM    8  C   UNL     1     -41.343 -53.604  13.046  1.00  0.00     0.069 A 
HETATM    9  C   UNL     1     -42.489 -54.212  13.504  1.00  0.00     0.114 A 
HETATM   10  N   UNL     1     -43.522 -53.577  12.880  1.00  0.00    -0.300 N 
HETATM   11  N   UNL     1     -43.116 -52.629  12.027  1.00  0.00    -0.283 N 
ATOM     12  HN  UNL     1     -43.696 -52.042  11.427  1.00  0.00     0.188 HD
BRANCH  10  13
HETATM   13  C   UNL     1     -44.939 -53.821  13.034  1.00  0.00     0.174 C 
BRANCH  13  14
HETATM   14  C   UNL     1     -45.230 -55.097  13.807  1.00  0.00     0.188 C 
BRANCH  14  15
HETATM   15  O   UNL     1     -45.715 -54.748  15.105  1.00  0.00    -0.394 OA
HETATM   16  C   UNL     1     -46.464 -53.539  15.075  1.00  0.00     0.201 C 
ENDBRANCH  14  15
ENDBRANCH  13  14
ENDBRANCH  10  13
ENDBRANCH   1   7
BRANCH   4  17
HETATM   17  C   UNL     1     -40.576 -48.819  13.617  1.00  0.00     0.086 C 
HETATM   18  C   UNL     1     -40.181 -48.886  15.098  1.00  0.00     0.026 C 
HETATM   19  C   UNL     1     -41.354 -49.158  16.047  1.00  0.00     0.011 C 
HETATM   20  C   UNL     1     -42.579 -48.245  15.809  1.00  0.00    -0.048 C 
HETATM   21  C   UNL     1     -43.765 -48.767  16.643  1.00  0.00     0.015 C 
HETATM   22  C   UNL     1     -42.282 -46.802  16.262  1.00  0.00     0.015 C 
HETATM   23  C   UNL     1     -42.961 -48.272  14.314  1.00  0.00     0.011 C 
HETATM   24  C   UNL     1     -41.792 -47.915  13.393  1.00  0.00     0.026 C 
ENDBRANCH   4  17
TORSDOF 5
ENDMDL
