MODEL 1
REMARK VINA RESULT:      -5.4      0.000      0.000
REMARK  7 active torsions:
REMARK  status: ('A' for Active; 'I' for Inactive)
REMARK    1  A    between atoms: O_2  and  C_3 
REMARK    2  A    between atoms: C_3  and  C_4 
REMARK    3  A    between atoms: C_4  and  C_5 
REMARK    4  A    between atoms: C_5  and  C_6 
REMARK    5  A    between atoms: C_6  and  N_7 
REMARK       I    between atoms: N_7  and  C_8 
REMARK    6  A    between atoms: C_8  and  C_10 
REMARK    7  A    between atoms: C_16  and  N_17 
ROOT
HETATM    1  C   UNL     1     -42.723 -49.180  12.577  1.00  0.00     0.075 A 
HETATM    2  C   UNL     1     -43.390 -48.186  11.825  1.00  0.00     0.022 A 
HETATM    3  C   UNL     1     -42.870 -47.736  10.620  1.00  0.00     0.018 A 
HETATM    4  C   UNL     1     -41.695 -48.305  10.188  1.00  0.00     0.089 A 
HETATM    5  N   UNL     1     -41.057 -49.292  10.847  1.00  0.00    -0.352 N 
ATOM      6  HN  UNL     1     -40.196 -49.687  10.467  1.00  0.00     0.166 HD
HETATM    7  C   UNL     1     -41.567 -49.762  12.024  1.00  0.00     0.119 A 
ENDROOT
BRANCH   1   8
HETATM    8  C   UNL     1     -43.344 -49.596  13.880  1.00  0.00     0.255 C 
HETATM    9  N   UNL     1     -44.270 -50.625  13.787  1.00  0.00    -0.357 N 
HETATM   10  H   UNL     1     -44.587 -50.919  12.875  1.00  0.00     0.162 HD
HETATM   11  O   UNL     1     -43.074 -49.064  14.949  1.00  0.00    -0.268 OA
BRANCH   9  12
HETATM   12  C   UNL     1     -45.076 -51.062  14.912  1.00  0.00     0.123 C 
BRANCH  12  13
HETATM   13  C   UNL     1     -46.496 -51.430  14.488  1.00  0.00     0.022 C 
BRANCH  13  14
HETATM   14  C   UNL     1     -46.594 -52.856  13.931  1.00  0.00     0.028 C 
BRANCH  14  15
HETATM   15  C   UNL     1     -46.446 -53.909  15.028  1.00  0.00     0.167 C 
BRANCH  15  16
HETATM   16  O   UNL     1     -45.752 -55.035  14.499  1.00  0.00    -0.396 OA
HETATM   17  C   UNL     1     -44.551 -54.657  13.842  1.00  0.00     0.201 C 
ENDBRANCH  15  16
ENDBRANCH  14  15
ENDBRANCH  13  14
ENDBRANCH  12  13
ENDBRANCH   9  12
ENDBRANCH   1   8
BRANCH   7  18
HETATM   18  N   UNL     1     -40.954 -50.897  12.541  1.00  0.00    -0.362 N 
HETATM   19  C   UNL     1     -41.333 -52.168  11.896  1.00  0.00     0.150 C 
HETATM   20  C   UNL     1     -40.928 -53.319  12.829  1.00  0.00     0.187 C 
HETATM   21  O   UNL     1     -39.513 -53.303  13.089  1.00  0.00    -0.388 OA
HETATM   22  C   UNL     1     -39.131 -52.048  13.692  1.00  0.00     0.187 C 
HETATM   23  C   UNL     1     -39.502 -50.846  12.797  1.00  0.00     0.150 C 
ENDBRANCH   7  18
TORSDOF 7
ENDMDL
MODEL 2
REMARK VINA RESULT:      -5.2      3.166      5.072
REMARK  7 active torsions:
REMARK  status: ('A' for Active; 'I' for Inactive)
REMARK    1  A    between atoms: O_2  and  C_3 
REMARK    2  A    between atoms: C_3  and  C_4 
REMARK    3  A    between atoms: C_4  and  C_5 
REMARK    4  A    between atoms: C_5  and  C_6 
REMARK    5  A    between atoms: C_6  and  N_7 
REMARK       I    between atoms: N_7  and  C_8 
REMARK    6  A    between atoms: C_8  and  C_10 
REMARK    7  A    between atoms: C_16  and  N_17 
ROOT
HETATM    1  C   UNL     1     -42.407 -47.367  10.379  1.00  0.00     0.075 A 
HETATM    2  C   UNL     1     -43.051 -47.703   9.166  1.00  0.00     0.022 A 
HETATM    3  C   UNL     1     -43.837 -46.776   8.498  1.00  0.00     0.018 A 
HETATM    4  C   UNL     1     -43.951 -45.525   9.056  1.00  0.00     0.089 A 
HETATM    5  N   UNL     1     -43.311 -45.148  10.180  1.00  0.00    -0.352 N 
ATOM      6  HN  UNL     1     -43.421 -44.198  10.538  1.00  0.00     0.166 HD
HETATM    7  C   UNL     1     -42.515 -46.041  10.840  1.00  0.00     0.119 A 
ENDROOT
BRANCH   1   8
HETATM    8  C   UNL     1     -41.590 -48.436  11.049  1.00  0.00     0.255 C 
HETATM    9  N   UNL     1     -42.306 -49.553  11.455  1.00  0.00    -0.357 N 
HETATM   10  H   UNL     1     -43.314 -49.526  11.430  1.00  0.00     0.162 HD
HETATM   11  O   UNL     1     -40.386 -48.334  11.241  1.00  0.00    -0.268 OA
BRANCH   9  12
HETATM   12  C   UNL     1     -41.716 -50.619  12.244  1.00  0.00     0.123 C 
BRANCH  12  13
HETATM   13  C   UNL     1     -42.764 -51.361  13.072  1.00  0.00     0.022 C 
BRANCH  13  14
HETATM   14  C   UNL     1     -43.089 -52.749  12.505  1.00  0.00     0.028 C 
BRANCH  14  15
HETATM   15  C   UNL     1     -44.587 -53.044  12.539  1.00  0.00     0.167 C 
BRANCH  15  16
HETATM   16  O   UNL     1     -44.784 -54.454  12.495  1.00  0.00    -0.396 OA
HETATM   17  C   UNL     1     -45.295 -54.955  13.722  1.00  0.00     0.201 C 
ENDBRANCH  15  16
ENDBRANCH  14  15
ENDBRANCH  13  14
ENDBRANCH  12  13
ENDBRANCH   9  12
ENDBRANCH   1   8
BRANCH   7  18
HETATM   18  N   UNL     1     -41.753 -45.523  11.879  1.00  0.00    -0.362 N 
HETATM   19  C   UNL     1     -40.598 -44.703  11.466  1.00  0.00     0.150 C 
HETATM   20  C   UNL     1     -39.645 -44.579  12.664  1.00  0.00     0.187 C 
HETATM   21  O   UNL     1     -40.303 -43.969  13.790  1.00  0.00    -0.388 OA
HETATM   22  C   UNL     1     -41.453 -44.751  14.179  1.00  0.00     0.187 C 
HETATM   23  C   UNL     1     -42.459 -44.907  13.018  1.00  0.00     0.150 C 
ENDBRANCH   7  18
TORSDOF 7
ENDMDL
MODEL 3
REMARK VINA RESULT:      -5.1      2.199      5.439
REMARK  7 active torsions:
REMARK  status: ('A' for Active; 'I' for Inactive)
REMARK    1  A    between atoms: O_2  and  C_3 
REMARK    2  A    between atoms: C_3  and  C_4 
REMARK    3  A    between atoms: C_4  and  C_5 
REMARK    4  A    between atoms: C_5  and  C_6 
REMARK    5  A    between atoms: C_6  and  N_7 
REMARK       I    between atoms: N_7  and  C_8 
REMARK    6  A    between atoms: C_8  and  C_10 
REMARK    7  A    between atoms: C_16  and  N_17 
ROOT
HETATM    1  C   UNL     1     -44.669 -51.383  14.030  1.00  0.00     0.075 A 
HETATM    2  C   UNL     1     -46.013 -51.208  14.431  1.00  0.00     0.022 A 
HETATM    3  C   UNL     1     -46.852 -52.299  14.603  1.00  0.00     0.018 A 
HETATM    4  C   UNL     1     -46.320 -53.547  14.379  1.00  0.00     0.089 A 
HETATM    5  N   UNL     1     -45.031 -53.760  14.048  1.00  0.00    -0.352 N 
ATOM      6  HN  UNL     1     -44.688 -54.712  13.911  1.00  0.00     0.166 HD
HETATM    7  C   UNL     1     -44.185 -52.698  13.897  1.00  0.00     0.119 A 
ENDROOT
BRANCH   1   8
HETATM    8  C   UNL     1     -43.834 -50.147  13.848  1.00  0.00     0.255 C 
HETATM    9  N   UNL     1     -43.638 -49.761  12.530  1.00  0.00    -0.357 N 
HETATM   10  H   UNL     1     -43.913 -50.387  11.788  1.00  0.00     0.162 HD
HETATM   11  O   UNL     1     -43.345 -49.527  14.783  1.00  0.00    -0.268 OA
BRANCH   9  12
HETATM   12  C   UNL     1     -42.744 -48.681  12.152  1.00  0.00     0.123 C 
BRANCH  12  13
HETATM   13  C   UNL     1     -43.451 -47.628  11.301  1.00  0.00     0.022 C 
BRANCH  13  14
HETATM   14  C   UNL     1     -43.068 -47.715   9.818  1.00  0.00     0.028 C 
BRANCH  14  15
HETATM   15  C   UNL     1     -44.220 -47.297   8.906  1.00  0.00     0.167 C 
BRANCH  15  16
HETATM   16  O   UNL     1     -45.431 -47.860   9.400  1.00  0.00    -0.396 OA
HETATM   17  C   UNL     1     -46.553 -47.037   9.113  1.00  0.00     0.201 C 
ENDBRANCH  15  16
ENDBRANCH  14  15
ENDBRANCH  13  14
ENDBRANCH  12  13
ENDBRANCH   9  12
ENDBRANCH   1   8
BRANCH   7  18
HETATM   18  N   UNL     1     -42.841 -53.011  13.737  1.00  0.00    -0.362 N 
HETATM   19  C   UNL     1     -42.380 -54.208  14.466  1.00  0.00     0.150 C 
HETATM   20  C   UNL     1     -40.848 -54.165  14.539  1.00  0.00     0.187 C 
HETATM   21  O   UNL     1     -40.265 -54.137  13.224  1.00  0.00    -0.388 OA
HETATM   22  C   UNL     1     -40.736 -52.983  12.495  1.00  0.00     0.187 C 
HETATM   23  C   UNL     1     -42.276 -52.970  12.376  1.00  0.00     0.150 C 
ENDBRANCH   7  18
TORSDOF 7
ENDMDL
MODEL 4
REMARK VINA RESULT:      -5.1      4.090      6.574
REMARK  7 active torsions:
REMARK  status: ('A' for Active; 'I' for Inactive)
REMARK    1  A    between atoms: O_2  and  C_3 
REMARK    2  A    between atoms: C_3  and  C_4 
REMARK    3  A    between atoms: C_4  and  C_5 
REMARK    4  A    between atoms: C_5  and  C_6 
REMARK    5  A    between atoms: C_6  and  N_7 
REMARK       I    between atoms: N_7  and  C_8 
REMARK    6  A    between atoms: C_8  and  C_10 
REMARK    7  A    between atoms: C_16  and  N_17 
ROOT
HETATM    1  C   UNL     1     -42.848 -47.243  10.481  1.00  0.00     0.075 A 
HETATM    2  C   UNL     1     -43.657 -47.664   9.401  1.00  0.00     0.022 A 
HETATM    3  C   UNL     1     -44.391 -46.748   8.662  1.00  0.00     0.018 A 
HETATM    4  C   UNL     1     -44.289 -45.423   9.017  1.00  0.00     0.089 A 
HETATM    5  N   UNL     1     -43.489 -44.974  10.005  1.00  0.00    -0.352 N 
ATOM      6  HN  UNL     1     -43.441 -43.976  10.211  1.00  0.00     0.166 HD
HETATM    7  C   UNL     1     -42.742 -45.861  10.727  1.00  0.00     0.119 A 
ENDROOT
BRANCH   1   8
HETATM    8  C   UNL     1     -42.101 -48.302  11.240  1.00  0.00     0.255 C 
HETATM    9  N   UNL     1     -40.855 -48.626  10.722  1.00  0.00    -0.357 N 
HETATM   10  H   UNL     1     -40.593 -48.271   9.814  1.00  0.00     0.162 HD
HETATM   11  O   UNL     1     -42.552 -48.857  12.233  1.00  0.00    -0.268 OA
BRANCH   9  12
HETATM   12  C   UNL     1     -40.052 -49.722  11.233  1.00  0.00     0.123 C 
BRANCH  12  13
HETATM   13  C   UNL     1     -38.731 -49.233  11.823  1.00  0.00     0.022 C 
BRANCH  13  14
HETATM   14  C   UNL     1     -37.605 -50.267  11.688  1.00  0.00     0.028 C 
BRANCH  14  15
HETATM   15  C   UNL     1     -37.306 -50.962  13.014  1.00  0.00     0.167 C 
BRANCH  15  16
HETATM   16  O   UNL     1     -38.040 -52.182  13.076  1.00  0.00    -0.396 OA
HETATM   17  C   UNL     1     -38.999 -52.170  14.122  1.00  0.00     0.201 C 
ENDBRANCH  15  16
ENDBRANCH  14  15
ENDBRANCH  13  14
ENDBRANCH  12  13
ENDBRANCH   9  12
ENDBRANCH   1   8
BRANCH   7  18
HETATM   18  N   UNL     1     -41.812 -45.304  11.597  1.00  0.00    -0.362 N 
HETATM   19  C   UNL     1     -40.575 -44.808  10.965  1.00  0.00     0.150 C 
HETATM   20  C   UNL     1     -39.512 -44.635  12.060  1.00  0.00     0.187 C 
HETATM   21  O   UNL     1     -39.953 -43.710  13.070  1.00  0.00    -0.388 OA
HETATM   22  C   UNL     1     -41.181 -44.175  13.671  1.00  0.00     0.187 C 
HETATM   23  C   UNL     1     -42.298 -44.361  12.621  1.00  0.00     0.150 C 
ENDBRANCH   7  18
TORSDOF 7
ENDMDL
MODEL 5
REMARK VINA RESULT:      -5.0      1.224      1.430
REMARK  7 active torsions:
REMARK  status: ('A' for Active; 'I' for Inactive)
REMARK    1  A    between atoms: O_2  and  C_3 
REMARK    2  A    between atoms: C_3  and  C_4 
REMARK    3  A    between atoms: C_4  and  C_5 
REMARK    4  A    between atoms: C_5  and  C_6 
REMARK    5  A    between atoms: C_6  and  N_7 
REMARK       I    between atoms: N_7  and  C_8 
REMARK    6  A    between atoms: C_8  and  C_10 
REMARK    7  A    between atoms: C_16  and  N_17 
ROOT
HETATM    1  C   UNL     1     -42.737 -48.448  12.120  1.00  0.00     0.075 A 
HETATM    2  C   UNL     1     -43.759 -47.800  11.391  1.00  0.00     0.022 A 
HETATM    3  C   UNL     1     -43.589 -47.488  10.050  1.00  0.00     0.018 A 
HETATM    4  C   UNL     1     -42.397 -47.845   9.465  1.00  0.00     0.089 A 
HETATM    5  N   UNL     1     -41.419 -48.511  10.110  1.00  0.00    -0.352 N 
ATOM      6  HN  UNL     1     -40.562 -48.765   9.617  1.00  0.00     0.166 HD
HETATM    7  C   UNL     1     -41.579 -48.846  11.424  1.00  0.00     0.119 A 
ENDROOT
BRANCH   1   8
HETATM    8  C   UNL     1     -42.996 -48.732  13.572  1.00  0.00     0.255 C 
HETATM    9  N   UNL     1     -43.633 -49.938  13.830  1.00  0.00    -0.357 N 
HETATM   10  H   UNL     1     -44.019 -50.463  13.059  1.00  0.00     0.162 HD
HETATM   11  O   UNL     1     -42.687 -47.960  14.470  1.00  0.00    -0.268 OA
BRANCH   9  12
HETATM   12  C   UNL     1     -44.093 -50.317  15.153  1.00  0.00     0.123 C 
BRANCH  12  13
HETATM   13  C   UNL     1     -45.213 -51.353  15.092  1.00  0.00     0.022 C 
BRANCH  13  14
HETATM   14  C   UNL     1     -45.868 -51.432  13.707  1.00  0.00     0.028 C 
BRANCH  14  15
HETATM   15  C   UNL     1     -45.672 -52.801  13.059  1.00  0.00     0.167 C 
BRANCH  15  16
HETATM   16  O   UNL     1     -46.195 -53.803  13.925  1.00  0.00    -0.396 OA
HETATM   17  C   UNL     1     -45.474 -55.023  13.819  1.00  0.00     0.201 C 
ENDBRANCH  15  16
ENDBRANCH  14  15
ENDBRANCH  13  14
ENDBRANCH  12  13
ENDBRANCH   9  12
ENDBRANCH   1   8
BRANCH   7  18
HETATM   18  N   UNL     1     -40.611 -49.686  11.959  1.00  0.00    -0.362 N 
HETATM   19  C   UNL     1     -40.916 -51.128  11.887  1.00  0.00     0.150 C 
HETATM   20  C   UNL     1     -39.996 -51.863  12.872  1.00  0.00     0.187 C 
HETATM   21  O   UNL     1     -38.610 -51.638  12.556  1.00  0.00    -0.388 OA
HETATM   22  C   UNL     1     -38.313 -50.226  12.595  1.00  0.00     0.187 C 
HETATM   23  C   UNL     1     -39.201 -49.426  11.616  1.00  0.00     0.150 C 
ENDBRANCH   7  18
TORSDOF 7
ENDMDL
MODEL 6
REMARK VINA RESULT:      -5.0      2.491      4.698
REMARK  7 active torsions:
REMARK  status: ('A' for Active; 'I' for Inactive)
REMARK    1  A    between atoms: O_2  and  C_3 
REMARK    2  A    between atoms: C_3  and  C_4 
REMARK    3  A    between atoms: C_4  and  C_5 
REMARK    4  A    between atoms: C_5  and  C_6 
REMARK    5  A    between atoms: C_6  and  N_7 
REMARK       I    between atoms: N_7  and  C_8 
REMARK    6  A    between atoms: C_8  and  C_10 
REMARK    7  A    between atoms: C_16  and  N_17 
ROOT
HETATM    1  C   UNL     1     -39.990 -50.487  12.574  1.00  0.00     0.075 A 
HETATM    2  C   UNL     1     -38.776 -51.158  12.844  1.00  0.00     0.022 A 
HETATM    3  C   UNL     1     -37.579 -50.708  12.306  1.00  0.00     0.018 A 
HETATM    4  C   UNL     1     -37.626 -49.584  11.515  1.00  0.00     0.089 A 
HETATM    5  N   UNL     1     -38.753 -48.884  11.277  1.00  0.00    -0.352 N 
ATOM      6  HN  UNL     1     -38.722 -48.046  10.695  1.00  0.00     0.166 HD
HETATM    7  C   UNL     1     -39.936 -49.301  11.818  1.00  0.00     0.119 A 
ENDROOT
BRANCH   1   8
HETATM    8  C   UNL     1     -41.243 -51.052  13.181  1.00  0.00     0.255 C 
HETATM    9  N   UNL     1     -41.923 -51.961  12.383  1.00  0.00    -0.357 N 
HETATM   10  H   UNL     1     -41.648 -52.070  11.419  1.00  0.00     0.162 HD
HETATM   11  O   UNL     1     -41.652 -50.731  14.290  1.00  0.00    -0.268 OA
BRANCH   9  12
HETATM   12  C   UNL     1     -43.224 -52.500  12.739  1.00  0.00     0.123 C 
BRANCH  12  13
HETATM   13  C   UNL     1     -43.127 -53.945  13.225  1.00  0.00     0.022 C 
BRANCH  13  14
HETATM   14  C   UNL     1     -42.861 -54.044  14.732  1.00  0.00     0.028 C 
BRANCH  14  15
HETATM   15  C   UNL     1     -41.443 -54.525  15.032  1.00  0.00     0.167 C 
BRANCH  15  16
HETATM   16  O   UNL     1     -40.659 -54.425  13.847  1.00  0.00    -0.396 OA
HETATM   17  C   UNL     1     -39.270 -54.541  14.120  1.00  0.00     0.201 C 
ENDBRANCH  15  16
ENDBRANCH  14  15
ENDBRANCH  13  14
ENDBRANCH  12  13
ENDBRANCH   9  12
ENDBRANCH   1   8
BRANCH   7  18
HETATM   18  N   UNL     1     -41.009 -48.429  11.677  1.00  0.00    -0.362 N 
HETATM   19  C   UNL     1     -40.802 -47.079  12.235  1.00  0.00     0.150 C 
HETATM   20  C   UNL     1     -42.174 -46.407  12.388  1.00  0.00     0.187 C 
HETATM   21  O   UNL     1     -42.852 -46.316  11.122  1.00  0.00    -0.388 OA
HETATM   22  C   UNL     1     -43.029 -47.633  10.556  1.00  0.00     0.187 C 
HETATM   23  C   UNL     1     -41.681 -48.362  10.367  1.00  0.00     0.150 C 
ENDBRANCH   7  18
TORSDOF 7
ENDMDL
MODEL 7
REMARK VINA RESULT:      -4.9      2.080      5.590
REMARK  7 active torsions:
REMARK  status: ('A' for Active; 'I' for Inactive)
REMARK    1  A    between atoms: O_2  and  C_3 
REMARK    2  A    between atoms: C_3  and  C_4 
REMARK    3  A    between atoms: C_4  and  C_5 
REMARK    4  A    between atoms: C_5  and  C_6 
REMARK    5  A    between atoms: C_6  and  N_7 
REMARK       I    between atoms: N_7  and  C_8 
REMARK    6  A    between atoms: C_8  and  C_10 
REMARK    7  A    between atoms: C_16  and  N_17 
ROOT
HETATM    1  C   UNL     1     -43.993 -51.506  13.445  1.00  0.00     0.075 A 
HETATM    2  C   UNL     1     -45.362 -51.162  13.381  1.00  0.00     0.022 A 
HETATM    3  C   UNL     1     -46.346 -52.131  13.509  1.00  0.00     0.018 A 
HETATM    4  C   UNL     1     -45.933 -53.428  13.710  1.00  0.00     0.089 A 
HETATM    5  N   UNL     1     -44.641 -53.790  13.830  1.00  0.00    -0.352 N 
ATOM      6  HN  UNL     1     -44.396 -54.766  13.996  1.00  0.00     0.166 HD
HETATM    7  C   UNL     1     -43.660 -52.844  13.729  1.00  0.00     0.119 A 
ENDROOT
BRANCH   1   8
HETATM    8  C   UNL     1     -42.992 -50.398  13.278  1.00  0.00     0.255 C 
HETATM    9  N   UNL     1     -42.569 -50.181  11.974  1.00  0.00    -0.357 N 
HETATM   10  H   UNL     1     -42.816 -50.850  11.260  1.00  0.00     0.162 HD
HETATM   11  O   UNL     1     -42.562 -49.739  14.216  1.00  0.00    -0.268 OA
BRANCH   9  12
HETATM   12  C   UNL     1     -41.503 -49.255  11.638  1.00  0.00     0.123 C 
BRANCH  12  13
HETATM   13  C   UNL     1     -40.225 -49.983  11.226  1.00  0.00     0.022 C 
BRANCH  13  14
HETATM   14  C   UNL     1     -38.973 -49.402  11.896  1.00  0.00     0.028 C 
BRANCH  14  15
HETATM   15  C   UNL     1     -37.689 -49.986  11.311  1.00  0.00     0.167 C 
BRANCH  15  16
HETATM   16  O   UNL     1     -37.330 -51.151  12.048  1.00  0.00    -0.396 OA
HETATM   17  C   UNL     1     -37.416 -50.937  13.449  1.00  0.00     0.201 C 
ENDBRANCH  15  16
ENDBRANCH  14  15
ENDBRANCH  13  14
ENDBRANCH  12  13
ENDBRANCH   9  12
ENDBRANCH   1   8
BRANCH   7  18
HETATM   18  N   UNL     1     -42.375 -53.267  14.046  1.00  0.00    -0.362 N 
HETATM   19  C   UNL     1     -42.288 -54.273  15.121  1.00  0.00     0.150 C 
HETATM   20  C   UNL     1     -40.841 -54.306  15.633  1.00  0.00     0.187 C 
HETATM   21  O   UNL     1     -39.923 -54.637  14.575  1.00  0.00    -0.388 OA
HETATM   22  C   UNL     1     -40.026 -53.673  13.506  1.00  0.00     0.187 C 
HETATM   23  C   UNL     1     -41.460 -53.597  12.938  1.00  0.00     0.150 C 
ENDBRANCH   7  18
TORSDOF 7
ENDMDL
MODEL 8
REMARK VINA RESULT:      -4.8      3.035      4.456
REMARK  7 active torsions:
REMARK  status: ('A' for Active; 'I' for Inactive)
REMARK    1  A    between atoms: O_2  and  C_3 
REMARK    2  A    between atoms: C_3  and  C_4 
REMARK    3  A    between atoms: C_4  and  C_5 
REMARK    4  A    between atoms: C_5  and  C_6 
REMARK    5  A    between atoms: C_6  and  N_7 
REMARK       I    between atoms: N_7  and  C_8 
REMARK    6  A    between atoms: C_8  and  C_10 
REMARK    7  A    between atoms: C_16  and  N_17 
ROOT
HETATM    1  C   UNL     1     -42.397 -52.541  13.002  1.00  0.00     0.075 A 
HETATM    2  C   UNL     1     -41.609 -51.894  12.023  1.00  0.00     0.022 A 
HETATM    3  C   UNL     1     -40.276 -51.597  12.265  1.00  0.00     0.018 A 
HETATM    4  C   UNL     1     -39.758 -51.966  13.484  1.00  0.00     0.089 A 
HETATM    5  N   UNL     1     -40.460 -52.631  14.423  1.00  0.00    -0.352 N 
ATOM      6  HN  UNL     1     -40.016 -52.893  15.304  1.00  0.00     0.166 HD
HETATM    7  C   UNL     1     -41.767 -52.952  14.192  1.00  0.00     0.119 A 
ENDROOT
BRANCH   1   8
HETATM    8  C   UNL     1     -43.837 -52.809  12.665  1.00  0.00     0.255 C 
HETATM    9  N   UNL     1     -44.703 -51.753  12.912  1.00  0.00    -0.357 N 
HETATM   10  H   UNL     1     -44.369 -50.955  13.431  1.00  0.00     0.162 HD
HETATM   11  O   UNL     1     -44.231 -53.879  12.222  1.00  0.00    -0.268 OA
BRANCH   9  12
HETATM   12  C   UNL     1     -46.145 -51.874  12.786  1.00  0.00     0.123 C 
BRANCH  12  13
HETATM   13  C   UNL     1     -46.869 -51.365  14.030  1.00  0.00     0.022 C 
BRANCH  13  14
HETATM   14  C   UNL     1     -46.932 -52.416  15.147  1.00  0.00     0.028 C 
BRANCH  14  15
HETATM   15  C   UNL     1     -46.895 -51.777  16.534  1.00  0.00     0.167 C 
BRANCH  15  16
HETATM   16  O   UNL     1     -48.231 -51.564  16.982  1.00  0.00    -0.396 OA
HETATM   17  C   UNL     1     -48.276 -51.199  18.354  1.00  0.00     0.201 C 
ENDBRANCH  15  16
ENDBRANCH  14  15
ENDBRANCH  13  14
ENDBRANCH  12  13
ENDBRANCH   9  12
ENDBRANCH   1   8
BRANCH   7  18
HETATM   18  N   UNL     1     -42.361 -53.791  15.127  1.00  0.00    -0.362 N 
HETATM   19  C   UNL     1     -41.498 -54.871  15.642  1.00  0.00     0.150 C 
HETATM   20  C   UNL     1     -42.395 -55.929  16.300  1.00  0.00     0.187 C 
HETATM   21  O   UNL     1     -43.167 -55.361  17.375  1.00  0.00    -0.388 OA
HETATM   22  C   UNL     1     -43.990 -54.283  16.881  1.00  0.00     0.187 C 
HETATM   23  C   UNL     1     -43.145 -53.176  16.213  1.00  0.00     0.150 C 
ENDBRANCH   7  18
TORSDOF 7
ENDMDL
MODEL 9
REMARK VINA RESULT:      -4.8      2.123      4.270
REMARK  7 active torsions:
REMARK  status: ('A' for Active; 'I' for Inactive)
REMARK    1  A    between atoms: O_2  and  C_3 
REMARK    2  A    between atoms: C_3  and  C_4 
REMARK    3  A    between atoms: C_4  and  C_5 
REMARK    4  A    between atoms: C_5  and  C_6 
REMARK    5  A    between atoms: C_6  and  N_7 
REMARK       I    between atoms: N_7  and  C_8 
REMARK    6  A    between atoms: C_8  and  C_10 
REMARK    7  A    between atoms: C_16  and  N_17 
ROOT
HETATM    1  C   UNL     1     -39.606 -49.995  13.077  1.00  0.00     0.075 A 
HETATM    2  C   UNL     1     -38.474 -50.784  13.381  1.00  0.00     0.022 A 
HETATM    3  C   UNL     1     -37.392 -50.840  12.514  1.00  0.00     0.018 A 
HETATM    4  C   UNL     1     -37.466 -50.091  11.363  1.00  0.00     0.089 A 
HETATM    5  N   UNL     1     -38.503 -49.284  11.062  1.00  0.00    -0.352 N 
ATOM      6  HN  UNL     1     -38.494 -48.739  10.200  1.00  0.00     0.166 HD
HETATM    7  C   UNL     1     -39.567 -49.201  11.915  1.00  0.00     0.119 A 
ENDROOT
BRANCH   1   8
HETATM    8  C   UNL     1     -40.742 -50.006  14.061  1.00  0.00     0.255 C 
HETATM    9  N   UNL     1     -41.768 -50.892  13.763  1.00  0.00    -0.357 N 
HETATM   10  H   UNL     1     -41.779 -51.344  12.861  1.00  0.00     0.162 HD
HETATM   11  O   UNL     1     -40.779 -49.282  15.047  1.00  0.00    -0.268 OA
BRANCH   9  12
HETATM   12  C   UNL     1     -43.008 -50.939  14.515  1.00  0.00     0.123 C 
BRANCH  12  13
HETATM   13  C   UNL     1     -44.230 -50.805  13.608  1.00  0.00     0.022 C 
BRANCH  13  14
HETATM   14  C   UNL     1     -45.238 -51.944  13.805  1.00  0.00     0.028 C 
BRANCH  14  15
HETATM   15  C   UNL     1     -45.516 -52.693  12.503  1.00  0.00     0.167 C 
BRANCH  15  16
HETATM   16  O   UNL     1     -45.363 -54.091  12.730  1.00  0.00    -0.396 OA
HETATM   17  C   UNL     1     -45.037 -54.376  14.082  1.00  0.00     0.201 C 
ENDBRANCH  15  16
ENDBRANCH  14  15
ENDBRANCH  13  14
ENDBRANCH  12  13
ENDBRANCH   9  12
ENDBRANCH   1   8
BRANCH   7  18
HETATM   18  N   UNL     1     -40.502 -48.216  11.624  1.00  0.00    -0.362 N 
HETATM   19  C   UNL     1     -39.948 -46.870  11.385  1.00  0.00     0.150 C 
HETATM   20  C   UNL     1     -41.090 -45.851  11.509  1.00  0.00     0.187 C 
HETATM   21  O   UNL     1     -42.138 -46.127  10.561  1.00  0.00    -0.388 OA
HETATM   22  C   UNL     1     -42.663 -47.455  10.771  1.00  0.00     0.187 C 
HETATM   23  C   UNL     1     -41.563 -48.532  10.650  1.00  0.00     0.150 C 
ENDBRANCH   7  18
TORSDOF 7
ENDMDL
