MODEL 1
REMARK VINA RESULT:      -6.5      0.000      0.000
REMARK  6 active torsions:
REMARK  status: ('A' for Active; 'I' for Inactive)
REMARK    1  A    between atoms: C_2  and  C_3 
REMARK       I    between atoms: C_2  and  N_16 
REMARK    2  A    between atoms: C_3  and  C_4 
REMARK    3  A    between atoms: C_4  and  N_5 
REMARK    4  A    between atoms: N_16  and  C_17 
REMARK    5  A    between atoms: C_17  and  C_18 
REMARK    6  A    between atoms: C_18  and  C_19 
ROOT
HETATM    1  O   UNL     1     -44.196 -50.391  14.736  1.00  0.00    -0.274 OA
HETATM    2  C   UNL     1     -44.349 -50.771  13.580  1.00  0.00     0.219 C 
HETATM    3  N   UNL     1     -43.634 -50.257  12.518  1.00  0.00    -0.361 N 
HETATM    4  H   UNL     1     -43.874 -50.542  11.577  1.00  0.00     0.162 HD
ENDROOT
BRANCH   2   5
HETATM    5  C   UNL     1     -45.302 -51.884  13.197  1.00  0.00     0.123 C 
BRANCH   5   6
HETATM    6  C   UNL     1     -44.552 -53.030  12.525  1.00  0.00     0.144 C 
BRANCH   6   7
HETATM    7  N   UNL     1     -43.483 -53.546  13.366  1.00  0.00    -0.287 N 
HETATM    8  C   UNL     1     -43.682 -54.329  14.484  1.00  0.00     0.231 C 
HETATM    9  O   UNL     1     -44.727 -54.817  14.875  1.00  0.00    -0.273 OA
HETATM   10  C   UNL     1     -42.345 -54.392  15.177  1.00  0.00     0.091 C 
HETATM   11  C   UNL     1     -41.996 -55.557  16.081  1.00  0.00     0.015 C 
HETATM   12  C   UNL     1     -41.421 -54.360  13.972  1.00  0.00     0.091 C 
HETATM   13  C   UNL     1     -40.530 -55.415  16.526  1.00  0.00     0.001 C 
HETATM   14  C   UNL     1     -39.560 -55.231  15.347  1.00  0.00     0.001 C 
HETATM   15  C   UNL     1     -39.990 -54.104  14.394  1.00  0.00     0.015 C 
HETATM   16  C   UNL     1     -42.144 -53.381  13.088  1.00  0.00     0.231 C 
HETATM   17  O   UNL     1     -41.639 -52.683  12.227  1.00  0.00    -0.273 OA
ENDBRANCH   6   7
ENDBRANCH   5   6
ENDBRANCH   2   5
BRANCH   3  18
HETATM   18  C   UNL     1     -42.687 -49.170  12.713  1.00  0.00     0.127 C 
BRANCH  18  19
HETATM   19  C   UNL     1     -43.244 -47.826  12.246  1.00  0.00     0.059 C 
BRANCH  19  20
HETATM   20  C   UNL     1     -43.469 -47.777  10.760  1.00  0.00    -0.041 A 
HETATM   21  C   UNL     1     -44.744 -47.575  10.221  1.00  0.00     0.010 A 
HETATM   22  C   UNL     1     -44.913 -47.543   8.841  1.00  0.00     0.018 A 
HETATM   23  C   UNL     1     -43.798 -47.718   8.038  1.00  0.00     0.087 A 
HETATM   24  N   UNL     1     -42.554 -47.919   8.518  1.00  0.00    -0.375 N 
HETATM   25  C   UNL     1     -42.419 -47.947   9.864  1.00  0.00     0.094 A 
ATOM     26  HN  UNL     1     -41.754 -48.045   7.897  1.00  0.00     0.164 HD
ENDBRANCH  19  20
ENDBRANCH  18  19
ENDBRANCH   3  18
TORSDOF 6
ENDMDL
MODEL 2
REMARK VINA RESULT:      -6.4      3.307      5.791
REMARK  6 active torsions:
REMARK  status: ('A' for Active; 'I' for Inactive)
REMARK    1  A    between atoms: C_2  and  C_3 
REMARK       I    between atoms: C_2  and  N_16 
REMARK    2  A    between atoms: C_3  and  C_4 
REMARK    3  A    between atoms: C_4  and  N_5 
REMARK    4  A    between atoms: N_16  and  C_17 
REMARK    5  A    between atoms: C_17  and  C_18 
REMARK    6  A    between atoms: C_18  and  C_19 
ROOT
HETATM    1  O   UNL     1     -44.647 -54.642  15.551  1.00  0.00    -0.274 OA
HETATM    2  C   UNL     1     -43.928 -54.258  14.635  1.00  0.00     0.219 C 
HETATM    3  N   UNL     1     -44.410 -53.586  13.530  1.00  0.00    -0.361 N 
HETATM    4  H   UNL     1     -43.780 -53.381  12.764  1.00  0.00     0.162 HD
ENDROOT
BRANCH   2   5
HETATM    5  C   UNL     1     -42.423 -54.431  14.640  1.00  0.00     0.123 C 
BRANCH   5   6
HETATM    6  C   UNL     1     -41.849 -54.197  13.247  1.00  0.00     0.144 C 
BRANCH   6   7
HETATM    7  N   UNL     1     -41.006 -53.012  13.198  1.00  0.00    -0.287 N 
HETATM    8  C   UNL     1     -39.657 -53.005  13.486  1.00  0.00     0.231 C 
HETATM    9  O   UNL     1     -38.933 -53.963  13.691  1.00  0.00    -0.273 OA
HETATM   10  C   UNL     1     -39.269 -51.551  13.575  1.00  0.00     0.091 C 
HETATM   11  C   UNL     1     -37.843 -51.112  13.314  1.00  0.00     0.015 C 
HETATM   12  C   UNL     1     -40.205 -50.964  12.531  1.00  0.00     0.091 C 
HETATM   13  C   UNL     1     -37.787 -49.574  13.339  1.00  0.00     0.001 C 
HETATM   14  C   UNL     1     -38.819 -48.920  12.405  1.00  0.00     0.001 C 
HETATM   15  C   UNL     1     -40.243 -49.454  12.627  1.00  0.00     0.015 C 
HETATM   16  C   UNL     1     -41.446 -51.777  12.775  1.00  0.00     0.231 C 
HETATM   17  O   UNL     1     -42.589 -51.435  12.528  1.00  0.00    -0.273 OA
ENDBRANCH   6   7
ENDBRANCH   5   6
ENDBRANCH   2   5
BRANCH   3  18
HETATM   18  C   UNL     1     -45.835 -53.351  13.363  1.00  0.00     0.127 C 
BRANCH  18  19
HETATM   19  C   UNL     1     -46.195 -51.870  13.480  1.00  0.00     0.059 C 
BRANCH  19  20
HETATM   20  C   UNL     1     -46.246 -51.397  14.906  1.00  0.00    -0.041 A 
HETATM   21  C   UNL     1     -47.401 -51.540  15.681  1.00  0.00     0.010 A 
HETATM   22  C   UNL     1     -47.412 -51.083  16.995  1.00  0.00     0.018 A 
HETATM   23  C   UNL     1     -46.265 -50.491  17.495  1.00  0.00     0.087 A 
HETATM   24  N   UNL     1     -45.133 -50.330  16.779  1.00  0.00    -0.375 N 
HETATM   25  C   UNL     1     -45.151 -50.783  15.504  1.00  0.00     0.094 A 
ATOM     26  HN  UNL     1     -44.305 -49.889  17.178  1.00  0.00     0.164 HD
ENDBRANCH  19  20
ENDBRANCH  18  19
ENDBRANCH   3  18
TORSDOF 6
ENDMDL
MODEL 3
REMARK VINA RESULT:      -6.4      1.751      2.691
REMARK  6 active torsions:
REMARK  status: ('A' for Active; 'I' for Inactive)
REMARK    1  A    between atoms: C_2  and  C_3 
REMARK       I    between atoms: C_2  and  N_16 
REMARK    2  A    between atoms: C_3  and  C_4 
REMARK    3  A    between atoms: C_4  and  N_5 
REMARK    4  A    between atoms: N_16  and  C_17 
REMARK    5  A    between atoms: C_17  and  C_18 
REMARK    6  A    between atoms: C_18  and  C_19 
ROOT
HETATM    1  O   UNL     1     -40.824 -49.129  12.868  1.00  0.00    -0.274 OA
HETATM    2  C   UNL     1     -41.814 -49.584  12.306  1.00  0.00     0.219 C 
HETATM    3  N   UNL     1     -42.290 -49.095  11.106  1.00  0.00    -0.361 N 
HETATM    4  H   UNL     1     -43.166 -49.448  10.742  1.00  0.00     0.162 HD
ENDROOT
BRANCH   2   5
HETATM    5  C   UNL     1     -42.595 -50.766  12.840  1.00  0.00     0.123 C 
BRANCH   5   6
HETATM    6  C   UNL     1     -42.080 -52.070  12.237  1.00  0.00     0.144 C 
BRANCH   6   7
HETATM    7  N   UNL     1     -41.650 -53.009  13.261  1.00  0.00    -0.287 N 
HETATM    8  C   UNL     1     -40.338 -53.196  13.645  1.00  0.00     0.231 C 
HETATM    9  O   UNL     1     -39.365 -52.545  13.310  1.00  0.00    -0.273 OA
HETATM   10  C   UNL     1     -40.341 -54.430  14.510  1.00  0.00     0.091 C 
HETATM   11  C   UNL     1     -39.265 -54.646  15.554  1.00  0.00     0.015 C 
HETATM   12  C   UNL     1     -41.702 -54.287  15.171  1.00  0.00     0.091 C 
HETATM   13  C   UNL     1     -39.609 -55.908  16.365  1.00  0.00     0.001 C 
HETATM   14  C   UNL     1     -41.036 -55.882  16.939  1.00  0.00     0.001 C 
HETATM   15  C   UNL     1     -42.099 -55.566  15.875  1.00  0.00     0.015 C 
HETATM   16  C   UNL     1     -42.519 -53.759  14.024  1.00  0.00     0.231 C 
HETATM   17  O   UNL     1     -43.722 -53.882  13.884  1.00  0.00    -0.273 OA
ENDBRANCH   6   7
ENDBRANCH   5   6
ENDBRANCH   2   5
BRANCH   3  18
HETATM   18  C   UNL     1     -41.662 -47.950  10.466  1.00  0.00     0.127 C 
BRANCH  18  19
HETATM   19  C   UNL     1     -42.678 -46.875  10.079  1.00  0.00     0.059 C 
BRANCH  19  20
HETATM   20  C   UNL     1     -43.832 -47.427   9.288  1.00  0.00    -0.041 A 
HETATM   21  C   UNL     1     -45.113 -47.525   9.840  1.00  0.00     0.010 A 
HETATM   22  C   UNL     1     -46.154 -48.048   9.080  1.00  0.00     0.018 A 
HETATM   23  C   UNL     1     -45.880 -48.461   7.787  1.00  0.00     0.087 A 
HETATM   24  N   UNL     1     -44.659 -48.387   7.220  1.00  0.00    -0.375 N 
HETATM   25  C   UNL     1     -43.665 -47.875   7.983  1.00  0.00     0.094 A 
ATOM     26  HN  UNL     1     -44.492 -48.701   6.264  1.00  0.00     0.164 HD
ENDBRANCH  19  20
ENDBRANCH  18  19
ENDBRANCH   3  18
TORSDOF 6
ENDMDL
MODEL 4
REMARK VINA RESULT:      -6.3      3.251      5.862
REMARK  6 active torsions:
REMARK  status: ('A' for Active; 'I' for Inactive)
REMARK    1  A    between atoms: C_2  and  C_3 
REMARK       I    between atoms: C_2  and  N_16 
REMARK    2  A    between atoms: C_3  and  C_4 
REMARK    3  A    between atoms: C_4  and  N_5 
REMARK    4  A    between atoms: N_16  and  C_17 
REMARK    5  A    between atoms: C_17  and  C_18 
REMARK    6  A    between atoms: C_18  and  C_19 
ROOT
HETATM    1  O   UNL     1     -44.369 -54.572  15.867  1.00  0.00    -0.274 OA
HETATM    2  C   UNL     1     -43.740 -54.243  14.868  1.00  0.00     0.219 C 
HETATM    3  N   UNL     1     -44.330 -53.663  13.764  1.00  0.00    -0.361 N 
HETATM    4  H   UNL     1     -43.773 -53.503  12.933  1.00  0.00     0.162 HD
ENDROOT
BRANCH   2   5
HETATM    5  C   UNL     1     -42.237 -54.389  14.754  1.00  0.00     0.123 C 
BRANCH   5   6
HETATM    6  C   UNL     1     -41.788 -54.241  13.304  1.00  0.00     0.144 C 
BRANCH   6   7
HETATM    7  N   UNL     1     -40.975 -53.051  13.105  1.00  0.00    -0.287 N 
HETATM    8  C   UNL     1     -41.465 -51.837  12.673  1.00  0.00     0.231 C 
HETATM    9  O   UNL     1     -42.630 -51.517  12.516  1.00  0.00    -0.273 OA
HETATM   10  C   UNL     1     -40.252 -51.000  12.354  1.00  0.00     0.091 C 
HETATM   11  C   UNL     1     -40.322 -49.488  12.398  1.00  0.00     0.015 C 
HETATM   12  C   UNL     1     -39.289 -51.519  13.410  1.00  0.00     0.091 C 
HETATM   13  C   UNL     1     -38.909 -48.921  12.167  1.00  0.00     0.001 C 
HETATM   14  C   UNL     1     -37.859 -49.523  13.117  1.00  0.00     0.001 C 
HETATM   15  C   UNL     1     -37.876 -51.060  13.124  1.00  0.00     0.015 C 
HETATM   16  C   UNL     1     -39.633 -52.983  13.411  1.00  0.00     0.231 C 
HETATM   17  O   UNL     1     -38.892 -53.894  13.735  1.00  0.00    -0.273 OA
ENDBRANCH   6   7
ENDBRANCH   5   6
ENDBRANCH   2   5
BRANCH   3  18
HETATM   18  C   UNL     1     -45.770 -53.465  13.705  1.00  0.00     0.127 C 
BRANCH  18  19
HETATM   19  C   UNL     1     -46.153 -51.986  13.728  1.00  0.00     0.059 C 
BRANCH  19  20
HETATM   20  C   UNL     1     -46.268 -51.439  15.124  1.00  0.00    -0.041 A 
HETATM   21  C   UNL     1     -47.455 -51.551  15.855  1.00  0.00     0.010 A 
HETATM   22  C   UNL     1     -47.525 -51.026  17.141  1.00  0.00     0.018 A 
HETATM   23  C   UNL     1     -46.404 -50.399  17.658  1.00  0.00     0.087 A 
HETATM   24  N   UNL     1     -45.243 -50.267  16.984  1.00  0.00    -0.375 N 
HETATM   25  C   UNL     1     -45.203 -50.787  15.735  1.00  0.00     0.094 A 
ATOM     26  HN  UNL     1     -44.435 -49.799  17.395  1.00  0.00     0.164 HD
ENDBRANCH  19  20
ENDBRANCH  18  19
ENDBRANCH   3  18
TORSDOF 6
ENDMDL
MODEL 5
REMARK VINA RESULT:      -6.3      2.713      4.599
REMARK  6 active torsions:
REMARK  status: ('A' for Active; 'I' for Inactive)
REMARK    1  A    between atoms: C_2  and  C_3 
REMARK       I    between atoms: C_2  and  N_16 
REMARK    2  A    between atoms: C_3  and  C_4 
REMARK    3  A    between atoms: C_4  and  N_5 
REMARK    4  A    between atoms: N_16  and  C_17 
REMARK    5  A    between atoms: C_17  and  C_18 
REMARK    6  A    between atoms: C_18  and  C_19 
ROOT
HETATM    1  O   UNL     1     -40.189 -51.169  14.987  1.00  0.00    -0.274 OA
HETATM    2  C   UNL     1     -39.622 -52.095  14.418  1.00  0.00     0.219 C 
HETATM    3  N   UNL     1     -38.416 -51.951  13.764  1.00  0.00    -0.361 N 
HETATM    4  H   UNL     1     -38.047 -52.729  13.231  1.00  0.00     0.162 HD
ENDROOT
BRANCH   2   5
HETATM    5  C   UNL     1     -40.157 -53.512  14.414  1.00  0.00     0.123 C 
BRANCH   5   6
HETATM    6  C   UNL     1     -41.070 -53.740  13.214  1.00  0.00     0.144 C 
BRANCH   6   7
HETATM    7  N   UNL     1     -42.455 -53.412  13.514  1.00  0.00    -0.287 N 
HETATM    8  C   UNL     1     -43.308 -54.220  14.236  1.00  0.00     0.231 C 
HETATM    9  O   UNL     1     -43.033 -55.242  14.839  1.00  0.00    -0.273 OA
HETATM   10  C   UNL     1     -44.680 -53.621  14.061  1.00  0.00     0.091 C 
HETATM   11  C   UNL     1     -45.761 -53.845  15.099  1.00  0.00     0.015 C 
HETATM   12  C   UNL     1     -44.316 -52.147  13.983  1.00  0.00     0.091 C 
HETATM   13  C   UNL     1     -46.992 -53.003  14.720  1.00  0.00     0.001 C 
HETATM   14  C   UNL     1     -46.655 -51.520  14.484  1.00  0.00     0.001 C 
HETATM   15  C   UNL     1     -45.491 -51.325  13.499  1.00  0.00     0.015 C 
HETATM   16  C   UNL     1     -43.045 -52.212  13.181  1.00  0.00     0.231 C 
HETATM   17  O   UNL     1     -42.592 -51.324  12.481  1.00  0.00    -0.273 OA
ENDBRANCH   6   7
ENDBRANCH   5   6
ENDBRANCH   2   5
BRANCH   3  18
HETATM   18  C   UNL     1     -37.773 -50.650  13.661  1.00  0.00     0.127 C 
BRANCH  18  19
HETATM   19  C   UNL     1     -37.710 -50.148  12.219  1.00  0.00     0.059 C 
BRANCH  19  20
HETATM   20  C   UNL     1     -38.951 -49.405  11.809  1.00  0.00    -0.041 A 
HETATM   21  C   UNL     1     -39.208 -48.107  12.262  1.00  0.00     0.010 A 
HETATM   22  C   UNL     1     -40.371 -47.456  11.867  1.00  0.00     0.018 A 
HETATM   23  C   UNL     1     -41.247 -48.125  11.029  1.00  0.00     0.087 A 
HETATM   24  N   UNL     1     -41.038 -49.377  10.573  1.00  0.00    -0.375 N 
HETATM   25  C   UNL     1     -39.899 -49.987  10.975  1.00  0.00     0.094 A 
ATOM     26  HN  UNL     1     -41.706 -49.841   9.957  1.00  0.00     0.164 HD
ENDBRANCH  19  20
ENDBRANCH  18  19
ENDBRANCH   3  18
TORSDOF 6
ENDMDL
MODEL 6
REMARK VINA RESULT:      -6.2      2.724      4.853
REMARK  6 active torsions:
REMARK  status: ('A' for Active; 'I' for Inactive)
REMARK    1  A    between atoms: C_2  and  C_3 
REMARK       I    between atoms: C_2  and  N_16 
REMARK    2  A    between atoms: C_3  and  C_4 
REMARK    3  A    between atoms: C_4  and  N_5 
REMARK    4  A    between atoms: N_16  and  C_17 
REMARK    5  A    between atoms: C_17  and  C_18 
REMARK    6  A    between atoms: C_18  and  C_19 
ROOT
HETATM    1  O   UNL     1     -40.156 -51.206  14.987  1.00  0.00    -0.274 OA
HETATM    2  C   UNL     1     -39.576 -52.116  14.405  1.00  0.00     0.219 C 
HETATM    3  N   UNL     1     -38.373 -51.946  13.751  1.00  0.00    -0.361 N 
HETATM    4  H   UNL     1     -37.994 -52.712  13.208  1.00  0.00     0.162 HD
ENDROOT
BRANCH   2   5
HETATM    5  C   UNL     1     -40.090 -53.541  14.385  1.00  0.00     0.123 C 
BRANCH   5   6
HETATM    6  C   UNL     1     -41.065 -53.746  13.229  1.00  0.00     0.144 C 
BRANCH   6   7
HETATM    7  N   UNL     1     -42.424 -53.374  13.592  1.00  0.00    -0.287 N 
HETATM    8  C   UNL     1     -43.032 -52.193  13.223  1.00  0.00     0.231 C 
HETATM    9  O   UNL     1     -42.613 -51.348  12.453  1.00  0.00    -0.273 OA
HETATM   10  C   UNL     1     -44.300 -52.119  14.034  1.00  0.00     0.091 C 
HETATM   11  C   UNL     1     -45.487 -51.315  13.545  1.00  0.00     0.015 C 
HETATM   12  C   UNL     1     -44.652 -53.595  14.109  1.00  0.00     0.091 C 
HETATM   13  C   UNL     1     -46.668 -51.543  14.506  1.00  0.00     0.001 C 
HETATM   14  C   UNL     1     -46.977 -53.032  14.735  1.00  0.00     0.001 C 
HETATM   15  C   UNL     1     -45.734 -53.842  15.138  1.00  0.00     0.015 C 
HETATM   16  C   UNL     1     -43.287 -54.204  14.275  1.00  0.00     0.231 C 
HETATM   17  O   UNL     1     -43.036 -55.271  14.805  1.00  0.00    -0.273 OA
ENDBRANCH   6   7
ENDBRANCH   5   6
ENDBRANCH   2   5
BRANCH   3  18
HETATM   18  C   UNL     1     -37.751 -50.635  13.664  1.00  0.00     0.127 C 
BRANCH  18  19
HETATM   19  C   UNL     1     -37.687 -50.119  12.227  1.00  0.00     0.059 C 
BRANCH  19  20
HETATM   20  C   UNL     1     -38.937 -49.391  11.816  1.00  0.00    -0.041 A 
HETATM   21  C   UNL     1     -39.207 -48.095  12.264  1.00  0.00     0.010 A 
HETATM   22  C   UNL     1     -40.378 -47.458  11.869  1.00  0.00     0.018 A 
HETATM   23  C   UNL     1     -41.249 -48.140  11.036  1.00  0.00     0.087 A 
HETATM   24  N   UNL     1     -41.028 -49.391  10.586  1.00  0.00    -0.375 N 
HETATM   25  C   UNL     1     -39.881 -49.988  10.987  1.00  0.00     0.094 A 
ATOM     26  HN  UNL     1     -41.691 -49.866   9.973  1.00  0.00     0.164 HD
ENDBRANCH  19  20
ENDBRANCH  18  19
ENDBRANCH   3  18
TORSDOF 6
ENDMDL
MODEL 7
REMARK VINA RESULT:      -6.2      2.693      3.693
REMARK  6 active torsions:
REMARK  status: ('A' for Active; 'I' for Inactive)
REMARK    1  A    between atoms: C_2  and  C_3 
REMARK       I    between atoms: C_2  and  N_16 
REMARK    2  A    between atoms: C_3  and  C_4 
REMARK    3  A    between atoms: C_4  and  N_5 
REMARK    4  A    between atoms: N_16  and  C_17 
REMARK    5  A    between atoms: C_17  and  C_18 
REMARK    6  A    between atoms: C_18  and  C_19 
ROOT
HETATM    1  O   UNL     1     -46.030 -51.284  13.497  1.00  0.00    -0.274 OA
HETATM    2  C   UNL     1     -45.888 -51.766  14.614  1.00  0.00     0.219 C 
HETATM    3  N   UNL     1     -45.038 -51.233  15.562  1.00  0.00    -0.361 N 
HETATM    4  H   UNL     1     -44.891 -51.733  16.431  1.00  0.00     0.162 HD
ENDROOT
BRANCH   2   5
HETATM    5  C   UNL     1     -46.668 -52.971  15.098  1.00  0.00     0.123 C 
BRANCH   5   6
HETATM    6  C   UNL     1     -46.137 -54.250  14.458  1.00  0.00     0.144 C 
BRANCH   6   7
HETATM    7  N   UNL     1     -44.683 -54.281  14.429  1.00  0.00    -0.287 N 
HETATM    8  C   UNL     1     -43.924 -54.089  13.294  1.00  0.00     0.231 C 
HETATM    9  O   UNL     1     -44.307 -53.743  12.191  1.00  0.00    -0.273 OA
HETATM   10  C   UNL     1     -42.518 -54.475  13.677  1.00  0.00     0.091 C 
HETATM   11  C   UNL     1     -41.328 -53.897  12.939  1.00  0.00     0.015 C 
HETATM   12  C   UNL     1     -42.509 -54.032  15.130  1.00  0.00     0.091 C 
HETATM   13  C   UNL     1     -40.039 -54.362  13.639  1.00  0.00     0.001 C 
HETATM   14  C   UNL     1     -40.037 -54.069  15.149  1.00  0.00     0.001 C 
HETATM   15  C   UNL     1     -41.301 -54.583  15.857  1.00  0.00     0.015 C 
HETATM   16  C   UNL     1     -43.899 -54.420  15.553  1.00  0.00     0.231 C 
HETATM   17  O   UNL     1     -44.257 -54.684  16.687  1.00  0.00    -0.273 OA
ENDBRANCH   6   7
ENDBRANCH   5   6
ENDBRANCH   2   5
BRANCH   3  18
HETATM   18  C   UNL     1     -44.203 -50.083  15.252  1.00  0.00     0.127 C 
BRANCH  18  19
HETATM   19  C   UNL     1     -42.716 -50.377  15.453  1.00  0.00     0.059 C 
BRANCH  19  20
HETATM   20  C   UNL     1     -41.954 -50.418  14.157  1.00  0.00    -0.041 A 
HETATM   21  C   UNL     1     -40.556 -50.449  14.134  1.00  0.00     0.010 A 
HETATM   22  C   UNL     1     -39.887 -50.479  12.916  1.00  0.00     0.018 A 
HETATM   23  C   UNL     1     -40.638 -50.475  11.752  1.00  0.00     0.087 A 
HETATM   24  N   UNL     1     -41.986 -50.442  11.732  1.00  0.00    -0.375 N 
HETATM   25  C   UNL     1     -42.611 -50.412  12.932  1.00  0.00     0.094 A 
ATOM     26  HN  UNL     1     -42.508 -50.439  10.856  1.00  0.00     0.164 HD
ENDBRANCH  19  20
ENDBRANCH  18  19
ENDBRANCH   3  18
TORSDOF 6
ENDMDL
MODEL 8
REMARK VINA RESULT:      -6.2      2.267      4.364
REMARK  6 active torsions:
REMARK  status: ('A' for Active; 'I' for Inactive)
REMARK    1  A    between atoms: C_2  and  C_3 
REMARK       I    between atoms: C_2  and  N_16 
REMARK    2  A    between atoms: C_3  and  C_4 
REMARK    3  A    between atoms: C_4  and  N_5 
REMARK    4  A    between atoms: N_16  and  C_17 
REMARK    5  A    between atoms: C_17  and  C_18 
REMARK    6  A    between atoms: C_18  and  C_19 
ROOT
HETATM    1  O   UNL     1     -37.989 -51.673  13.215  1.00  0.00    -0.274 OA
HETATM    2  C   UNL     1     -39.215 -51.656  13.214  1.00  0.00     0.219 C 
HETATM    3  N   UNL     1     -39.956 -50.816  12.409  1.00  0.00    -0.361 N 
HETATM    4  H   UNL     1     -40.961 -50.781  12.525  1.00  0.00     0.162 HD
ENDROOT
BRANCH   2   5
HETATM    5  C   UNL     1     -40.053 -52.594  14.059  1.00  0.00     0.123 C 
BRANCH   5   6
HETATM    6  C   UNL     1     -41.044 -53.361  13.191  1.00  0.00     0.144 C 
BRANCH   6   7
HETATM    7  N   UNL     1     -42.421 -53.111  13.587  1.00  0.00    -0.287 N 
HETATM    8  C   UNL     1     -43.125 -51.966  13.277  1.00  0.00     0.231 C 
HETATM    9  O   UNL     1     -42.784 -51.060  12.538  1.00  0.00    -0.273 OA
HETATM   10  C   UNL     1     -44.380 -52.024  14.109  1.00  0.00     0.091 C 
HETATM   11  C   UNL     1     -45.634 -51.295  13.670  1.00  0.00     0.015 C 
HETATM   12  C   UNL     1     -44.617 -53.525  14.126  1.00  0.00     0.091 C 
HETATM   13  C   UNL     1     -46.777 -51.652  14.636  1.00  0.00     0.001 C 
HETATM   14  C   UNL     1     -46.967 -53.169  14.806  1.00  0.00     0.001 C 
HETATM   15  C   UNL     1     -45.660 -53.896  15.158  1.00  0.00     0.015 C 
HETATM   16  C   UNL     1     -43.207 -54.032  14.246  1.00  0.00     0.231 C 
HETATM   17  O   UNL     1     -42.866 -55.098  14.727  1.00  0.00    -0.273 OA
ENDBRANCH   6   7
ENDBRANCH   5   6
ENDBRANCH   2   5
BRANCH   3  18
HETATM   18  C   UNL     1     -39.304 -49.841  11.549  1.00  0.00     0.127 C 
BRANCH  18  19
HETATM   19  C   UNL     1     -39.533 -48.406  12.021  1.00  0.00     0.059 C 
BRANCH  19  20
HETATM   20  C   UNL     1     -40.590 -47.694  11.223  1.00  0.00    -0.041 A 
HETATM   21  C   UNL     1     -41.757 -48.346  10.813  1.00  0.00     0.010 A 
HETATM   22  C   UNL     1     -42.708 -47.656  10.069  1.00  0.00     0.018 A 
HETATM   23  C   UNL     1     -42.461 -46.331   9.753  1.00  0.00     0.087 A 
HETATM   24  N   UNL     1     -41.347 -45.668  10.125  1.00  0.00    -0.375 N 
HETATM   25  C   UNL     1     -40.438 -46.364  10.848  1.00  0.00     0.094 A 
ATOM     26  HN  UNL     1     -41.196 -44.691   9.875  1.00  0.00     0.164 HD
ENDBRANCH  19  20
ENDBRANCH  18  19
ENDBRANCH   3  18
TORSDOF 6
ENDMDL
MODEL 9
REMARK VINA RESULT:      -6.2      2.455      4.321
REMARK  6 active torsions:
REMARK  status: ('A' for Active; 'I' for Inactive)
REMARK    1  A    between atoms: C_2  and  C_3 
REMARK       I    between atoms: C_2  and  N_16 
REMARK    2  A    between atoms: C_3  and  C_4 
REMARK    3  A    between atoms: C_4  and  N_5 
REMARK    4  A    between atoms: N_16  and  C_17 
REMARK    5  A    between atoms: C_17  and  C_18 
REMARK    6  A    between atoms: C_18  and  C_19 
ROOT
HETATM    1  O   UNL     1     -38.134 -48.633  12.882  1.00  0.00    -0.274 OA
HETATM    2  C   UNL     1     -38.973 -49.239  12.224  1.00  0.00     0.219 C 
HETATM    3  N   UNL     1     -39.903 -48.606  11.425  1.00  0.00    -0.361 N 
HETATM    4  H   UNL     1     -40.630 -49.156  10.984  1.00  0.00     0.162 HD
ENDROOT
BRANCH   2   5
HETATM    5  C   UNL     1     -39.048 -50.751  12.175  1.00  0.00     0.123 C 
BRANCH   5   6
HETATM    6  C   UNL     1     -39.612 -51.306  13.479  1.00  0.00     0.144 C 
BRANCH   6   7
HETATM    7  N   UNL     1     -41.038 -51.578  13.383  1.00  0.00    -0.287 N 
HETATM    8  C   UNL     1     -42.026 -50.655  13.653  1.00  0.00     0.231 C 
HETATM    9  O   UNL     1     -41.893 -49.466  13.880  1.00  0.00    -0.273 OA
HETATM   10  C   UNL     1     -43.313 -51.438  13.691  1.00  0.00     0.091 C 
HETATM   11  C   UNL     1     -44.639 -50.765  13.398  1.00  0.00     0.015 C 
HETATM   12  C   UNL     1     -43.010 -52.494  12.640  1.00  0.00     0.091 C 
HETATM   13  C   UNL     1     -45.742 -51.838  13.374  1.00  0.00     0.001 C 
HETATM   14  C   UNL     1     -45.420 -53.010  12.431  1.00  0.00     0.001 C 
HETATM   15  C   UNL     1     -44.029 -53.612  12.688  1.00  0.00     0.015 C 
HETATM   16  C   UNL     1     -41.560 -52.768  12.925  1.00  0.00     0.231 C 
HETATM   17  O   UNL     1     -40.963 -53.802  12.682  1.00  0.00    -0.273 OA
ENDBRANCH   6   7
ENDBRANCH   5   6
ENDBRANCH   2   5
BRANCH   3  18
HETATM   18  C   UNL     1     -39.977 -47.155  11.371  1.00  0.00     0.127 C 
BRANCH  18  19
HETATM   19  C   UNL     1     -41.307 -46.623  11.902  1.00  0.00     0.059 C 
BRANCH  19  20
HETATM   20  C   UNL     1     -42.433 -46.790  10.919  1.00  0.00    -0.041 A 
HETATM   21  C   UNL     1     -42.557 -45.957   9.804  1.00  0.00     0.010 A 
HETATM   22  C   UNL     1     -43.616 -46.138   8.921  1.00  0.00     0.018 A 
HETATM   23  C   UNL     1     -44.525 -47.150   9.183  1.00  0.00     0.087 A 
HETATM   24  N   UNL     1     -44.443 -47.971  10.249  1.00  0.00    -0.375 N 
HETATM   25  C   UNL     1     -43.403 -47.772  11.092  1.00  0.00     0.094 A 
ATOM     26  HN  UNL     1     -45.130 -48.707  10.413  1.00  0.00     0.164 HD
ENDBRANCH  19  20
ENDBRANCH  18  19
ENDBRANCH   3  18
TORSDOF 6
ENDMDL
