MODEL 1
REMARK VINA RESULT:      -5.9      0.000      0.000
REMARK  3 active torsions:
REMARK  status: ('A' for Active; 'I' for Inactive)
REMARK       I    between atoms: N_1  and  C_2 
REMARK    1  A    between atoms: C_2  and  C_4 
REMARK    2  A    between atoms: C_4  and  N_5 
REMARK    3  A    between atoms: C_7  and  N_8 
REMARK       I    between atoms: N_8  and  C_9 
REMARK       I    between atoms: C_9  and  N_11 
ROOT
HETATM    1  N   UNL     1     -43.537 -46.706   9.745  1.00  0.00    -0.293 N 
HETATM    2  C   UNL     1     -42.680 -47.762   9.630  1.00  0.00     0.141 A 
HETATM    3  C   UNL     1     -41.781 -47.661  10.662  1.00  0.00     0.070 A 
HETATM    4  C   UNL     1     -42.210 -46.520  11.378  1.00  0.00     0.138 A 
HETATM    5  N   UNL     1     -43.285 -45.939  10.833  1.00  0.00    -0.307 N 
ATOM      6  HN  UNL     1     -43.794 -45.117  11.158  1.00  0.00     0.186 HD
ENDROOT
BRANCH   3   7
HETATM    7  N   UNL     1     -40.706 -48.489  10.945  1.00  0.00    -0.306 N 
HETATM    8  C   UNL     1     -40.788 -49.648  11.679  1.00  0.00     0.323 C 
HETATM    9  O   UNL     1     -41.835 -50.127  12.116  1.00  0.00    -0.247 OA
HETATM   10  N   UNL     1     -39.578 -50.256  11.949  1.00  0.00    -0.334 N 
HETATM   11  C   UNL     1     -38.248 -49.891  11.501  1.00  0.00     0.127 C 
HETATM   12  C   UNL     1     -39.531 -51.427  12.803  1.00  0.00     0.127 C 
HETATM   13  C   UNL     1     -37.292 -50.762  12.314  1.00  0.00     0.022 C 
HETATM   14  C   UNL     1     -38.152 -51.352  13.426  1.00  0.00     0.022 C 
HETATM   15  H   UNL     1     -39.810 -48.208  10.583  1.00  0.00     0.171 HD
ENDBRANCH   3   7
BRANCH   1  16
HETATM   16  C   UNL     1     -44.583 -46.346   8.804  1.00  0.00     0.250 C 
BRANCH  16  17
HETATM   17  C   UNL     1     -45.784 -47.268   8.784  1.00  0.00     0.235 C 
HETATM   18  N   UNL     1     -45.720 -48.417   8.055  1.00  0.00    -0.369 N 
HETATM   19  H   UNL     1     -46.491 -49.064   8.161  1.00  0.00     0.159 HD
HETATM   20  H   UNL     1     -44.808 -48.810   7.828  1.00  0.00     0.159 HD
HETATM   21  O   UNL     1     -46.812 -46.999   9.402  1.00  0.00    -0.272 OA
ENDBRANCH  16  17
ENDBRANCH   1  16
TORSDOF 3
ENDMDL
MODEL 2
REMARK VINA RESULT:      -5.7      4.781      7.509
REMARK  3 active torsions:
REMARK  status: ('A' for Active; 'I' for Inactive)
REMARK       I    between atoms: N_1  and  C_2 
REMARK    1  A    between atoms: C_2  and  C_4 
REMARK    2  A    between atoms: C_4  and  N_5 
REMARK    3  A    between atoms: C_7  and  N_8 
REMARK       I    between atoms: N_8  and  C_9 
REMARK       I    between atoms: C_9  and  N_11 
ROOT
HETATM    1  N   UNL     1     -38.994 -50.925  13.574  1.00  0.00    -0.293 N 
HETATM    2  C   UNL     1     -40.301 -50.532  13.557  1.00  0.00     0.141 A 
HETATM    3  C   UNL     1     -41.038 -51.573  14.066  1.00  0.00     0.070 A 
HETATM    4  C   UNL     1     -40.067 -52.544  14.404  1.00  0.00     0.138 A 
HETATM    5  N   UNL     1     -38.820 -52.153  14.119  1.00  0.00    -0.307 N 
ATOM      6  HN  UNL     1     -37.947 -52.658  14.274  1.00  0.00     0.186 HD
ENDROOT
BRANCH   3   7
HETATM    7  N   UNL     1     -42.413 -51.653  14.223  1.00  0.00    -0.306 N 
HETATM    8  C   UNL     1     -43.267 -52.234  13.317  1.00  0.00     0.323 C 
HETATM    9  O   UNL     1     -42.910 -52.815  12.292  1.00  0.00    -0.247 OA
HETATM   10  N   UNL     1     -44.609 -52.095  13.607  1.00  0.00    -0.334 N 
HETATM   11  C   UNL     1     -45.240 -51.496  14.768  1.00  0.00     0.127 C 
HETATM   12  C   UNL     1     -45.605 -52.577  12.670  1.00  0.00     0.127 C 
HETATM   13  C   UNL     1     -46.725 -51.401  14.420  1.00  0.00     0.022 C 
HETATM   14  C   UNL     1     -46.792 -51.667  12.920  1.00  0.00     0.022 C 
HETATM   15  H   UNL     1     -42.796 -51.250  15.062  1.00  0.00     0.171 HD
ENDBRANCH   3   7
BRANCH   1  16
HETATM   16  C   UNL     1     -37.871 -50.187  13.023  1.00  0.00     0.250 C 
BRANCH  16  17
HETATM   17  C   UNL     1     -37.268 -50.767  11.762  1.00  0.00     0.235 C 
HETATM   18  N   UNL     1     -37.351 -50.055  10.603  1.00  0.00    -0.369 N 
HETATM   19  H   UNL     1     -36.835 -50.416   9.812  1.00  0.00     0.159 HD
HETATM   20  H   UNL     1     -37.490 -49.047  10.651  1.00  0.00     0.159 HD
HETATM   21  O   UNL     1     -36.715 -51.865  11.759  1.00  0.00    -0.272 OA
ENDBRANCH  16  17
ENDBRANCH   1  16
TORSDOF 3
ENDMDL
MODEL 3
REMARK VINA RESULT:      -5.6      3.071      4.404
REMARK  3 active torsions:
REMARK  status: ('A' for Active; 'I' for Inactive)
REMARK       I    between atoms: N_1  and  C_2 
REMARK    1  A    between atoms: C_2  and  C_4 
REMARK    2  A    between atoms: C_4  and  N_5 
REMARK    3  A    between atoms: C_7  and  N_8 
REMARK       I    between atoms: N_8  and  C_9 
REMARK       I    between atoms: C_9  and  N_11 
ROOT
HETATM    1  N   UNL     1     -40.476 -46.627  11.243  1.00  0.00    -0.293 N 
HETATM    2  C   UNL     1     -40.211 -47.826  11.837  1.00  0.00     0.141 A 
HETATM    3  C   UNL     1     -41.042 -48.752  11.257  1.00  0.00     0.070 A 
HETATM    4  C   UNL     1     -41.751 -48.011  10.284  1.00  0.00     0.138 A 
HETATM    5  N   UNL     1     -41.404 -46.719  10.260  1.00  0.00    -0.307 N 
ATOM      6  HN  UNL     1     -41.753 -45.981   9.649  1.00  0.00     0.186 HD
ENDROOT
BRANCH   3   7
HETATM    7  N   UNL     1     -41.157 -50.102  11.550  1.00  0.00    -0.306 N 
HETATM    8  C   UNL     1     -42.119 -50.643  12.368  1.00  0.00     0.323 C 
HETATM    9  O   UNL     1     -43.037 -50.005  12.885  1.00  0.00    -0.247 OA
HETATM   10  N   UNL     1     -41.978 -51.992  12.626  1.00  0.00    -0.334 N 
HETATM   11  C   UNL     1     -41.010 -52.931  12.092  1.00  0.00     0.127 C 
HETATM   12  C   UNL     1     -42.873 -52.648  13.558  1.00  0.00     0.127 C 
HETATM   13  C   UNL     1     -41.178 -54.203  12.920  1.00  0.00     0.022 C 
HETATM   14  C   UNL     1     -42.034 -53.783  14.111  1.00  0.00     0.022 C 
HETATM   15  H   UNL     1     -40.480 -50.716  11.127  1.00  0.00     0.171 HD
ENDBRANCH   3   7
BRANCH   1  16
HETATM   16  C   UNL     1     -39.912 -45.342  11.619  1.00  0.00     0.250 C 
BRANCH  16  17
HETATM   17  C   UNL     1     -39.958 -44.274  10.547  1.00  0.00     0.235 C 
HETATM   18  N   UNL     1     -40.454 -43.044  10.863  1.00  0.00    -0.369 N 
HETATM   19  H   UNL     1     -40.358 -42.324  10.160  1.00  0.00     0.159 HD
HETATM   20  H   UNL     1     -40.461 -42.749  11.838  1.00  0.00     0.159 HD
HETATM   21  O   UNL     1     -39.568 -44.494   9.402  1.00  0.00    -0.272 OA
ENDBRANCH  16  17
ENDBRANCH   1  16
TORSDOF 3
ENDMDL
MODEL 4
REMARK VINA RESULT:      -5.5      2.074      2.251
REMARK  3 active torsions:
REMARK  status: ('A' for Active; 'I' for Inactive)
REMARK       I    between atoms: N_1  and  C_2 
REMARK    1  A    between atoms: C_2  and  C_4 
REMARK    2  A    between atoms: C_4  and  N_5 
REMARK    3  A    between atoms: C_7  and  N_8 
REMARK       I    between atoms: N_8  and  C_9 
REMARK       I    between atoms: C_9  and  N_11 
ROOT
HETATM    1  N   UNL     1     -42.974 -47.688   9.959  1.00  0.00    -0.293 N 
HETATM    2  C   UNL     1     -41.651 -47.603  10.282  1.00  0.00     0.141 A 
HETATM    3  C   UNL     1     -41.524 -48.063  11.570  1.00  0.00     0.070 A 
HETATM    4  C   UNL     1     -42.838 -48.445  11.926  1.00  0.00     0.138 A 
HETATM    5  N   UNL     1     -43.725 -48.231  10.947  1.00  0.00    -0.307 N 
ATOM      6  HN  UNL     1     -44.725 -48.429  10.944  1.00  0.00     0.186 HD
ENDROOT
BRANCH   3   7
HETATM    7  N   UNL     1     -40.376 -48.143  12.341  1.00  0.00    -0.306 N 
HETATM    8  C   UNL     1     -39.540 -49.234  12.383  1.00  0.00     0.323 C 
HETATM    9  O   UNL     1     -39.672 -50.243  11.690  1.00  0.00    -0.247 OA
HETATM   10  N   UNL     1     -38.521 -49.155  13.311  1.00  0.00    -0.334 N 
HETATM   11  C   UNL     1     -38.161 -48.055  14.187  1.00  0.00     0.127 C 
HETATM   12  C   UNL     1     -37.641 -50.287  13.518  1.00  0.00     0.127 C 
HETATM   13  C   UNL     1     -37.130 -48.629  15.157  1.00  0.00     0.022 C 
HETATM   14  C   UNL     1     -37.212 -50.140  14.964  1.00  0.00     0.022 C 
HETATM   15  H   UNL     1     -40.153 -47.340  12.906  1.00  0.00     0.171 HD
ENDBRANCH   3   7
BRANCH   1  16
HETATM   16  C   UNL     1     -43.588 -47.205   8.734  1.00  0.00     0.250 C 
BRANCH  16  17
HETATM   17  C   UNL     1     -44.392 -45.930   8.869  1.00  0.00     0.235 C 
HETATM   18  N   UNL     1     -45.752 -46.002   8.841  1.00  0.00    -0.369 N 
HETATM   19  H   UNL     1     -46.255 -45.150   9.054  1.00  0.00     0.159 HD
HETATM   20  H   UNL     1     -46.206 -46.883   9.072  1.00  0.00     0.159 HD
HETATM   21  O   UNL     1     -43.846 -44.835   8.995  1.00  0.00    -0.272 OA
ENDBRANCH  16  17
ENDBRANCH   1  16
TORSDOF 3
ENDMDL
MODEL 5
REMARK VINA RESULT:      -5.5      3.560      4.935
REMARK  3 active torsions:
REMARK  status: ('A' for Active; 'I' for Inactive)
REMARK       I    between atoms: N_1  and  C_2 
REMARK    1  A    between atoms: C_2  and  C_4 
REMARK    2  A    between atoms: C_4  and  N_5 
REMARK    3  A    between atoms: C_7  and  N_8 
REMARK       I    between atoms: N_8  and  C_9 
REMARK       I    between atoms: C_9  and  N_11 
ROOT
HETATM    1  N   UNL     1     -40.676 -47.028  11.111  1.00  0.00    -0.293 N 
HETATM    2  C   UNL     1     -40.971 -47.978  12.046  1.00  0.00     0.141 A 
HETATM    3  C   UNL     1     -42.051 -48.683  11.574  1.00  0.00     0.070 A 
HETATM    4  C   UNL     1     -42.312 -48.101  10.312  1.00  0.00     0.138 A 
HETATM    5  N   UNL     1     -41.472 -47.101  10.017  1.00  0.00    -0.307 N 
ATOM      6  HN  UNL     1     -41.439 -46.531   9.173  1.00  0.00     0.186 HD
ENDROOT
BRANCH   3   7
HETATM    7  N   UNL     1     -42.726 -49.727  12.186  1.00  0.00    -0.306 N 
HETATM    8  C   UNL     1     -42.239 -51.007  12.301  1.00  0.00     0.323 C 
HETATM    9  O   UNL     1     -41.118 -51.365  11.938  1.00  0.00    -0.247 OA
HETATM   10  N   UNL     1     -43.123 -51.924  12.834  1.00  0.00    -0.334 N 
HETATM   11  C   UNL     1     -44.458 -51.711  13.361  1.00  0.00     0.127 C 
HETATM   12  C   UNL     1     -42.758 -53.324  12.908  1.00  0.00     0.127 C 
HETATM   13  C   UNL     1     -45.041 -53.107  13.568  1.00  0.00     0.022 C 
HETATM   14  C   UNL     1     -44.091 -54.040  12.825  1.00  0.00     0.022 C 
HETATM   15  H   UNL     1     -43.635 -49.518  12.565  1.00  0.00     0.171 HD
ENDBRANCH   3   7
BRANCH   1  16
HETATM   16  C   UNL     1     -39.678 -45.982  11.240  1.00  0.00     0.250 C 
BRANCH  16  17
HETATM   17  C   UNL     1     -39.680 -44.944  10.138  1.00  0.00     0.235 C 
HETATM   18  N   UNL     1     -38.770 -45.052   9.129  1.00  0.00    -0.369 N 
HETATM   19  H   UNL     1     -38.879 -44.413   8.351  1.00  0.00     0.159 HD
HETATM   20  H   UNL     1     -38.353 -45.960   8.934  1.00  0.00     0.159 HD
HETATM   21  O   UNL     1     -40.475 -44.006  10.139  1.00  0.00    -0.272 OA
ENDBRANCH  16  17
ENDBRANCH   1  16
TORSDOF 3
ENDMDL
MODEL 6
REMARK VINA RESULT:      -5.4      4.757      7.314
REMARK  3 active torsions:
REMARK  status: ('A' for Active; 'I' for Inactive)
REMARK       I    between atoms: N_1  and  C_2 
REMARK    1  A    between atoms: C_2  and  C_4 
REMARK    2  A    between atoms: C_4  and  N_5 
REMARK    3  A    between atoms: C_7  and  N_8 
REMARK       I    between atoms: N_8  and  C_9 
REMARK       I    between atoms: C_9  and  N_11 
ROOT
HETATM    1  N   UNL     1     -40.580 -50.733  12.233  1.00  0.00    -0.293 N 
HETATM    2  C   UNL     1     -41.398 -50.646  13.323  1.00  0.00     0.141 A 
HETATM    3  C   UNL     1     -42.298 -51.679  13.230  1.00  0.00     0.070 A 
HETATM    4  C   UNL     1     -41.909 -52.365  12.056  1.00  0.00     0.138 A 
HETATM    5  N   UNL     1     -40.856 -51.803  11.450  1.00  0.00    -0.307 N 
ATOM      6  HN  UNL     1     -40.377 -52.106  10.603  1.00  0.00     0.186 HD
ENDROOT
BRANCH   3   7
HETATM    7  N   UNL     1     -43.341 -51.986  14.089  1.00  0.00    -0.306 N 
HETATM    8  C   UNL     1     -44.645 -51.594  13.903  1.00  0.00     0.323 C 
HETATM    9  O   UNL     1     -45.057 -50.984  12.916  1.00  0.00    -0.247 OA
HETATM   10  N   UNL     1     -45.502 -51.899  14.941  1.00  0.00    -0.334 N 
HETATM   11  C   UNL     1     -45.239 -52.643  16.159  1.00  0.00     0.127 C 
HETATM   12  C   UNL     1     -46.877 -51.445  14.902  1.00  0.00     0.127 C 
HETATM   13  C   UNL     1     -46.475 -52.441  17.033  1.00  0.00     0.022 C 
HETATM   14  C   UNL     1     -47.243 -51.305  16.366  1.00  0.00     0.022 C 
HETATM   15  H   UNL     1     -43.111 -52.532  14.903  1.00  0.00     0.171 HD
ENDBRANCH   3   7
BRANCH   1  16
HETATM   16  C   UNL     1     -39.550 -49.780  11.859  1.00  0.00     0.250 C 
BRANCH  16  17
HETATM   17  C   UNL     1     -38.181 -50.372  11.597  1.00  0.00     0.235 C 
HETATM   18  N   UNL     1     -37.447 -49.898  10.551  1.00  0.00    -0.369 N 
HETATM   19  H   UNL     1     -36.494 -50.231  10.480  1.00  0.00     0.159 HD
HETATM   20  H   UNL     1     -37.647 -48.969  10.187  1.00  0.00     0.159 HD
HETATM   21  O   UNL     1     -37.724 -51.272  12.300  1.00  0.00    -0.272 OA
ENDBRANCH  16  17
ENDBRANCH   1  16
TORSDOF 3
ENDMDL
MODEL 7
REMARK VINA RESULT:      -5.4      2.837      3.692
REMARK  3 active torsions:
REMARK  status: ('A' for Active; 'I' for Inactive)
REMARK       I    between atoms: N_1  and  C_2 
REMARK    1  A    between atoms: C_2  and  C_4 
REMARK    2  A    between atoms: C_4  and  N_5 
REMARK    3  A    between atoms: C_7  and  N_8 
REMARK       I    between atoms: N_8  and  C_9 
REMARK       I    between atoms: C_9  and  N_11 
ROOT
HETATM    1  N   UNL     1     -42.022 -47.026  10.816  1.00  0.00    -0.293 N 
HETATM    2  C   UNL     1     -42.859 -47.916  11.426  1.00  0.00     0.141 A 
HETATM    3  C   UNL     1     -42.173 -49.100  11.535  1.00  0.00     0.070 A 
HETATM    4  C   UNL     1     -40.901 -48.808  10.993  1.00  0.00     0.138 A 
HETATM    5  N   UNL     1     -40.797 -47.544  10.563  1.00  0.00    -0.307 N 
ATOM      6  HN  UNL     1     -39.989 -47.082  10.146  1.00  0.00     0.186 HD
ENDROOT
BRANCH   3   7
HETATM    7  N   UNL     1     -42.618 -50.302  12.063  1.00  0.00    -0.306 N 
HETATM    8  C   UNL     1     -42.202 -50.828  13.262  1.00  0.00     0.323 C 
HETATM    9  O   UNL     1     -41.437 -50.264  14.045  1.00  0.00    -0.247 OA
HETATM   10  N   UNL     1     -42.675 -52.095  13.541  1.00  0.00    -0.334 N 
HETATM   11  C   UNL     1     -43.609 -52.911  12.788  1.00  0.00     0.127 C 
HETATM   12  C   UNL     1     -42.220 -52.792  14.727  1.00  0.00     0.127 C 
HETATM   13  C   UNL     1     -43.554 -54.293  13.437  1.00  0.00     0.022 C 
HETATM   14  C   UNL     1     -42.324 -54.253  14.337  1.00  0.00     0.022 C 
HETATM   15  H   UNL     1     -43.291 -50.814  11.516  1.00  0.00     0.171 HD
ENDBRANCH   3   7
BRANCH   1  16
HETATM   16  C   UNL     1     -42.365 -45.680  10.394  1.00  0.00     0.250 C 
BRANCH  16  17
HETATM   17  C   UNL     1     -43.251 -45.588   9.170  1.00  0.00     0.235 C 
HETATM   18  N   UNL     1     -43.106 -46.515   8.181  1.00  0.00    -0.369 N 
HETATM   19  H   UNL     1     -43.793 -46.495   7.438  1.00  0.00     0.159 HD
HETATM   20  H   UNL     1     -42.685 -47.415   8.404  1.00  0.00     0.159 HD
HETATM   21  O   UNL     1     -44.087 -44.695   9.045  1.00  0.00    -0.272 OA
ENDBRANCH  16  17
ENDBRANCH   1  16
TORSDOF 3
ENDMDL
MODEL 8
REMARK VINA RESULT:      -5.2      3.937      6.423
REMARK  3 active torsions:
REMARK  status: ('A' for Active; 'I' for Inactive)
REMARK       I    between atoms: N_1  and  C_2 
REMARK    1  A    between atoms: C_2  and  C_4 
REMARK    2  A    between atoms: C_4  and  N_5 
REMARK    3  A    between atoms: C_7  and  N_8 
REMARK       I    between atoms: N_8  and  C_9 
REMARK       I    between atoms: C_9  and  N_11 
ROOT
HETATM    1  N   UNL     1     -40.701 -50.925  11.822  1.00  0.00    -0.293 N 
HETATM    2  C   UNL     1     -41.162 -49.649  11.669  1.00  0.00     0.141 A 
HETATM    3  C   UNL     1     -40.061 -48.839  11.542  1.00  0.00     0.070 A 
HETATM    4  C   UNL     1     -38.970 -49.737  11.591  1.00  0.00     0.138 A 
HETATM    5  N   UNL     1     -39.352 -51.010  11.749  1.00  0.00    -0.307 N 
ATOM      6  HN  UNL     1     -38.767 -51.844  11.803  1.00  0.00     0.186 HD
ENDROOT
BRANCH   3   7
HETATM    7  N   UNL     1     -40.023 -47.462  11.392  1.00  0.00    -0.306 N 
HETATM    8  C   UNL     1     -39.692 -46.578  12.391  1.00  0.00     0.323 C 
HETATM    9  O   UNL     1     -39.321 -46.904  13.518  1.00  0.00    -0.247 OA
HETATM   10  N   UNL     1     -39.838 -45.245  12.065  1.00  0.00    -0.334 N 
HETATM   11  C   UNL     1     -40.213 -44.646  10.797  1.00  0.00     0.127 C 
HETATM   12  C   UNL     1     -39.618 -44.225  13.071  1.00  0.00     0.127 C 
HETATM   13  C   UNL     1     -40.458 -43.169  11.102  1.00  0.00     0.022 C 
HETATM   14  C   UNL     1     -40.517 -43.090  12.624  1.00  0.00     0.022 C 
HETATM   15  H   UNL     1     -40.260 -47.099  10.483  1.00  0.00     0.171 HD
ENDBRANCH   3   7
BRANCH   1  16
HETATM   16  C   UNL     1     -41.510 -52.098  12.103  1.00  0.00     0.250 C 
BRANCH  16  17
HETATM   17  C   UNL     1     -40.781 -53.244  12.772  1.00  0.00     0.235 C 
HETATM   18  N   UNL     1     -40.858 -54.487  12.219  1.00  0.00    -0.369 N 
HETATM   19  H   UNL     1     -40.263 -55.199  12.624  1.00  0.00     0.159 HD
HETATM   20  H   UNL     1     -41.090 -54.576  11.232  1.00  0.00     0.159 HD
HETATM   21  O   UNL     1     -40.132 -53.079  13.804  1.00  0.00    -0.272 OA
ENDBRANCH  16  17
ENDBRANCH   1  16
TORSDOF 3
ENDMDL
MODEL 9
REMARK VINA RESULT:      -5.1      5.606      6.391
REMARK  3 active torsions:
REMARK  status: ('A' for Active; 'I' for Inactive)
REMARK       I    between atoms: N_1  and  C_2 
REMARK    1  A    between atoms: C_2  and  C_4 
REMARK    2  A    between atoms: C_4  and  N_5 
REMARK    3  A    between atoms: C_7  and  N_8 
REMARK       I    between atoms: N_8  and  C_9 
REMARK       I    between atoms: C_9  and  N_11 
ROOT
HETATM    1  N   UNL     1     -42.501 -53.669  13.820  1.00  0.00    -0.293 N 
HETATM    2  C   UNL     1     -41.926 -52.517  14.274  1.00  0.00     0.141 A 
HETATM    3  C   UNL     1     -40.800 -52.308  13.517  1.00  0.00     0.070 A 
HETATM    4  C   UNL     1     -40.804 -53.380  12.595  1.00  0.00     0.138 A 
HETATM    5  N   UNL     1     -41.843 -54.207  12.765  1.00  0.00    -0.307 N 
ATOM      6  HN  UNL     1     -42.081 -55.041  12.229  1.00  0.00     0.186 HD
ENDROOT
BRANCH   3   7
HETATM    7  N   UNL     1     -39.875 -51.280  13.624  1.00  0.00    -0.306 N 
HETATM    8  C   UNL     1     -38.835 -51.259  14.522  1.00  0.00     0.323 C 
HETATM    9  O   UNL     1     -38.557 -52.178  15.293  1.00  0.00    -0.247 OA
HETATM   10  N   UNL     1     -38.108 -50.086  14.546  1.00  0.00    -0.334 N 
HETATM   11  C   UNL     1     -38.234 -48.911  13.705  1.00  0.00     0.127 C 
HETATM   12  C   UNL     1     -37.053 -49.908  15.525  1.00  0.00     0.127 C 
HETATM   13  C   UNL     1     -37.347 -47.849  14.354  1.00  0.00     0.022 C 
HETATM   14  C   UNL     1     -37.017 -48.408  15.734  1.00  0.00     0.022 C 
HETATM   15  H   UNL     1     -39.988 -50.503  12.995  1.00  0.00     0.171 HD
ENDBRANCH   3   7
BRANCH   1  16
HETATM   16  C   UNL     1     -43.652 -54.337  14.400  1.00  0.00     0.250 C 
BRANCH  16  17
HETATM   17  C   UNL     1     -44.836 -54.512  13.474  1.00  0.00     0.235 C 
HETATM   18  N   UNL     1     -45.958 -55.127  13.946  1.00  0.00    -0.369 N 
HETATM   19  H   UNL     1     -46.768 -55.118  13.340  1.00  0.00     0.159 HD
HETATM   20  H   UNL     1     -46.125 -55.147  14.950  1.00  0.00     0.159 HD
HETATM   21  O   UNL     1     -44.805 -54.122  12.308  1.00  0.00    -0.272 OA
ENDBRANCH  16  17
ENDBRANCH   1  16
TORSDOF 3
ENDMDL
