MODEL 1
REMARK VINA RESULT:      -6.3      0.000      0.000
REMARK  6 active torsions:
REMARK  status: ('A' for Active; 'I' for Inactive)
REMARK    1  A    between atoms: C_2  and  N_3 
REMARK    2  A    between atoms: C_2  and  C_16 
REMARK    3  A    between atoms: C_2  and  C_20 
REMARK       I    between atoms: N_3  and  C_4 
REMARK    4  A    between atoms: C_4  and  C_6 
REMARK    5  A    between atoms: C_6  and  N_7 
REMARK    6  A    between atoms: C_16  and  N_17 
ROOT
HETATM    1  N   UNL     1     -42.059 -49.505  11.973  1.00  0.00    -0.277 N 
HETATM    2  C   UNL     1     -40.986 -49.473  11.134  1.00  0.00     0.203 A 
HETATM    3  N   UNL     1     -40.381 -50.640  11.148  1.00  0.00    -0.327 N 
ATOM      4  HN  UNL     1     -39.554 -50.932  10.628  1.00  0.00     0.169 HD
HETATM    5  C   UNL     1     -41.135 -51.371  12.031  1.00  0.00     0.204 A 
HETATM    6  C   UNL     1     -40.847 -52.741  12.351  1.00  0.00     0.138 C 
HETATM    7  N   UNL     1     -40.622 -53.854  12.611  1.00  0.00    -0.188 NA
HETATM    8  N   UNL     1     -42.176 -50.712  12.568  1.00  0.00    -0.273 N 
ATOM      9  HN  UNL     1     -42.869 -51.036  13.243  1.00  0.00     0.189 HD
ENDROOT
BRANCH   1  10
HETATM   10  C   UNL     1     -42.974 -48.432  12.300  1.00  0.00     0.252 C 
BRANCH  10  11
HETATM   11  C   UNL     1     -43.275 -47.581  11.088  1.00  0.00     0.238 C 
HETATM   12  N   UNL     1     -44.231 -48.075  10.223  1.00  0.00    -0.339 N 
HETATM   13  H   UNL     1     -44.560 -49.025  10.337  1.00  0.00     0.164 HD
HETATM   14  O   UNL     1     -42.703 -46.509  10.905  1.00  0.00    -0.272 OA
BRANCH  12  15
HETATM   15  C   UNL     1     -44.586 -47.392   8.970  1.00  0.00     0.104 C 
HETATM   16  C   UNL     1     -43.617 -47.761   7.833  1.00  0.00     0.054 C 
BRANCH  15  17
HETATM   17  C   UNL     1     -44.577 -45.879   9.127  1.00  0.00    -0.046 C 
BRANCH  17  18
HETATM   18  N   UNL     1     -44.570 -44.625   9.258  1.00  0.00    -0.367 N 
ATOM     19  HN2 UNL     1     -44.564 -45.640   9.155  1.00  0.00     0.165 HD
ATOM     20  HN1 UNL     1     -44.564 -43.611   9.363  1.00  0.00     0.165 HD
ENDBRANCH  17  18
ENDBRANCH  15  17
BRANCH  15  21
HETATM   21  C   UNL     1     -46.040 -47.723   8.657  1.00  0.00     0.027 A 
HETATM   22  C   UNL     1     -46.724 -48.914   9.301  1.00  0.00     0.009 A 
HETATM   23  C   UNL     1     -46.474 -48.913   7.821  1.00  0.00     0.009 A 
ENDBRANCH  15  21
ENDBRANCH  12  15
ENDBRANCH  10  11
ENDBRANCH   1  10
TORSDOF 6
ENDMDL
MODEL 2
REMARK VINA RESULT:      -5.9      4.085      6.027
REMARK  6 active torsions:
REMARK  status: ('A' for Active; 'I' for Inactive)
REMARK    1  A    between atoms: C_2  and  N_3 
REMARK    2  A    between atoms: C_2  and  C_16 
REMARK    3  A    between atoms: C_2  and  C_20 
REMARK       I    between atoms: N_3  and  C_4 
REMARK    4  A    between atoms: C_4  and  C_6 
REMARK    5  A    between atoms: C_6  and  N_7 
REMARK    6  A    between atoms: C_16  and  N_17 
ROOT
HETATM    1  N   UNL     1     -41.662 -51.985  12.777  1.00  0.00    -0.277 N 
HETATM    2  C   UNL     1     -40.335 -51.918  12.479  1.00  0.00     0.203 A 
HETATM    3  N   UNL     1     -40.092 -50.825  11.792  1.00  0.00    -0.327 N 
ATOM      4  HN  UNL     1     -39.201 -50.491  11.425  1.00  0.00     0.169 HD
HETATM    5  C   UNL     1     -41.329 -50.241  11.689  1.00  0.00     0.204 A 
HETATM    6  C   UNL     1     -41.545 -48.990  11.016  1.00  0.00     0.138 C 
HETATM    7  N   UNL     1     -41.727 -47.974  10.476  1.00  0.00    -0.188 NA
HETATM    8  N   UNL     1     -42.328 -50.922  12.276  1.00  0.00    -0.273 N 
ATOM      9  HN  UNL     1     -43.321 -50.697  12.329  1.00  0.00     0.189 HD
ENDROOT
BRANCH   1  10
HETATM   10  C   UNL     1     -42.373 -53.035  13.475  1.00  0.00     0.252 C 
BRANCH  10  11
HETATM   11  C   UNL     1     -43.849 -53.004  13.153  1.00  0.00     0.238 C 
HETATM   12  N   UNL     1     -44.671 -52.472  14.127  1.00  0.00    -0.339 N 
HETATM   13  H   UNL     1     -44.293 -52.284  15.047  1.00  0.00     0.164 HD
HETATM   14  O   UNL     1     -44.275 -53.420  12.079  1.00  0.00    -0.272 OA
BRANCH  12  15
HETATM   15  C   UNL     1     -46.134 -52.432  13.986  1.00  0.00     0.104 C 
HETATM   16  C   UNL     1     -46.769 -53.796  14.312  1.00  0.00     0.054 C 
BRANCH  15  17
HETATM   17  C   UNL     1     -46.557 -52.037  12.580  1.00  0.00    -0.046 C 
BRANCH  17  18
HETATM   18  N   UNL     1     -46.907 -51.710  11.414  1.00  0.00    -0.367 N 
ATOM     19  HN2 UNL     1     -46.635 -51.978  12.360  1.00  0.00     0.165 HD
ATOM     20  HN1 UNL     1     -47.190 -51.445  10.471  1.00  0.00     0.165 HD
ENDBRANCH  17  18
ENDBRANCH  15  17
BRANCH  15  21
HETATM   21  C   UNL     1     -46.654 -51.298  14.861  1.00  0.00     0.027 A 
HETATM   22  C   UNL     1     -45.979 -50.957  16.176  1.00  0.00     0.009 A 
HETATM   23  C   UNL     1     -47.374 -51.511  16.180  1.00  0.00     0.009 A 
ENDBRANCH  15  21
ENDBRANCH  12  15
ENDBRANCH  10  11
ENDBRANCH   1  10
TORSDOF 6
ENDMDL
MODEL 3
REMARK VINA RESULT:      -5.9      5.025      6.206
REMARK  6 active torsions:
REMARK  status: ('A' for Active; 'I' for Inactive)
REMARK    1  A    between atoms: C_2  and  N_3 
REMARK    2  A    between atoms: C_2  and  C_16 
REMARK    3  A    between atoms: C_2  and  C_20 
REMARK       I    between atoms: N_3  and  C_4 
REMARK    4  A    between atoms: C_4  and  C_6 
REMARK    5  A    between atoms: C_6  and  N_7 
REMARK    6  A    between atoms: C_16  and  N_17 
ROOT
HETATM    1  N   UNL     1     -41.607 -53.018  12.960  1.00  0.00    -0.277 N 
HETATM    2  C   UNL     1     -41.843 -52.365  11.788  1.00  0.00     0.203 A 
HETATM    3  N   UNL     1     -40.876 -51.503  11.563  1.00  0.00    -0.327 N 
ATOM      4  HN  UNL     1     -40.764 -50.869  10.772  1.00  0.00     0.169 HD
HETATM    5  C   UNL     1     -40.053 -51.666  12.648  1.00  0.00     0.204 A 
HETATM    6  C   UNL     1     -38.836 -50.923  12.820  1.00  0.00     0.138 C 
HETATM    7  N   UNL     1     -37.845 -50.327  12.963  1.00  0.00    -0.188 NA
HETATM    8  N   UNL     1     -40.466 -52.585  13.538  1.00  0.00    -0.273 N 
ATOM      9  HN  UNL     1     -40.033 -52.876  14.415  1.00  0.00     0.189 HD
ENDROOT
BRANCH   1  10
HETATM   10  C   UNL     1     -42.431 -54.011  13.615  1.00  0.00     0.252 C 
BRANCH  10  11
HETATM   11  C   UNL     1     -43.898 -53.773  13.341  1.00  0.00     0.238 C 
HETATM   12  N   UNL     1     -44.542 -52.904  14.200  1.00  0.00    -0.339 N 
HETATM   13  H   UNL     1     -44.071 -52.602  15.044  1.00  0.00     0.164 HD
HETATM   14  O   UNL     1     -44.466 -54.317  12.398  1.00  0.00    -0.272 OA
BRANCH  12  15
HETATM   15  C   UNL     1     -45.981 -52.621  14.101  1.00  0.00     0.104 C 
HETATM   16  C   UNL     1     -46.824 -53.794  14.633  1.00  0.00     0.054 C 
BRANCH  15  17
HETATM   17  C   UNL     1     -46.406 -52.345  12.667  1.00  0.00    -0.046 C 
BRANCH  17  18
HETATM   18  N   UNL     1     -46.757 -52.117  11.478  1.00  0.00    -0.367 N 
ATOM     19  HN2 UNL     1     -46.467 -52.291  12.440  1.00  0.00     0.165 HD
ATOM     20  HN1 UNL     1     -47.042 -51.933  10.516  1.00  0.00     0.165 HD
ENDBRANCH  17  18
ENDBRANCH  15  17
BRANCH  15  21
HETATM   21  C   UNL     1     -46.247 -51.307  14.824  1.00  0.00     0.027 A 
HETATM   22  C   UNL     1     -45.433 -50.910  16.042  1.00  0.00     0.009 A 
HETATM   23  C   UNL     1     -46.896 -51.213  16.193  1.00  0.00     0.009 A 
ENDBRANCH  15  21
ENDBRANCH  12  15
ENDBRANCH  10  11
ENDBRANCH   1  10
TORSDOF 6
ENDMDL
MODEL 4
REMARK VINA RESULT:      -5.8      2.238      6.563
REMARK  6 active torsions:
REMARK  status: ('A' for Active; 'I' for Inactive)
REMARK    1  A    between atoms: C_2  and  N_3 
REMARK    2  A    between atoms: C_2  and  C_16 
REMARK    3  A    between atoms: C_2  and  C_20 
REMARK       I    between atoms: N_3  and  C_4 
REMARK    4  A    between atoms: C_4  and  C_6 
REMARK    5  A    between atoms: C_6  and  N_7 
REMARK    6  A    between atoms: C_16  and  N_17 
ROOT
HETATM    1  N   UNL     1     -43.013 -46.623   9.607  1.00  0.00    -0.277 N 
HETATM    2  C   UNL     1     -43.817 -45.552   9.360  1.00  0.00     0.203 A 
HETATM    3  N   UNL     1     -44.960 -45.965   8.857  1.00  0.00    -0.327 N 
ATOM      4  HN  UNL     1     -45.765 -45.408   8.571  1.00  0.00     0.169 HD
HETATM    5  C   UNL     1     -44.805 -47.328   8.811  1.00  0.00     0.204 A 
HETATM    6  C   UNL     1     -45.832 -48.211   8.335  1.00  0.00     0.138 C 
HETATM    7  N   UNL     1     -46.663 -48.934   7.954  1.00  0.00    -0.188 NA
HETATM    8  N   UNL     1     -43.620 -47.779   9.258  1.00  0.00    -0.273 N 
ATOM      9  HN  UNL     1     -43.273 -48.736   9.318  1.00  0.00     0.189 HD
ENDROOT
BRANCH   1  10
HETATM   10  C   UNL     1     -41.658 -46.630  10.114  1.00  0.00     0.252 C 
BRANCH  10  11
HETATM   11  C   UNL     1     -41.470 -47.702  11.162  1.00  0.00     0.238 C 
HETATM   12  N   UNL     1     -40.211 -48.265  11.234  1.00  0.00    -0.339 N 
HETATM   13  H   UNL     1     -39.536 -48.067  10.506  1.00  0.00     0.164 HD
HETATM   14  O   UNL     1     -42.389 -48.034  11.906  1.00  0.00    -0.272 OA
BRANCH  12  15
HETATM   15  C   UNL     1     -39.891 -49.362  12.159  1.00  0.00     0.104 C 
HETATM   16  C   UNL     1     -40.496 -50.695  11.681  1.00  0.00     0.054 C 
BRANCH  15  17
HETATM   17  C   UNL     1     -40.405 -49.087  13.563  1.00  0.00    -0.046 C 
BRANCH  17  18
HETATM   18  N   UNL     1     -40.830 -48.859  14.728  1.00  0.00    -0.367 N 
ATOM     19  HN2 UNL     1     -40.494 -49.052  13.785  1.00  0.00     0.165 HD
ATOM     20  HN1 UNL     1     -41.174 -48.675  15.670  1.00  0.00     0.165 HD
ENDBRANCH  17  18
ENDBRANCH  15  17
BRANCH  15  21
HETATM   21  C   UNL     1     -38.378 -49.408  12.320  1.00  0.00     0.027 A 
HETATM   22  C   UNL     1     -37.484 -49.832  11.169  1.00  0.00     0.009 A 
HETATM   23  C   UNL     1     -37.574 -50.693  12.395  1.00  0.00     0.009 A 
ENDBRANCH  15  21
ENDBRANCH  12  15
ENDBRANCH  10  11
ENDBRANCH   1  10
TORSDOF 6
ENDMDL
MODEL 5
REMARK VINA RESULT:      -5.7      3.112      6.027
REMARK  6 active torsions:
REMARK  status: ('A' for Active; 'I' for Inactive)
REMARK    1  A    between atoms: C_2  and  N_3 
REMARK    2  A    between atoms: C_2  and  C_16 
REMARK    3  A    between atoms: C_2  and  C_20 
REMARK       I    between atoms: N_3  and  C_4 
REMARK    4  A    between atoms: C_4  and  C_6 
REMARK    5  A    between atoms: C_6  and  N_7 
REMARK    6  A    between atoms: C_16  and  N_17 
ROOT
HETATM    1  N   UNL     1     -41.635 -49.079  11.387  1.00  0.00    -0.277 N 
HETATM    2  C   UNL     1     -40.542 -48.272  11.286  1.00  0.00     0.203 A 
HETATM    3  N   UNL     1     -40.836 -47.222  10.552  1.00  0.00    -0.327 N 
ATOM      4  HN  UNL     1     -40.234 -46.440  10.296  1.00  0.00     0.169 HD
HETATM    5  C   UNL     1     -42.148 -47.435  10.216  1.00  0.00     0.204 A 
HETATM    6  C   UNL     1     -42.905 -46.514   9.414  1.00  0.00     0.138 C 
HETATM    7  N   UNL     1     -43.525 -45.768   8.768  1.00  0.00    -0.188 NA
HETATM    8  N   UNL     1     -42.682 -48.568  10.703  1.00  0.00    -0.273 N 
ATOM      9  HN  UNL     1     -43.624 -48.942  10.588  1.00  0.00     0.189 HD
ENDROOT
BRANCH   1  10
HETATM   10  C   UNL     1     -41.748 -50.356  12.058  1.00  0.00     0.252 C 
BRANCH  10  11
HETATM   11  C   UNL     1     -42.997 -50.419  12.908  1.00  0.00     0.238 C 
HETATM   12  N   UNL     1     -43.599 -51.658  13.008  1.00  0.00    -0.339 N 
HETATM   13  H   UNL     1     -43.293 -52.409  12.402  1.00  0.00     0.164 HD
HETATM   14  O   UNL     1     -43.430 -49.422  13.478  1.00  0.00    -0.272 OA
BRANCH  12  15
HETATM   15  C   UNL     1     -44.854 -51.866  13.746  1.00  0.00     0.104 C 
HETATM   16  C   UNL     1     -46.077 -51.459  12.903  1.00  0.00     0.054 C 
BRANCH  15  17
HETATM   17  C   UNL     1     -44.886 -51.071  15.042  1.00  0.00    -0.046 C 
BRANCH  17  18
HETATM   18  N   UNL     1     -44.913 -50.412  16.116  1.00  0.00    -0.367 N 
ATOM     19  HN2 UNL     1     -44.891 -50.955  15.253  1.00  0.00     0.165 HD
ATOM     20  HN1 UNL     1     -44.934 -49.879  16.985  1.00  0.00     0.165 HD
ENDBRANCH  17  18
ENDBRANCH  15  17
BRANCH  15  21
HETATM   21  C   UNL     1     -44.889 -53.318  14.202  1.00  0.00     0.027 A 
HETATM   22  C   UNL     1     -43.669 -54.209  14.061  1.00  0.00     0.009 A 
HETATM   23  C   UNL     1     -44.899 -54.502  13.252  1.00  0.00     0.009 A 
ENDBRANCH  15  21
ENDBRANCH  12  15
ENDBRANCH  10  11
ENDBRANCH   1  10
TORSDOF 6
ENDMDL
MODEL 6
REMARK VINA RESULT:      -5.6      3.461      5.764
REMARK  6 active torsions:
REMARK  status: ('A' for Active; 'I' for Inactive)
REMARK    1  A    between atoms: C_2  and  N_3 
REMARK    2  A    between atoms: C_2  and  C_16 
REMARK    3  A    between atoms: C_2  and  C_20 
REMARK       I    between atoms: N_3  and  C_4 
REMARK    4  A    between atoms: C_4  and  C_6 
REMARK    5  A    between atoms: C_6  and  N_7 
REMARK    6  A    between atoms: C_16  and  N_17 
ROOT
HETATM    1  N   UNL     1     -42.254 -48.739  12.046  1.00  0.00    -0.277 N 
HETATM    2  C   UNL     1     -41.356 -49.189  11.126  1.00  0.00     0.203 A 
HETATM    3  N   UNL     1     -41.507 -48.526  10.002  1.00  0.00    -0.327 N 
ATOM      4  HN  UNL     1     -40.986 -48.628   9.130  1.00  0.00     0.169 HD
HETATM    5  C   UNL     1     -42.534 -47.661  10.285  1.00  0.00     0.204 A 
HETATM    6  C   UNL     1     -43.037 -46.712   9.332  1.00  0.00     0.138 C 
HETATM    7  N   UNL     1     -43.446 -45.936   8.565  1.00  0.00    -0.188 NA
HETATM    8  N   UNL     1     -43.029 -47.760  11.531  1.00  0.00    -0.273 N 
ATOM      9  HN  UNL     1     -43.787 -47.236  11.969  1.00  0.00     0.189 HD
ENDROOT
BRANCH   1  10
HETATM   10  C   UNL     1     -42.473 -49.216  13.394  1.00  0.00     0.252 C 
BRANCH  10  11
HETATM   11  C   UNL     1     -43.034 -50.620  13.395  1.00  0.00     0.238 C 
HETATM   12  N   UNL     1     -44.342 -50.750  12.974  1.00  0.00    -0.339 N 
HETATM   13  H   UNL     1     -44.907 -49.919  12.845  1.00  0.00     0.164 HD
HETATM   14  O   UNL     1     -42.348 -51.578  13.741  1.00  0.00    -0.272 OA
BRANCH  12  15
HETATM   15  C   UNL     1     -45.046 -52.041  12.979  1.00  0.00     0.104 C 
HETATM   16  C   UNL     1     -44.109 -53.194  12.574  1.00  0.00     0.054 C 
BRANCH  15  17
HETATM   17  C   UNL     1     -46.234 -52.041  12.029  1.00  0.00    -0.046 C 
BRANCH  17  18
HETATM   18  N   UNL     1     -47.219 -52.042  11.243  1.00  0.00    -0.367 N 
ATOM     19  HN2 UNL     1     -46.430 -52.043  11.888  1.00  0.00     0.165 HD
ATOM     20  HN1 UNL     1     -48.016 -52.041  10.606  1.00  0.00     0.165 HD
ENDBRANCH  17  18
ENDBRANCH  15  17
BRANCH  15  21
HETATM   21  C   UNL     1     -45.671 -52.224  14.355  1.00  0.00     0.027 A 
HETATM   22  C   UNL     1     -46.932 -51.474  14.744  1.00  0.00     0.009 A 
HETATM   23  C   UNL     1     -45.640 -51.168  15.445  1.00  0.00     0.009 A 
ENDBRANCH  15  21
ENDBRANCH  12  15
ENDBRANCH  10  11
ENDBRANCH   1  10
TORSDOF 6
ENDMDL
MODEL 7
REMARK VINA RESULT:      -5.6      5.273      6.874
REMARK  6 active torsions:
REMARK  status: ('A' for Active; 'I' for Inactive)
REMARK    1  A    between atoms: C_2  and  N_3 
REMARK    2  A    between atoms: C_2  and  C_16 
REMARK    3  A    between atoms: C_2  and  C_20 
REMARK       I    between atoms: N_3  and  C_4 
REMARK    4  A    between atoms: C_4  and  C_6 
REMARK    5  A    between atoms: C_6  and  N_7 
REMARK    6  A    between atoms: C_16  and  N_17 
ROOT
HETATM    1  N   UNL     1     -41.035 -52.702  13.317  1.00  0.00    -0.277 N 
HETATM    2  C   UNL     1     -41.274 -52.311  12.034  1.00  0.00     0.203 A 
HETATM    3  N   UNL     1     -42.471 -52.713  11.667  1.00  0.00    -0.327 N 
ATOM      4  HN  UNL     1     -42.938 -52.574  10.771  1.00  0.00     0.169 HD
HETATM    5  C   UNL     1     -42.937 -53.362  12.781  1.00  0.00     0.204 A 
HETATM    6  C   UNL     1     -44.240 -53.962  12.843  1.00  0.00     0.138 C 
HETATM    7  N   UNL     1     -45.299 -54.447  12.902  1.00  0.00    -0.188 NA
HETATM    8  N   UNL     1     -42.086 -53.386  13.821  1.00  0.00    -0.273 N 
ATOM      9  HN  UNL     1     -42.202 -53.806  14.743  1.00  0.00     0.189 HD
ENDROOT
BRANCH   1  10
HETATM   10  C   UNL     1     -39.834 -52.517  14.102  1.00  0.00     0.252 C 
BRANCH  10  11
HETATM   11  C   UNL     1     -38.898 -51.527  13.447  1.00  0.00     0.238 C 
HETATM   12  N   UNL     1     -39.277 -50.201  13.512  1.00  0.00    -0.339 N 
HETATM   13  H   UNL     1     -40.207 -49.965  13.834  1.00  0.00     0.164 HD
HETATM   14  O   UNL     1     -37.860 -51.896  12.904  1.00  0.00    -0.272 OA
BRANCH  12  15
HETATM   15  C   UNL     1     -38.503 -49.130  12.867  1.00  0.00     0.104 C 
HETATM   16  C   UNL     1     -39.386 -47.908  12.553  1.00  0.00     0.054 C 
BRANCH  15  17
HETATM   17  C   UNL     1     -37.863 -49.596  11.569  1.00  0.00    -0.046 C 
BRANCH  17  18
HETATM   18  N   UNL     1     -37.332 -49.982  10.493  1.00  0.00    -0.367 N 
ATOM     19  HN2 UNL     1     -37.764 -49.659  11.358  1.00  0.00     0.165 HD
ATOM     20  HN1 UNL     1     -36.902 -50.295   9.623  1.00  0.00     0.165 HD
ENDBRANCH  17  18
ENDBRANCH  15  17
BRANCH  15  21
HETATM   21  C   UNL     1     -37.319 -48.805  13.768  1.00  0.00     0.027 A 
HETATM   22  C   UNL     1     -37.475 -48.767  15.277  1.00  0.00     0.009 A 
HETATM   23  C   UNL     1     -37.170 -47.501  14.531  1.00  0.00     0.009 A 
ENDBRANCH  15  21
ENDBRANCH  12  15
ENDBRANCH  10  11
ENDBRANCH   1  10
TORSDOF 6
ENDMDL
MODEL 8
REMARK VINA RESULT:      -5.6      2.629      6.067
REMARK  6 active torsions:
REMARK  status: ('A' for Active; 'I' for Inactive)
REMARK    1  A    between atoms: C_2  and  N_3 
REMARK    2  A    between atoms: C_2  and  C_16 
REMARK    3  A    between atoms: C_2  and  C_20 
REMARK       I    between atoms: N_3  and  C_4 
REMARK    4  A    between atoms: C_4  and  C_6 
REMARK    5  A    between atoms: C_6  and  N_7 
REMARK    6  A    between atoms: C_16  and  N_17 
ROOT
HETATM    1  N   UNL     1     -43.135 -48.042  12.583  1.00  0.00    -0.277 N 
HETATM    2  C   UNL     1     -43.019 -46.686  12.525  1.00  0.00     0.203 A 
HETATM    3  N   UNL     1     -43.099 -46.290  11.274  1.00  0.00    -0.327 N 
ATOM      4  HN  UNL     1     -43.050 -45.341  10.905  1.00  0.00     0.169 HD
HETATM    5  C   UNL     1     -43.265 -47.466  10.586  1.00  0.00     0.204 A 
HETATM    6  C   UNL     1     -43.416 -47.516   9.158  1.00  0.00     0.138 C 
HETATM    7  N   UNL     1     -43.544 -47.564   8.001  1.00  0.00    -0.188 NA
HETATM    8  N   UNL     1     -43.289 -48.571  11.350  1.00  0.00    -0.273 N 
ATOM      9  HN  UNL     1     -43.394 -49.547  11.073  1.00  0.00     0.189 HD
ENDROOT
BRANCH   1  10
HETATM   10  C   UNL     1     -43.058 -48.899  13.746  1.00  0.00     0.252 C 
BRANCH  10  11
HETATM   11  C   UNL     1     -42.475 -50.249  13.394  1.00  0.00     0.238 C 
HETATM   12  N   UNL     1     -43.358 -51.310  13.403  1.00  0.00    -0.339 N 
HETATM   13  H   UNL     1     -44.285 -51.182  13.789  1.00  0.00     0.164 HD
HETATM   14  O   UNL     1     -41.288 -50.374  13.107  1.00  0.00    -0.272 OA
BRANCH  12  15
HETATM   15  C   UNL     1     -42.929 -52.693  13.143  1.00  0.00     0.104 C 
HETATM   16  C   UNL     1     -42.330 -53.343  14.403  1.00  0.00     0.054 C 
BRANCH  15  17
HETATM   17  C   UNL     1     -41.890 -52.764  12.034  1.00  0.00    -0.046 C 
BRANCH  17  18
HETATM   18  N   UNL     1     -41.028 -52.823  11.116  1.00  0.00    -0.367 N 
ATOM     19  HN2 UNL     1     -41.720 -52.765  11.863  1.00  0.00     0.165 HD
ATOM     20  HN1 UNL     1     -40.331 -52.871  10.373  1.00  0.00     0.165 HD
ENDBRANCH  17  18
ENDBRANCH  15  17
BRANCH  15  21
HETATM   21  C   UNL     1     -44.123 -53.452  12.580  1.00  0.00     0.027 A 
HETATM   22  C   UNL     1     -45.541 -53.056  12.947  1.00  0.00     0.009 A 
HETATM   23  C   UNL     1     -44.998 -54.380  13.402  1.00  0.00     0.009 A 
ENDBRANCH  15  21
ENDBRANCH  12  15
ENDBRANCH  10  11
ENDBRANCH   1  10
TORSDOF 6
ENDMDL
MODEL 9
REMARK VINA RESULT:      -5.5      5.230      6.362
REMARK  6 active torsions:
REMARK  status: ('A' for Active; 'I' for Inactive)
REMARK    1  A    between atoms: C_2  and  N_3 
REMARK    2  A    between atoms: C_2  and  C_16 
REMARK    3  A    between atoms: C_2  and  C_20 
REMARK       I    between atoms: N_3  and  C_4 
REMARK    4  A    between atoms: C_4  and  C_6 
REMARK    5  A    between atoms: C_6  and  N_7 
REMARK    6  A    between atoms: C_16  and  N_17 
ROOT
HETATM    1  N   UNL     1     -41.542 -53.506  13.839  1.00  0.00    -0.277 N 
HETATM    2  C   UNL     1     -40.386 -53.113  14.443  1.00  0.00     0.203 A 
HETATM    3  N   UNL     1     -40.154 -53.876  15.487  1.00  0.00    -0.327 N 
ATOM      4  HN  UNL     1     -39.371 -53.836  16.140  1.00  0.00     0.169 HD
HETATM    5  C   UNL     1     -41.219 -54.740  15.486  1.00  0.00     0.204 A 
HETATM    6  C   UNL     1     -41.377 -55.782  16.461  1.00  0.00     0.138 C 
HETATM    7  N   UNL     1     -41.508 -56.633  17.247  1.00  0.00    -0.188 NA
HETATM    8  N   UNL     1     -42.103 -54.547  14.492  1.00  0.00    -0.273 N 
ATOM      9  HN  UNL     1     -42.966 -55.051  14.286  1.00  0.00     0.189 HD
ENDROOT
BRANCH   1  10
HETATM   10  C   UNL     1     -42.199 -52.919  12.690  1.00  0.00     0.252 C 
BRANCH  10  11
HETATM   11  C   UNL     1     -43.687 -53.184  12.715  1.00  0.00     0.238 C 
HETATM   12  N   UNL     1     -44.458 -52.248  13.375  1.00  0.00    -0.339 N 
HETATM   13  H   UNL     1     -44.004 -51.537  13.936  1.00  0.00     0.164 HD
HETATM   14  O   UNL     1     -44.167 -54.172  12.166  1.00  0.00    -0.272 OA
BRANCH  12  15
HETATM   15  C   UNL     1     -45.911 -52.399  13.538  1.00  0.00     0.104 C 
HETATM   16  C   UNL     1     -46.276 -53.799  14.064  1.00  0.00     0.054 C 
BRANCH  15  17
HETATM   17  C   UNL     1     -46.654 -52.177  12.230  1.00  0.00    -0.046 C 
BRANCH  17  18
HETATM   18  N   UNL     1     -47.270 -51.994  11.145  1.00  0.00    -0.367 N 
ATOM     19  HN2 UNL     1     -46.761 -52.140  12.017  1.00  0.00     0.165 HD
ATOM     20  HN1 UNL     1     -47.768 -51.846  10.268  1.00  0.00     0.165 HD
ENDBRANCH  17  18
ENDBRANCH  15  17
BRANCH  15  21
HETATM   21  C   UNL     1     -46.398 -51.269  14.436  1.00  0.00     0.027 A 
HETATM   22  C   UNL     1     -45.769 -51.029  15.796  1.00  0.00     0.009 A 
HETATM   23  C   UNL     1     -47.197 -51.486  15.709  1.00  0.00     0.009 A 
ENDBRANCH  15  21
ENDBRANCH  12  15
ENDBRANCH  10  11
ENDBRANCH   1  10
TORSDOF 6
ENDMDL
