MODEL 1
REMARK VINA RESULT:      -5.5      0.000      0.000
REMARK  4 active torsions:
REMARK  status: ('A' for Active; 'I' for Inactive)
REMARK    1  A    between atoms: O_2  and  C_3 
REMARK    2  A    between atoms: C_3  and  C_4 
REMARK    3  A    between atoms: C_4  and  N_5 
REMARK    4  A    between atoms: N_5  and  C_6 
ROOT
HETATM    1  N   UNL     1     -43.300 -53.004  11.989  1.00  0.00    -0.276 NA
HETATM    2  H   UNL     1     -42.811 -53.877  11.818  1.00  0.00     0.129 HD
ENDROOT
BRANCH   1   3
HETATM    3  C   UNL     1     -42.392 -51.931  12.419  1.00  0.00     0.132 C 
BRANCH   3   4
HETATM    4  C   UNL     1     -41.273 -52.447  13.377  1.00  0.00     0.076 C 
HETATM    5  C   UNL     1     -40.919 -53.906  13.009  1.00  0.00     0.065 C 
HETATM    6  C   UNL     1     -39.721 -54.400  13.810  1.00  0.00     0.170 C 
HETATM    7  O   UNL     1     -38.592 -53.557  13.584  1.00  0.00    -0.391 OA
HETATM    8  C   UNL     1     -38.839 -52.219  14.013  1.00  0.00     0.170 C 
HETATM    9  C   UNL     1     -39.986 -51.606  13.217  1.00  0.00     0.065 C 
BRANCH   4  10
HETATM   10  O   UNL     1     -41.622 -52.333  14.774  1.00  0.00    -0.384 OA
HETATM   11  C   UNL     1     -42.218 -51.119  15.199  1.00  0.00     0.202 C 
ENDBRANCH   4  10
ENDBRANCH   3   4
ENDBRANCH   1   3
BRANCH   1  12
HETATM   12  C   UNL     1     -44.357 -53.263  12.882  1.00  0.00     0.080 A 
HETATM   13  C   UNL     1     -44.641 -54.590  13.192  1.00  0.00     0.042 A 
HETATM   14  C   UNL     1     -45.680 -54.883  14.070  1.00  0.00     0.005 A 
HETATM   15  C   UNL     1     -46.426 -53.839  14.607  1.00  0.00     0.024 A 
HETATM   16  C   UNL     1     -46.104 -52.541  14.240  1.00  0.00     0.006 A 
HETATM   17  C   UNL     1     -46.893 -51.375  14.757  1.00  0.00     0.068 C 
HETATM   18  N   UNL     1     -45.089 -52.250  13.387  1.00  0.00    -0.351 N 
ATOM     19  HN  UNL     1     -44.884 -51.283  13.134  1.00  0.00     0.167 HD
ENDBRANCH   1  12
TORSDOF 4
ENDMDL
MODEL 2
REMARK VINA RESULT:      -5.4      1.589      2.395
REMARK  4 active torsions:
REMARK  status: ('A' for Active; 'I' for Inactive)
REMARK    1  A    between atoms: O_2  and  C_3 
REMARK    2  A    between atoms: C_3  and  C_4 
REMARK    3  A    between atoms: C_4  and  N_5 
REMARK    4  A    between atoms: N_5  and  C_6 
ROOT
HETATM    1  N   UNL     1     -43.106 -53.263  12.599  1.00  0.00    -0.276 NA
HETATM    2  H   UNL     1     -42.876 -53.933  13.327  1.00  0.00     0.129 HD
ENDROOT
BRANCH   1   3
HETATM    3  C   UNL     1     -42.009 -52.320  12.343  1.00  0.00     0.132 C 
BRANCH   3   4
HETATM    4  C   UNL     1     -40.728 -52.657  13.170  1.00  0.00     0.076 C 
HETATM    5  C   UNL     1     -40.932 -52.202  14.633  1.00  0.00     0.065 C 
HETATM    6  C   UNL     1     -39.775 -52.654  15.515  1.00  0.00     0.170 C 
HETATM    7  O   UNL     1     -39.638 -54.074  15.464  1.00  0.00    -0.391 OA
HETATM    8  C   UNL     1     -39.340 -54.528  14.145  1.00  0.00     0.170 C 
HETATM    9  C   UNL     1     -40.478 -54.182  13.191  1.00  0.00     0.065 C 
BRANCH   4  10
HETATM   10  O   UNL     1     -39.524 -52.089  12.612  1.00  0.00    -0.384 OA
HETATM   11  C   UNL     1     -39.560 -50.718  12.248  1.00  0.00     0.202 C 
ENDBRANCH   4  10
ENDBRANCH   3   4
ENDBRANCH   1   3
BRANCH   1  12
HETATM   12  C   UNL     1     -44.330 -52.654  12.936  1.00  0.00     0.080 A 
HETATM   13  C   UNL     1     -44.539 -52.298  14.266  1.00  0.00     0.042 A 
HETATM   14  C   UNL     1     -45.737 -51.696  14.635  1.00  0.00     0.005 A 
HETATM   15  C   UNL     1     -46.710 -51.476  13.667  1.00  0.00     0.024 A 
HETATM   16  C   UNL     1     -46.446 -51.873  12.364  1.00  0.00     0.006 A 
HETATM   17  C   UNL     1     -47.468 -51.696  11.282  1.00  0.00     0.068 C 
HETATM   18  N   UNL     1     -45.278 -52.458  11.998  1.00  0.00    -0.351 N 
ATOM     19  HN  UNL     1     -45.120 -52.743  11.031  1.00  0.00     0.167 HD
ENDBRANCH   1  12
TORSDOF 4
ENDMDL
MODEL 3
REMARK VINA RESULT:      -5.3      2.579      5.760
REMARK  4 active torsions:
REMARK  status: ('A' for Active; 'I' for Inactive)
REMARK    1  A    between atoms: O_2  and  C_3 
REMARK    2  A    between atoms: C_3  and  C_4 
REMARK    3  A    between atoms: C_4  and  N_5 
REMARK    4  A    between atoms: N_5  and  C_6 
ROOT
HETATM    1  N   UNL     1     -42.879 -52.511  11.935  1.00  0.00    -0.276 NA
HETATM    2  H   UNL     1     -42.979 -52.326  10.942  1.00  0.00     0.129 HD
ENDROOT
BRANCH   1   3
HETATM    3  C   UNL     1     -43.955 -51.897  12.727  1.00  0.00     0.132 C 
BRANCH   3   4
HETATM    4  C   UNL     1     -45.097 -52.907  13.062  1.00  0.00     0.076 C 
HETATM    5  C   UNL     1     -44.483 -54.298  13.339  1.00  0.00     0.065 C 
HETATM    6  C   UNL     1     -45.542 -55.279  13.827  1.00  0.00     0.170 C 
HETATM    7  O   UNL     1     -46.169 -54.783  15.009  1.00  0.00    -0.391 OA
HETATM    8  C   UNL     1     -46.844 -53.549  14.770  1.00  0.00     0.170 C 
HETATM    9  C   UNL     1     -45.853 -52.474  14.338  1.00  0.00     0.065 C 
BRANCH   4  10
HETATM   10  O   UNL     1     -46.110 -52.982  12.035  1.00  0.00    -0.384 OA
HETATM   11  C   UNL     1     -46.808 -51.788  11.722  1.00  0.00     0.202 C 
ENDBRANCH   4  10
ENDBRANCH   3   4
ENDBRANCH   1   3
BRANCH   1  12
HETATM   12  C   UNL     1     -41.581 -52.127  12.323  1.00  0.00     0.080 A 
HETATM   13  C   UNL     1     -40.948 -52.872  13.314  1.00  0.00     0.042 A 
HETATM   14  C   UNL     1     -39.666 -52.521  13.724  1.00  0.00     0.005 A 
HETATM   15  C   UNL     1     -39.050 -51.418  13.144  1.00  0.00     0.024 A 
HETATM   16  C   UNL     1     -39.745 -50.706  12.178  1.00  0.00     0.006 A 
HETATM   17  C   UNL     1     -39.149 -49.486  11.541  1.00  0.00     0.068 C 
HETATM   18  N   UNL     1     -40.994 -51.047  11.771  1.00  0.00    -0.351 N 
ATOM     19  HN  UNL     1     -41.478 -50.496  11.063  1.00  0.00     0.167 HD
ENDBRANCH   1  12
TORSDOF 4
ENDMDL
MODEL 4
REMARK VINA RESULT:      -5.2      3.813      5.608
REMARK  4 active torsions:
REMARK  status: ('A' for Active; 'I' for Inactive)
REMARK    1  A    between atoms: O_2  and  C_3 
REMARK    2  A    between atoms: C_3  and  C_4 
REMARK    3  A    between atoms: C_4  and  N_5 
REMARK    4  A    between atoms: N_5  and  C_6 
ROOT
HETATM    1  N   UNL     1     -40.473 -49.756  10.696  1.00  0.00    -0.276 NA
HETATM    2  H   UNL     1     -40.506 -50.153   9.762  1.00  0.00     0.129 HD
ENDROOT
BRANCH   1   3
HETATM    3  C   UNL     1     -40.911 -50.713  11.723  1.00  0.00     0.132 C 
BRANCH   3   4
HETATM    4  C   UNL     1     -39.736 -51.186  12.635  1.00  0.00     0.076 C 
HETATM    5  C   UNL     1     -38.408 -50.606  12.098  1.00  0.00     0.065 C 
HETATM    6  C   UNL     1     -37.253 -50.907  13.045  1.00  0.00     0.170 C 
HETATM    7  O   UNL     1     -37.524 -50.376  14.342  1.00  0.00    -0.391 OA
HETATM    8  C   UNL     1     -38.686 -50.967  14.922  1.00  0.00     0.170 C 
HETATM    9  C   UNL     1     -39.918 -50.663  14.077  1.00  0.00     0.065 C 
BRANCH   4  10
HETATM   10  O   UNL     1     -39.660 -52.623  12.766  1.00  0.00    -0.384 OA
HETATM   11  C   UNL     1     -40.871 -53.351  12.653  1.00  0.00     0.202 C 
ENDBRANCH   4  10
ENDBRANCH   3   4
ENDBRANCH   1   3
BRANCH   1  12
HETATM   12  C   UNL     1     -41.193 -48.547  10.684  1.00  0.00     0.080 A 
HETATM   13  C   UNL     1     -40.573 -47.411  11.197  1.00  0.00     0.042 A 
HETATM   14  C   UNL     1     -41.255 -46.199  11.203  1.00  0.00     0.005 A 
HETATM   15  C   UNL     1     -42.555 -46.153  10.711  1.00  0.00     0.024 A 
HETATM   16  C   UNL     1     -43.122 -47.325  10.234  1.00  0.00     0.006 A 
HETATM   17  C   UNL     1     -44.532 -47.348   9.723  1.00  0.00     0.068 C 
HETATM   18  N   UNL     1     -42.459 -48.509  10.222  1.00  0.00    -0.351 N 
ATOM     19  HN  UNL     1     -42.910 -49.354   9.871  1.00  0.00     0.167 HD
ENDBRANCH   1  12
TORSDOF 4
ENDMDL
MODEL 5
REMARK VINA RESULT:      -5.2      4.014      5.896
REMARK  4 active torsions:
REMARK  status: ('A' for Active; 'I' for Inactive)
REMARK    1  A    between atoms: O_2  and  C_3 
REMARK    2  A    between atoms: C_3  and  C_4 
REMARK    3  A    between atoms: C_4  and  N_5 
REMARK    4  A    between atoms: N_5  and  C_6 
ROOT
HETATM    1  N   UNL     1     -40.834 -49.486  10.549  1.00  0.00    -0.276 NA
HETATM    2  H   UNL     1     -41.517 -50.228  10.658  1.00  0.00     0.129 HD
ENDROOT
BRANCH   1   3
HETATM    3  C   UNL     1     -39.821 -49.500  11.614  1.00  0.00     0.132 C 
BRANCH   3   4
HETATM    4  C   UNL     1     -39.903 -50.785  12.496  1.00  0.00     0.076 C 
HETATM    5  C   UNL     1     -40.338 -50.395  13.927  1.00  0.00     0.065 C 
HETATM    6  C   UNL     1     -40.587 -51.631  14.782  1.00  0.00     0.170 C 
HETATM    7  O   UNL     1     -41.584 -52.456  14.182  1.00  0.00    -0.391 OA
HETATM    8  C   UNL     1     -41.175 -52.930  12.900  1.00  0.00     0.170 C 
HETATM    9  C   UNL     1     -40.964 -51.762  11.942  1.00  0.00     0.065 C 
BRANCH   4  10
HETATM   10  O   UNL     1     -38.673 -51.542  12.515  1.00  0.00    -0.384 OA
HETATM   11  C   UNL     1     -37.460 -50.815  12.397  1.00  0.00     0.202 C 
ENDBRANCH   4  10
ENDBRANCH   3   4
ENDBRANCH   1   3
BRANCH   1  12
HETATM   12  C   UNL     1     -41.527 -48.267  10.423  1.00  0.00     0.080 A 
HETATM   13  C   UNL     1     -40.920 -47.115  10.913  1.00  0.00     0.042 A 
HETATM   14  C   UNL     1     -41.577 -45.893  10.808  1.00  0.00     0.005 A 
HETATM   15  C   UNL     1     -42.840 -45.854  10.227  1.00  0.00     0.024 A 
HETATM   16  C   UNL     1     -43.397 -47.042   9.778  1.00  0.00     0.006 A 
HETATM   17  C   UNL     1     -44.770 -47.069   9.175  1.00  0.00     0.068 C 
HETATM   18  N   UNL     1     -42.759 -48.235   9.875  1.00  0.00    -0.351 N 
ATOM     19  HN  UNL     1     -43.202 -49.090   9.540  1.00  0.00     0.167 HD
ENDBRANCH   1  12
TORSDOF 4
ENDMDL
MODEL 6
REMARK VINA RESULT:      -5.2      2.292      5.352
REMARK  4 active torsions:
REMARK  status: ('A' for Active; 'I' for Inactive)
REMARK    1  A    between atoms: O_2  and  C_3 
REMARK    2  A    between atoms: C_3  and  C_4 
REMARK    3  A    between atoms: C_4  and  N_5 
REMARK    4  A    between atoms: N_5  and  C_6 
ROOT
HETATM    1  N   UNL     1     -40.740 -53.019  11.764  1.00  0.00    -0.276 NA
HETATM    2  H   UNL     1     -41.498 -53.075  11.092  1.00  0.00     0.129 HD
ENDROOT
BRANCH   1   3
HETATM    3  C   UNL     1     -41.056 -53.714  13.020  1.00  0.00     0.132 C 
BRANCH   3   4
HETATM    4  C   UNL     1     -42.541 -53.509  13.457  1.00  0.00     0.076 C 
HETATM    5  C   UNL     1     -43.415 -53.282  12.201  1.00  0.00     0.065 C 
HETATM    6  C   UNL     1     -44.894 -53.237  12.562  1.00  0.00     0.170 C 
HETATM    7  O   UNL     1     -45.283 -54.448  13.209  1.00  0.00    -0.391 OA
HETATM    8  C   UNL     1     -44.577 -54.642  14.433  1.00  0.00     0.170 C 
HETATM    9  C   UNL     1     -43.080 -54.769  14.171  1.00  0.00     0.065 C 
BRANCH   4  10
HETATM   10  O   UNL     1     -42.712 -52.438  14.409  1.00  0.00    -0.384 OA
HETATM   11  C   UNL     1     -41.811 -52.390  15.504  1.00  0.00     0.202 C 
ENDBRANCH   4  10
ENDBRANCH   3   4
ENDBRANCH   1   3
BRANCH   1  12
HETATM   12  C   UNL     1     -40.396 -51.663  11.923  1.00  0.00     0.080 A 
HETATM   13  C   UNL     1     -39.416 -51.342  12.858  1.00  0.00     0.042 A 
HETATM   14  C   UNL     1     -39.052 -50.012  13.043  1.00  0.00     0.005 A 
HETATM   15  C   UNL     1     -39.690 -49.027  12.297  1.00  0.00     0.024 A 
HETATM   16  C   UNL     1     -40.672 -49.413  11.397  1.00  0.00     0.006 A 
HETATM   17  C   UNL     1     -41.420 -48.395  10.589  1.00  0.00     0.068 C 
HETATM   18  N   UNL     1     -41.028 -50.709  11.210  1.00  0.00    -0.351 N 
ATOM     19  HN  UNL     1     -41.760 -50.956  10.544  1.00  0.00     0.167 HD
ENDBRANCH   1  12
TORSDOF 4
ENDMDL
MODEL 7
REMARK VINA RESULT:      -5.2      4.133      6.183
REMARK  4 active torsions:
REMARK  status: ('A' for Active; 'I' for Inactive)
REMARK    1  A    between atoms: O_2  and  C_3 
REMARK    2  A    between atoms: C_3  and  C_4 
REMARK    3  A    between atoms: C_4  and  N_5 
REMARK    4  A    between atoms: N_5  and  C_6 
ROOT
HETATM    1  N   UNL     1     -40.822 -49.537  10.590  1.00  0.00    -0.276 NA
HETATM    2  H   UNL     1     -41.598 -50.165  10.775  1.00  0.00     0.129 HD
ENDROOT
BRANCH   1   3
HETATM    3  C   UNL     1     -39.682 -49.781  11.485  1.00  0.00     0.132 C 
BRANCH   3   4
HETATM    4  C   UNL     1     -39.959 -50.931  12.503  1.00  0.00     0.076 C 
HETATM    5  C   UNL     1     -40.540 -50.331  13.804  1.00  0.00     0.065 C 
HETATM    6  C   UNL     1     -40.976 -51.428  14.767  1.00  0.00     0.170 C 
HETATM    7  O   UNL     1     -41.946 -52.273  14.149  1.00  0.00    -0.391 OA
HETATM    8  C   UNL     1     -41.415 -52.934  13.002  1.00  0.00     0.170 C 
HETATM    9  C   UNL     1     -41.007 -51.917  11.941  1.00  0.00     0.065 C 
BRANCH   4  10
HETATM   10  O   UNL     1     -38.795 -51.740  12.779  1.00  0.00    -0.384 OA
HETATM   11  C   UNL     1     -37.553 -51.069  12.913  1.00  0.00     0.202 C 
ENDBRANCH   4  10
ENDBRANCH   3   4
ENDBRANCH   1   3
BRANCH   1  12
HETATM   12  C   UNL     1     -41.311 -48.217  10.619  1.00  0.00     0.080 A 
HETATM   13  C   UNL     1     -42.691 -48.031  10.654  1.00  0.00     0.042 A 
HETATM   14  C   UNL     1     -43.210 -46.741  10.681  1.00  0.00     0.005 A 
HETATM   15  C   UNL     1     -42.335 -45.661  10.655  1.00  0.00     0.024 A 
HETATM   16  C   UNL     1     -40.973 -45.916  10.598  1.00  0.00     0.006 A 
HETATM   17  C   UNL     1     -39.981 -44.793  10.532  1.00  0.00     0.068 C 
HETATM   18  N   UNL     1     -40.461 -47.172  10.575  1.00  0.00    -0.351 N 
ATOM     19  HN  UNL     1     -39.454 -47.322  10.526  1.00  0.00     0.167 HD
ENDBRANCH   1  12
TORSDOF 4
ENDMDL
MODEL 8
REMARK VINA RESULT:      -5.1      2.566      5.683
REMARK  4 active torsions:
REMARK  status: ('A' for Active; 'I' for Inactive)
REMARK    1  A    between atoms: O_2  and  C_3 
REMARK    2  A    between atoms: C_3  and  C_4 
REMARK    3  A    between atoms: C_4  and  N_5 
REMARK    4  A    between atoms: N_5  and  C_6 
ROOT
HETATM    1  N   UNL     1     -41.966 -51.653  11.761  1.00  0.00    -0.276 NA
HETATM    2  H   UNL     1     -42.875 -51.301  12.045  1.00  0.00     0.129 HD
ENDROOT
BRANCH   1   3
HETATM    3  C   UNL     1     -41.567 -52.845  12.522  1.00  0.00     0.132 C 
BRANCH   3   4
HETATM    4  C   UNL     1     -42.662 -53.295  13.540  1.00  0.00     0.076 C 
HETATM    5  C   UNL     1     -43.909 -53.780  12.765  1.00  0.00     0.065 C 
HETATM    6  C   UNL     1     -44.944 -54.380  13.710  1.00  0.00     0.170 C 
HETATM    7  O   UNL     1     -44.376 -55.466  14.441  1.00  0.00    -0.391 OA
HETATM    8  C   UNL     1     -43.287 -55.039  15.257  1.00  0.00     0.170 C 
HETATM    9  C   UNL     1     -42.160 -54.481  14.394  1.00  0.00     0.065 C 
BRANCH   4  10
HETATM   10  O   UNL     1     -43.010 -52.268  14.494  1.00  0.00    -0.384 OA
HETATM   11  C   UNL     1     -41.958 -51.719  15.271  1.00  0.00     0.202 C 
ENDBRANCH   4  10
ENDBRANCH   3   4
ENDBRANCH   1   3
BRANCH   1  12
HETATM   12  C   UNL     1     -41.046 -50.590  11.823  1.00  0.00     0.080 A 
HETATM   13  C   UNL     1     -41.535 -49.317  12.104  1.00  0.00     0.042 A 
HETATM   14  C   UNL     1     -40.655 -48.242  12.171  1.00  0.00     0.005 A 
HETATM   15  C   UNL     1     -39.302 -48.461  11.939  1.00  0.00     0.024 A 
HETATM   16  C   UNL     1     -38.883 -49.750  11.643  1.00  0.00     0.006 A 
HETATM   17  C   UNL     1     -37.443 -50.045  11.348  1.00  0.00     0.068 C 
HETATM   18  N   UNL     1     -39.737 -50.803  11.580  1.00  0.00    -0.351 N 
ATOM     19  HN  UNL     1     -39.395 -51.736  11.353  1.00  0.00     0.167 HD
ENDBRANCH   1  12
TORSDOF 4
ENDMDL
MODEL 9
REMARK VINA RESULT:      -5.1      2.078      2.940
REMARK  4 active torsions:
REMARK  status: ('A' for Active; 'I' for Inactive)
REMARK    1  A    between atoms: O_2  and  C_3 
REMARK    2  A    between atoms: C_3  and  C_4 
REMARK    3  A    between atoms: C_4  and  N_5 
REMARK    4  A    between atoms: N_5  and  C_6 
ROOT
HETATM    1  N   UNL     1     -42.706 -50.550  13.752  1.00  0.00    -0.276 NA
HETATM    2  H   UNL     1     -42.595 -49.553  13.904  1.00  0.00     0.129 HD
ENDROOT
BRANCH   1   3
HETATM    3  C   UNL     1     -42.098 -50.992  12.489  1.00  0.00     0.132 C 
BRANCH   3   4
HETATM    4  C   UNL     1     -40.565 -51.252  12.625  1.00  0.00     0.076 C 
HETATM    5  C   UNL     1     -39.795 -50.228  11.760  1.00  0.00     0.065 C 
HETATM    6  C   UNL     1     -38.292 -50.338  11.984  1.00  0.00     0.170 C 
HETATM    7  O   UNL     1     -37.981 -50.137  13.363  1.00  0.00    -0.391 OA
HETATM    8  C   UNL     1     -38.585 -51.130  14.190  1.00  0.00     0.170 C 
HETATM    9  C   UNL     1     -40.105 -51.057  14.088  1.00  0.00     0.065 C 
BRANCH   4  10
HETATM   10  O   UNL     1     -40.184 -52.605  12.291  1.00  0.00    -0.384 OA
HETATM   11  C   UNL     1     -40.998 -53.652  12.794  1.00  0.00     0.202 C 
ENDBRANCH   4  10
ENDBRANCH   3   4
ENDBRANCH   1   3
BRANCH   1  12
HETATM   12  C   UNL     1     -44.073 -50.863  13.879  1.00  0.00     0.080 A 
HETATM   13  C   UNL     1     -44.623 -50.885  15.158  1.00  0.00     0.042 A 
HETATM   14  C   UNL     1     -45.970 -51.192  15.322  1.00  0.00     0.005 A 
HETATM   15  C   UNL     1     -46.736 -51.489  14.200  1.00  0.00     0.024 A 
HETATM   16  C   UNL     1     -46.121 -51.471  12.957  1.00  0.00     0.006 A 
HETATM   17  C   UNL     1     -46.885 -51.817  11.714  1.00  0.00     0.068 C 
HETATM   18  N   UNL     1     -44.809 -51.168  12.792  1.00  0.00    -0.351 N 
ATOM     19  HN  UNL     1     -44.388 -51.171  11.863  1.00  0.00     0.167 HD
ENDBRANCH   1  12
TORSDOF 4
ENDMDL
