MODEL 1
REMARK VINA RESULT:      -6.0      0.000      0.000
REMARK  5 active torsions:
REMARK  status: ('A' for Active; 'I' for Inactive)
REMARK       I    between atoms: N_7  and  C_9 
REMARK    1  A    between atoms: C_9  and  C_11 
REMARK    2  A    between atoms: C_11  and  N_12 
REMARK    3  A    between atoms: N_12  and  C_13 
REMARK    4  A    between atoms: C_13  and  C_14 
REMARK    5  A    between atoms: C_14  and  N_15 
ROOT
HETATM    1  C   UNL     1     -41.648 -47.570  10.615  1.00  0.00     0.372 C 
ENDROOT
BRANCH   1   2
HETATM    2  C   UNL     1     -40.420 -47.566  11.534  1.00  0.00     0.248 C 
HETATM    3  N   UNL     1     -40.312 -48.641  12.416  1.00  0.00    -0.350 N 
HETATM    4  C   UNL     1     -41.199 -49.807  12.452  1.00  0.00     0.130 C 
HETATM    5  C   UNL     1     -39.110 -48.761  13.234  1.00  0.00     0.130 C 
HETATM    6  C   UNL     1     -40.453 -51.067  11.991  1.00  0.00    -0.000 C 
HETATM    7  C   UNL     1     -39.153 -51.242  12.798  1.00  0.00     0.011 C 
HETATM    8  C   UNL     1     -41.340 -52.303  12.118  1.00  0.00     0.011 C 
HETATM    9  C   UNL     1     -38.279 -49.974  12.793  1.00  0.00    -0.000 C 
HETATM   10  C   UNL     1     -37.630 -49.740  11.424  1.00  0.00     0.011 C 
HETATM   11  O   UNL     1     -39.567 -46.678  11.470  1.00  0.00    -0.271 OA
ENDBRANCH   1   2
BRANCH   1  12
HETATM   12  N   UNL     1     -41.794 -46.294   9.892  1.00  0.00     0.093 N 
HETATM   13  H   UNL     1     -41.105 -46.278   9.135  1.00  0.00     0.316 HD
BRANCH  12  14
HETATM   14  C   UNL     1     -43.153 -46.125   9.360  1.00  0.00     0.291 C 
BRANCH  14  15
HETATM   15  C   UNL     1     -43.469 -47.122   8.242  1.00  0.00     0.178 C 
BRANCH  15  16
HETATM   16  N   UNL     1     -44.811 -47.655   8.348  1.00  0.00    -0.302 N 
HETATM   17  C   UNL     1     -45.705 -47.422   9.352  1.00  0.00     0.111 A 
HETATM   18  C   UNL     1     -46.800 -48.208   9.069  1.00  0.00     0.037 A 
HETATM   19  C   UNL     1     -46.462 -48.879   7.880  1.00  0.00     0.108 A 
HETATM   20  N   UNL     1     -45.253 -48.536   7.429  1.00  0.00    -0.310 N 
ATOM     21  HN  UNL     1     -44.777 -48.862   6.588  1.00  0.00     0.186 HD
ENDBRANCH  15  16
ENDBRANCH  14  15
ENDBRANCH  12  14
ENDBRANCH   1  12
TORSDOF 5
ENDMDL
MODEL 2
REMARK VINA RESULT:      -6.0      4.566      7.692
REMARK  5 active torsions:
REMARK  status: ('A' for Active; 'I' for Inactive)
REMARK       I    between atoms: N_7  and  C_9 
REMARK    1  A    between atoms: C_9  and  C_11 
REMARK    2  A    between atoms: C_11  and  N_12 
REMARK    3  A    between atoms: N_12  and  C_13 
REMARK    4  A    between atoms: C_13  and  C_14 
REMARK    5  A    between atoms: C_14  and  N_15 
ROOT
HETATM    1  C   UNL     1     -42.500 -53.749  13.314  1.00  0.00     0.372 C 
ENDROOT
BRANCH   1   2
HETATM    2  C   UNL     1     -44.018 -53.958  13.261  1.00  0.00     0.248 C 
HETATM    3  N   UNL     1     -44.743 -53.445  14.337  1.00  0.00    -0.350 N 
HETATM    4  C   UNL     1     -44.194 -52.639  15.430  1.00  0.00     0.130 C 
HETATM    5  C   UNL     1     -46.201 -53.503  14.294  1.00  0.00     0.130 C 
HETATM    6  C   UNL     1     -44.710 -51.195  15.349  1.00  0.00    -0.000 C 
HETATM    7  C   UNL     1     -46.248 -51.183  15.273  1.00  0.00     0.011 C 
HETATM    8  C   UNL     1     -44.220 -50.373  16.538  1.00  0.00     0.011 C 
HETATM    9  C   UNL     1     -46.792 -52.094  14.156  1.00  0.00    -0.000 C 
HETATM   10  C   UNL     1     -46.522 -51.507  12.767  1.00  0.00     0.011 C 
HETATM   11  O   UNL     1     -44.562 -54.519  12.308  1.00  0.00    -0.271 OA
ENDBRANCH   1   2
BRANCH   1  12
HETATM   12  N   UNL     1     -42.040 -52.816  12.269  1.00  0.00     0.093 N 
HETATM   13  H   UNL     1     -42.806 -52.684  11.603  1.00  0.00     0.316 HD
BRANCH  12  14
HETATM   14  C   UNL     1     -41.619 -51.529  12.838  1.00  0.00     0.291 C 
BRANCH  14  15
HETATM   15  C   UNL     1     -40.940 -50.628  11.802  1.00  0.00     0.178 C 
BRANCH  15  16
HETATM   16  N   UNL     1     -39.499 -50.623  11.943  1.00  0.00    -0.302 N 
HETATM   17  C   UNL     1     -38.779 -51.137  12.981  1.00  0.00     0.111 A 
HETATM   18  C   UNL     1     -37.464 -50.818  12.719  1.00  0.00     0.037 A 
HETATM   19  C   UNL     1     -37.503 -50.108  11.506  1.00  0.00     0.108 A 
HETATM   20  N   UNL     1     -38.742 -49.997  11.021  1.00  0.00    -0.310 N 
ATOM     21  HN  UNL     1     -39.044 -49.545  10.158  1.00  0.00     0.186 HD
ENDBRANCH  15  16
ENDBRANCH  14  15
ENDBRANCH  12  14
ENDBRANCH   1  12
TORSDOF 5
ENDMDL
MODEL 3
REMARK VINA RESULT:      -5.9      4.341      6.527
REMARK  5 active torsions:
REMARK  status: ('A' for Active; 'I' for Inactive)
REMARK       I    between atoms: N_7  and  C_9 
REMARK    1  A    between atoms: C_9  and  C_11 
REMARK    2  A    between atoms: C_11  and  N_12 
REMARK    3  A    between atoms: N_12  and  C_13 
REMARK    4  A    between atoms: C_13  and  C_14 
REMARK    5  A    between atoms: C_14  and  N_15 
ROOT
HETATM    1  C   UNL     1     -42.319 -53.043  13.082  1.00  0.00     0.372 C 
ENDROOT
BRANCH   1   2
HETATM    2  C   UNL     1     -43.772 -53.530  13.144  1.00  0.00     0.248 C 
HETATM    3  N   UNL     1     -44.491 -53.162  14.281  1.00  0.00    -0.350 N 
HETATM    4  C   UNL     1     -44.014 -52.270  15.342  1.00  0.00     0.130 C 
HETATM    5  C   UNL     1     -45.911 -53.490  14.352  1.00  0.00     0.130 C 
HETATM    6  C   UNL     1     -44.793 -50.947  15.325  1.00  0.00    -0.000 C 
HETATM    7  C   UNL     1     -46.308 -51.220  15.370  1.00  0.00     0.011 C 
HETATM    8  C   UNL     1     -44.370 -50.051  16.487  1.00  0.00     0.011 C 
HETATM    9  C   UNL     1     -46.762 -52.214  14.284  1.00  0.00    -0.000 C 
HETATM   10  C   UNL     1     -46.717 -51.584  12.888  1.00  0.00     0.011 C 
HETATM   11  O   UNL     1     -44.277 -54.181  12.227  1.00  0.00    -0.271 OA
ENDBRANCH   1   2
BRANCH   1  12
HETATM   12  N   UNL     1     -41.912 -52.715  11.704  1.00  0.00     0.093 N 
HETATM   13  H   UNL     1     -42.757 -52.519  11.161  1.00  0.00     0.316 HD
BRANCH  12  14
HETATM   14  C   UNL     1     -40.994 -51.568  11.667  1.00  0.00     0.291 C 
BRANCH  14  15
HETATM   15  C   UNL     1     -41.482 -50.404  12.535  1.00  0.00     0.178 C 
BRANCH  15  16
HETATM   16  N   UNL     1     -41.949 -49.288  11.739  1.00  0.00    -0.302 N 
HETATM   17  C   UNL     1     -43.036 -48.504  11.993  1.00  0.00     0.111 A 
HETATM   18  C   UNL     1     -43.134 -47.642  10.923  1.00  0.00     0.037 A 
HETATM   19  C   UNL     1     -42.065 -47.994  10.080  1.00  0.00     0.108 A 
HETATM   20  N   UNL     1     -41.331 -48.992  10.580  1.00  0.00    -0.310 N 
ATOM     21  HN  UNL     1     -40.500 -49.426  10.178  1.00  0.00     0.186 HD
ENDBRANCH  15  16
ENDBRANCH  14  15
ENDBRANCH  12  14
ENDBRANCH   1  12
TORSDOF 5
ENDMDL
MODEL 4
REMARK VINA RESULT:      -5.5      3.563      5.332
REMARK  5 active torsions:
REMARK  status: ('A' for Active; 'I' for Inactive)
REMARK       I    between atoms: N_7  and  C_9 
REMARK    1  A    between atoms: C_9  and  C_11 
REMARK    2  A    between atoms: C_11  and  N_12 
REMARK    3  A    between atoms: N_12  and  C_13 
REMARK    4  A    between atoms: C_13  and  C_14 
REMARK    5  A    between atoms: C_14  and  N_15 
ROOT
HETATM    1  C   UNL     1     -43.307 -50.421  13.369  1.00  0.00     0.372 C 
ENDROOT
BRANCH   1   2
HETATM    2  C   UNL     1     -44.332 -51.544  13.169  1.00  0.00     0.248 C 
HETATM    3  N   UNL     1     -43.823 -52.842  13.161  1.00  0.00    -0.350 N 
HETATM    4  C   UNL     1     -42.433 -53.215  13.439  1.00  0.00     0.130 C 
HETATM    5  C   UNL     1     -44.754 -53.963  13.094  1.00  0.00     0.130 C 
HETATM    6  C   UNL     1     -42.334 -53.976  14.769  1.00  0.00    -0.000 C 
HETATM    7  C   UNL     1     -43.315 -55.162  14.779  1.00  0.00     0.011 C 
HETATM    8  C   UNL     1     -40.905 -54.453  15.019  1.00  0.00     0.011 C 
HETATM    9  C   UNL     1     -44.753 -54.743  14.416  1.00  0.00    -0.000 C 
HETATM   10  C   UNL     1     -45.407 -53.937  15.543  1.00  0.00     0.011 C 
HETATM   11  O   UNL     1     -45.537 -51.308  13.053  1.00  0.00    -0.271 OA
ENDBRANCH   1   2
BRANCH   1  12
HETATM   12  N   UNL     1     -42.628 -50.070  12.109  1.00  0.00     0.093 N 
HETATM   13  H   UNL     1     -43.255 -50.304  11.334  1.00  0.00     0.316 HD
BRANCH  12  14
HETATM   14  C   UNL     1     -42.259 -48.649  12.068  1.00  0.00     0.291 C 
BRANCH  14  15
HETATM   15  C   UNL     1     -41.551 -48.268  10.764  1.00  0.00     0.178 C 
BRANCH  15  16
HETATM   16  N   UNL     1     -42.437 -47.594   9.838  1.00  0.00    -0.302 N 
HETATM   17  C   UNL     1     -43.060 -46.395  10.030  1.00  0.00     0.111 A 
HETATM   18  C   UNL     1     -43.862 -46.208   8.926  1.00  0.00     0.037 A 
HETATM   19  C   UNL     1     -43.654 -47.352   8.135  1.00  0.00     0.108 A 
HETATM   20  N   UNL     1     -42.775 -48.196   8.682  1.00  0.00    -0.310 N 
ATOM     21  HN  UNL     1     -42.440 -49.086   8.311  1.00  0.00     0.186 HD
ENDBRANCH  15  16
ENDBRANCH  14  15
ENDBRANCH  12  14
ENDBRANCH   1  12
TORSDOF 5
ENDMDL
MODEL 5
REMARK VINA RESULT:      -5.3      4.327      7.355
REMARK  5 active torsions:
REMARK  status: ('A' for Active; 'I' for Inactive)
REMARK       I    between atoms: N_7  and  C_9 
REMARK    1  A    between atoms: C_9  and  C_11 
REMARK    2  A    between atoms: C_11  and  N_12 
REMARK    3  A    between atoms: N_12  and  C_13 
REMARK    4  A    between atoms: C_13  and  C_14 
REMARK    5  A    between atoms: C_14  and  N_15 
ROOT
HETATM    1  C   UNL     1     -42.443 -53.314  13.700  1.00  0.00     0.372 C 
ENDROOT
BRANCH   1   2
HETATM    2  C   UNL     1     -43.020 -52.520  14.878  1.00  0.00     0.248 C 
HETATM    3  N   UNL     1     -44.053 -51.635  14.571  1.00  0.00    -0.350 N 
HETATM    4  C   UNL     1     -44.694 -51.491  13.261  1.00  0.00     0.130 C 
HETATM    5  C   UNL     1     -44.728 -50.936  15.660  1.00  0.00     0.130 C 
HETATM    6  C   UNL     1     -46.141 -52.002  13.309  1.00  0.00    -0.000 C 
HETATM    7  C   UNL     1     -46.908 -51.323  14.459  1.00  0.00     0.011 C 
HETATM    8  C   UNL     1     -46.846 -51.767  11.975  1.00  0.00     0.011 C 
HETATM    9  C   UNL     1     -46.172 -51.436  15.807  1.00  0.00    -0.000 C 
HETATM   10  C   UNL     1     -46.216 -52.866  16.358  1.00  0.00     0.011 C 
HETATM   11  O   UNL     1     -42.612 -52.683  16.030  1.00  0.00    -0.271 OA
ENDBRANCH   1   2
BRANCH   1  12
HETATM   12  N   UNL     1     -41.164 -52.747  13.233  1.00  0.00     0.093 N 
HETATM   13  H   UNL     1     -40.487 -53.511  13.161  1.00  0.00     0.316 HD
BRANCH  12  14
HETATM   14  C   UNL     1     -41.313 -52.061  11.944  1.00  0.00     0.291 C 
BRANCH  14  15
HETATM   15  C   UNL     1     -41.161 -50.542  12.072  1.00  0.00     0.178 C 
BRANCH  15  16
HETATM   16  N   UNL     1     -39.777 -50.140  12.206  1.00  0.00    -0.302 N 
HETATM   17  C   UNL     1     -39.247 -49.356  13.188  1.00  0.00     0.111 A 
HETATM   18  C   UNL     1     -37.924 -49.174  12.849  1.00  0.00     0.037 A 
HETATM   19  C   UNL     1     -37.762 -49.883  11.646  1.00  0.00     0.108 A 
HETATM   20  N   UNL     1     -38.888 -50.485  11.255  1.00  0.00    -0.310 N 
ATOM     21  HN  UNL     1     -39.039 -51.068  10.431  1.00  0.00     0.186 HD
ENDBRANCH  15  16
ENDBRANCH  14  15
ENDBRANCH  12  14
ENDBRANCH   1  12
TORSDOF 5
ENDMDL
MODEL 6
REMARK VINA RESULT:      -5.3      4.808      7.609
REMARK  5 active torsions:
REMARK  status: ('A' for Active; 'I' for Inactive)
REMARK       I    between atoms: N_7  and  C_9 
REMARK    1  A    between atoms: C_9  and  C_11 
REMARK    2  A    between atoms: C_11  and  N_12 
REMARK    3  A    between atoms: N_12  and  C_13 
REMARK    4  A    between atoms: C_13  and  C_14 
REMARK    5  A    between atoms: C_14  and  N_15 
ROOT
HETATM    1  C   UNL     1     -42.449 -53.454  14.435  1.00  0.00     0.372 C 
ENDROOT
BRANCH   1   2
HETATM    2  C   UNL     1     -43.907 -53.794  14.104  1.00  0.00     0.248 C 
HETATM    3  N   UNL     1     -44.863 -53.334  15.009  1.00  0.00    -0.350 N 
HETATM    4  C   UNL     1     -44.599 -52.473  16.165  1.00  0.00     0.130 C 
HETATM    5  C   UNL     1     -46.275 -53.518  14.695  1.00  0.00     0.130 C 
HETATM    6  C   UNL     1     -45.208 -51.080  15.951  1.00  0.00    -0.000 C 
HETATM    7  C   UNL     1     -46.699 -51.201  15.587  1.00  0.00     0.011 C 
HETATM    8  C   UNL     1     -45.022 -50.207  17.190  1.00  0.00     0.011 C 
HETATM    9  C   UNL     1     -46.945 -52.166  14.412  1.00  0.00    -0.000 C 
HETATM   10  C   UNL     1     -46.465 -51.572  13.083  1.00  0.00     0.011 C 
HETATM   11  O   UNL     1     -44.212 -54.409  13.080  1.00  0.00    -0.271 OA
ENDBRANCH   1   2
BRANCH   1  12
HETATM   12  N   UNL     1     -41.507 -54.175  13.560  1.00  0.00     0.093 N 
HETATM   13  H   UNL     1     -42.053 -54.709  12.879  1.00  0.00     0.316 HD
BRANCH  12  14
HETATM   14  C   UNL     1     -40.584 -53.256  12.881  1.00  0.00     0.291 C 
BRANCH  14  15
HETATM   15  C   UNL     1     -41.305 -52.326  11.901  1.00  0.00     0.178 C 
BRANCH  15  16
HETATM   16  N   UNL     1     -40.704 -51.010  11.853  1.00  0.00    -0.302 N 
HETATM   17  C   UNL     1     -41.359 -49.815  11.782  1.00  0.00     0.111 A 
HETATM   18  C   UNL     1     -40.377 -48.856  11.667  1.00  0.00     0.037 A 
HETATM   19  C   UNL     1     -39.170 -49.577  11.669  1.00  0.00     0.108 A 
HETATM   20  N   UNL     1     -39.363 -50.892  11.795  1.00  0.00    -0.310 N 
ATOM     21  HN  UNL     1     -38.662 -51.632  11.838  1.00  0.00     0.186 HD
ENDBRANCH  15  16
ENDBRANCH  14  15
ENDBRANCH  12  14
ENDBRANCH   1  12
TORSDOF 5
ENDMDL
MODEL 7
REMARK VINA RESULT:      -5.2      4.649      7.843
REMARK  5 active torsions:
REMARK  status: ('A' for Active; 'I' for Inactive)
REMARK       I    between atoms: N_7  and  C_9 
REMARK    1  A    between atoms: C_9  and  C_11 
REMARK    2  A    between atoms: C_11  and  N_12 
REMARK    3  A    between atoms: N_12  and  C_13 
REMARK    4  A    between atoms: C_13  and  C_14 
REMARK    5  A    between atoms: C_14  and  N_15 
ROOT
HETATM    1  C   UNL     1     -41.372 -53.670  14.172  1.00  0.00     0.372 C 
ENDROOT
BRANCH   1   2
HETATM    2  C   UNL     1     -42.395 -53.266  13.103  1.00  0.00     0.248 C 
HETATM    3  N   UNL     1     -43.716 -53.641  13.348  1.00  0.00    -0.350 N 
HETATM    4  C   UNL     1     -44.210 -54.275  14.573  1.00  0.00     0.130 C 
HETATM    5  C   UNL     1     -44.758 -53.187  12.433  1.00  0.00     0.130 C 
HETATM    6  C   UNL     1     -45.118 -53.312  15.351  1.00  0.00    -0.000 C 
HETATM    7  C   UNL     1     -46.230 -52.769  14.434  1.00  0.00     0.011 C 
HETATM    8  C   UNL     1     -45.714 -53.996  16.578  1.00  0.00     0.011 C 
HETATM    9  C   UNL     1     -45.678 -52.172  13.126  1.00  0.00    -0.000 C 
HETATM   10  C   UNL     1     -44.959 -50.841  13.372  1.00  0.00     0.011 C 
HETATM   11  O   UNL     1     -42.068 -52.621  12.104  1.00  0.00    -0.271 OA
ENDBRANCH   1   2
BRANCH   1  12
HETATM   12  N   UNL     1     -40.157 -54.251  13.573  1.00  0.00     0.093 N 
HETATM   13  H   UNL     1     -40.187 -54.079  12.565  1.00  0.00     0.316 HD
BRANCH  12  14
HETATM   14  C   UNL     1     -38.937 -53.683  14.162  1.00  0.00     0.291 C 
BRANCH  14  15
HETATM   15  C   UNL     1     -39.072 -52.184  14.447  1.00  0.00     0.178 C 
BRANCH  15  16
HETATM   16  N   UNL     1     -38.708 -51.375  13.304  1.00  0.00    -0.302 N 
HETATM   17  C   UNL     1     -37.445 -51.076  12.884  1.00  0.00     0.111 A 
HETATM   18  C   UNL     1     -37.598 -50.211  11.822  1.00  0.00     0.037 A 
HETATM   19  C   UNL     1     -38.988 -50.049  11.689  1.00  0.00     0.108 A 
HETATM   20  N   UNL     1     -39.672 -50.767  12.584  1.00  0.00    -0.310 N 
ATOM     21  HN  UNL     1     -40.683 -50.838  12.696  1.00  0.00     0.186 HD
ENDBRANCH  15  16
ENDBRANCH  14  15
ENDBRANCH  12  14
ENDBRANCH   1  12
TORSDOF 5
ENDMDL
MODEL 8
REMARK VINA RESULT:      -5.1      2.413      5.967
REMARK  5 active torsions:
REMARK  status: ('A' for Active; 'I' for Inactive)
REMARK       I    between atoms: N_7  and  C_9 
REMARK    1  A    between atoms: C_9  and  C_11 
REMARK    2  A    between atoms: C_11  and  N_12 
REMARK    3  A    between atoms: N_12  and  C_13 
REMARK    4  A    between atoms: C_13  and  C_14 
REMARK    5  A    between atoms: C_14  and  N_15 
ROOT
HETATM    1  C   UNL     1     -41.225 -49.600  12.042  1.00  0.00     0.372 C 
ENDROOT
BRANCH   1   2
HETATM    2  C   UNL     1     -40.658 -48.191  11.834  1.00  0.00     0.248 C 
HETATM    3  N   UNL     1     -41.191 -47.469  10.767  1.00  0.00    -0.350 N 
HETATM    4  C   UNL     1     -42.307 -47.897   9.919  1.00  0.00     0.130 C 
HETATM    5  C   UNL     1     -40.784 -46.080  10.584  1.00  0.00     0.130 C 
HETATM    6  C   UNL     1     -43.542 -47.019  10.167  1.00  0.00    -0.000 C 
HETATM    7  C   UNL     1     -43.176 -45.530  10.017  1.00  0.00     0.011 C 
HETATM    8  C   UNL     1     -44.678 -47.395   9.220  1.00  0.00     0.011 C 
HETATM    9  C   UNL     1     -41.957 -45.132  10.870  1.00  0.00    -0.000 C 
HETATM   10  C   UNL     1     -42.299 -45.101  12.364  1.00  0.00     0.011 C 
HETATM   11  O   UNL     1     -39.804 -47.718  12.588  1.00  0.00    -0.271 OA
ENDBRANCH   1   2
BRANCH   1  12
HETATM   12  N   UNL     1     -40.801 -50.176  13.331  1.00  0.00     0.093 N 
HETATM   13  H   UNL     1     -41.605 -50.164  13.963  1.00  0.00     0.316 HD
BRANCH  12  14
HETATM   14  C   UNL     1     -40.285 -51.542  13.172  1.00  0.00     0.291 C 
BRANCH  14  15
HETATM   15  C   UNL     1     -41.032 -52.324  12.087  1.00  0.00     0.178 C 
BRANCH  15  16
HETATM   16  N   UNL     1     -42.188 -53.020  12.612  1.00  0.00    -0.302 N 
HETATM   17  C   UNL     1     -42.216 -53.860  13.687  1.00  0.00     0.111 A 
HETATM   18  C   UNL     1     -43.503 -54.348  13.747  1.00  0.00     0.037 A 
HETATM   19  C   UNL     1     -44.166 -53.746  12.662  1.00  0.00     0.108 A 
HETATM   20  N   UNL     1     -43.370 -52.924  11.973  1.00  0.00    -0.310 N 
ATOM     21  HN  UNL     1     -43.602 -52.359  11.156  1.00  0.00     0.186 HD
ENDBRANCH  15  16
ENDBRANCH  14  15
ENDBRANCH  12  14
ENDBRANCH   1  12
TORSDOF 5
ENDMDL
MODEL 9
REMARK VINA RESULT:      -5.0      4.377      5.582
REMARK  5 active torsions:
REMARK  status: ('A' for Active; 'I' for Inactive)
REMARK       I    between atoms: N_7  and  C_9 
REMARK    1  A    between atoms: C_9  and  C_11 
REMARK    2  A    between atoms: C_11  and  N_12 
REMARK    3  A    between atoms: N_12  and  C_13 
REMARK    4  A    between atoms: C_13  and  C_14 
REMARK    5  A    between atoms: C_14  and  N_15 
ROOT
HETATM    1  C   UNL     1     -41.690 -51.732  12.276  1.00  0.00     0.372 C 
ENDROOT
BRANCH   1   2
HETATM    2  C   UNL     1     -40.185 -51.905  12.519  1.00  0.00     0.248 C 
HETATM    3  N   UNL     1     -39.398 -50.775  12.303  1.00  0.00    -0.350 N 
HETATM    4  C   UNL     1     -39.897 -49.435  11.983  1.00  0.00     0.130 C 
HETATM    5  C   UNL     1     -37.977 -50.835  12.628  1.00  0.00     0.130 C 
HETATM    6  C   UNL     1     -39.652 -48.473  13.154  1.00  0.00    -0.000 C 
HETATM    7  C   UNL     1     -38.169 -48.507  13.570  1.00  0.00     0.011 C 
HETATM    8  C   UNL     1     -40.080 -47.053  12.792  1.00  0.00     0.011 C 
HETATM    9  C   UNL     1     -37.661 -49.937  13.832  1.00  0.00    -0.000 C 
HETATM   10  C   UNL     1     -38.242 -50.513  15.128  1.00  0.00     0.011 C 
HETATM   11  O   UNL     1     -39.711 -52.974  12.911  1.00  0.00    -0.271 OA
ENDBRANCH   1   2
BRANCH   1  12
HETATM   12  N   UNL     1     -42.486 -52.209  13.422  1.00  0.00     0.093 N 
HETATM   13  H   UNL     1     -43.150 -51.472  13.675  1.00  0.00     0.316 HD
BRANCH  12  14
HETATM   14  C   UNL     1     -43.192 -53.459  13.110  1.00  0.00     0.291 C 
BRANCH  14  15
HETATM   15  C   UNL     1     -44.532 -53.212  12.411  1.00  0.00     0.178 C 
BRANCH  15  16
HETATM   16  N   UNL     1     -45.548 -52.740  13.327  1.00  0.00    -0.302 N 
HETATM   17  C   UNL     1     -45.784 -51.446  13.688  1.00  0.00     0.111 A 
HETATM   18  C   UNL     1     -46.777 -51.499  14.641  1.00  0.00     0.037 A 
HETATM   19  C   UNL     1     -47.063 -52.868  14.787  1.00  0.00     0.108 A 
HETATM   20  N   UNL     1     -46.323 -53.630  13.978  1.00  0.00    -0.310 N 
ATOM     21  HN  UNL     1     -46.341 -54.645  13.876  1.00  0.00     0.186 HD
ENDBRANCH  15  16
ENDBRANCH  14  15
ENDBRANCH  12  14
ENDBRANCH   1  12
TORSDOF 5
ENDMDL
