MODEL 1
REMARK VINA RESULT:      -4.6      0.000      0.000
REMARK  2 active torsions:
REMARK  status: ('A' for Active; 'I' for Inactive)
REMARK    1  A    between atoms: N_1  and  C_2 
REMARK    2  A    between atoms: C_7  and  N_8 
ROOT
HETATM    1  C   UNL     1     -40.630 -46.432  11.452  1.00  0.00     0.242 C 
HETATM    2  C   UNL     1     -39.822 -46.791  12.708  1.00  0.00     0.037 C 
HETATM    3  C   UNL     1     -39.158 -48.165  12.604  1.00  0.00     0.002 C 
HETATM    4  C   UNL     1     -40.171 -49.256  12.272  1.00  0.00     0.002 C 
HETATM    5  C   UNL     1     -40.999 -48.923  11.031  1.00  0.00     0.029 C 
HETATM    6  C   UNL     1     -41.679 -47.546  11.159  1.00  0.00     0.140 C 
ENDROOT
BRANCH   6   7
HETATM    7  N   UNL     1     -42.567 -47.271  10.028  1.00  0.00    -0.297 N 
HETATM    8  C   UNL     1     -43.304 -46.128   9.840  1.00  0.00     0.112 A 
HETATM    9  C   UNL     1     -43.965 -46.283   8.645  1.00  0.00     0.037 A 
HETATM   10  C   UNL     1     -43.544 -47.534   8.167  1.00  0.00     0.108 A 
HETATM   11  N   UNL     1     -42.689 -48.136   8.995  1.00  0.00    -0.310 N 
ATOM     12  HN  UNL     1     -42.232 -49.040   8.877  1.00  0.00     0.186 HD
ENDBRANCH   6   7
BRANCH   1  13
HETATM   13  N   UNL     1     -39.684 -46.212  10.340  1.00  0.00     0.085 N 
HETATM   14  H   UNL     1     -39.322 -45.260  10.391  1.00  0.00     0.313 HD
HETATM   15  H   UNL     1     -40.248 -46.235   9.476  1.00  0.00     0.313 HD
ENDBRANCH   1  13
TORSDOF 2
ENDMDL
MODEL 2
REMARK VINA RESULT:      -4.6      6.048      7.560
REMARK  2 active torsions:
REMARK  status: ('A' for Active; 'I' for Inactive)
REMARK    1  A    between atoms: N_1  and  C_2 
REMARK    2  A    between atoms: C_7  and  N_8 
ROOT
HETATM    1  C   UNL     1     -44.957 -51.509  13.332  1.00  0.00     0.242 C 
HETATM    2  C   UNL     1     -46.476 -51.503  13.562  1.00  0.00     0.037 C 
HETATM    3  C   UNL     1     -46.895 -52.392  14.734  1.00  0.00     0.002 C 
HETATM    4  C   UNL     1     -46.369 -53.815  14.578  1.00  0.00     0.002 C 
HETATM    5  C   UNL     1     -44.859 -53.854  14.339  1.00  0.00     0.029 C 
HETATM    6  C   UNL     1     -44.455 -52.972  13.141  1.00  0.00     0.140 C 
ENDROOT
BRANCH   6   7
HETATM    7  N   UNL     1     -43.029 -53.096  12.832  1.00  0.00    -0.297 N 
HETATM    8  C   UNL     1     -42.146 -53.959  13.431  1.00  0.00     0.112 A 
HETATM    9  C   UNL     1     -40.931 -53.760  12.820  1.00  0.00     0.037 A 
HETATM   10  C   UNL     1     -41.181 -52.781  11.845  1.00  0.00     0.108 A 
HETATM   11  N   UNL     1     -42.454 -52.379  11.839  1.00  0.00    -0.310 N 
ATOM     12  HN  UNL     1     -42.892 -51.691  11.227  1.00  0.00     0.186 HD
ENDBRANCH   6   7
BRANCH   1  13
HETATM   13  N   UNL     1     -44.315 -50.814  14.466  1.00  0.00     0.085 N 
HETATM   14  H   UNL     1     -44.989 -50.180  14.895  1.00  0.00     0.313 HD
HETATM   15  H   UNL     1     -43.598 -50.197  14.054  1.00  0.00     0.313 HD
ENDBRANCH   1  13
TORSDOF 2
ENDMDL
MODEL 3
REMARK VINA RESULT:      -4.4      6.278      7.316
REMARK  2 active torsions:
REMARK  status: ('A' for Active; 'I' for Inactive)
REMARK    1  A    between atoms: N_1  and  C_2 
REMARK    2  A    between atoms: C_7  and  N_8 
ROOT
HETATM    1  C   UNL     1     -42.961 -52.445  12.848  1.00  0.00     0.242 C 
HETATM    2  C   UNL     1     -41.451 -52.707  12.736  1.00  0.00     0.037 C 
HETATM    3  C   UNL     1     -41.072 -54.132  13.140  1.00  0.00     0.002 C 
HETATM    4  C   UNL     1     -41.587 -54.479  14.533  1.00  0.00     0.002 C 
HETATM    5  C   UNL     1     -43.087 -54.220  14.680  1.00  0.00     0.029 C 
HETATM    6  C   UNL     1     -43.451 -52.774  14.291  1.00  0.00     0.140 C 
ENDROOT
BRANCH   6   7
HETATM    7  N   UNL     1     -44.864 -52.483  14.540  1.00  0.00    -0.297 N 
HETATM    8  C   UNL     1     -45.464 -51.253  14.441  1.00  0.00     0.112 A 
HETATM    9  C   UNL     1     -46.793 -51.443  14.732  1.00  0.00     0.037 A 
HETATM   10  C   UNL     1     -46.912 -52.823  14.963  1.00  0.00     0.108 A 
HETATM   11  N   UNL     1     -45.748 -53.463  14.840  1.00  0.00    -0.310 N 
ATOM     12  HN  UNL     1     -45.565 -54.460  14.947  1.00  0.00     0.186 HD
ENDBRANCH   6   7
BRANCH   1  13
HETATM   13  N   UNL     1     -43.646 -53.234  11.804  1.00  0.00     0.085 N 
HETATM   14  H   UNL     1     -44.644 -53.264  12.008  1.00  0.00     0.313 HD
HETATM   15  H   UNL     1     -43.322 -54.206  11.921  1.00  0.00     0.313 HD
ENDBRANCH   1  13
TORSDOF 2
ENDMDL
MODEL 4
REMARK VINA RESULT:      -4.4      5.507      6.239
REMARK  2 active torsions:
REMARK  status: ('A' for Active; 'I' for Inactive)
REMARK    1  A    between atoms: N_1  and  C_2 
REMARK    2  A    between atoms: C_7  and  N_8 
ROOT
HETATM    1  C   UNL     1     -41.491 -52.037  12.766  1.00  0.00     0.242 C 
HETATM    2  C   UNL     1     -40.090 -52.304  13.336  1.00  0.00     0.037 C 
HETATM    3  C   UNL     1     -39.837 -53.790  13.596  1.00  0.00     0.002 C 
HETATM    4  C   UNL     1     -40.917 -54.398  14.485  1.00  0.00     0.002 C 
HETATM    5  C   UNL     1     -42.325 -54.140  13.949  1.00  0.00     0.029 C 
HETATM    6  C   UNL     1     -42.573 -52.638  13.713  1.00  0.00     0.140 C 
ENDROOT
BRANCH   6   7
HETATM    7  N   UNL     1     -43.956 -52.372  13.312  1.00  0.00    -0.297 N 
HETATM    8  C   UNL     1     -44.643 -51.201  13.514  1.00  0.00     0.112 A 
HETATM    9  C   UNL     1     -45.888 -51.379  12.960  1.00  0.00     0.037 A 
HETATM   10  C   UNL     1     -45.853 -52.674  12.419  1.00  0.00     0.108 A 
HETATM   11  N   UNL     1     -44.681 -53.280  12.620  1.00  0.00    -0.310 N 
ATOM     12  HN  UNL     1     -44.397 -54.213  12.321  1.00  0.00     0.186 HD
ENDBRANCH   6   7
BRANCH   1  13
HETATM   13  N   UNL     1     -41.545 -52.584  11.395  1.00  0.00     0.085 N 
HETATM   14  H   UNL     1     -41.226 -53.552  11.408  1.00  0.00     0.313 HD
HETATM   15  H   UNL     1     -40.827 -52.075  10.856  1.00  0.00     0.313 HD
ENDBRANCH   1  13
TORSDOF 2
ENDMDL
MODEL 5
REMARK VINA RESULT:      -4.3      4.872      6.912
REMARK  2 active torsions:
REMARK  status: ('A' for Active; 'I' for Inactive)
REMARK    1  A    between atoms: N_1  and  C_2 
REMARK    2  A    between atoms: C_7  and  N_8 
ROOT
HETATM    1  C   UNL     1     -41.058 -53.815  13.491  1.00  0.00     0.242 C 
HETATM    2  C   UNL     1     -42.431 -54.337  13.939  1.00  0.00     0.037 C 
HETATM    3  C   UNL     1     -43.567 -53.836  13.047  1.00  0.00     0.002 C 
HETATM    4  C   UNL     1     -43.568 -52.315  12.936  1.00  0.00     0.002 C 
HETATM    5  C   UNL     1     -42.210 -51.762  12.502  1.00  0.00     0.029 C 
HETATM    6  C   UNL     1     -41.078 -52.258  13.423  1.00  0.00     0.140 C 
ENDROOT
BRANCH   6   7
HETATM    7  N   UNL     1     -39.794 -51.641  13.085  1.00  0.00    -0.297 N 
HETATM    8  C   UNL     1     -38.631 -51.756  13.805  1.00  0.00     0.112 A 
HETATM    9  C   UNL     1     -37.676 -51.045  13.117  1.00  0.00     0.037 A 
HETATM   10  C   UNL     1     -38.344 -50.562  11.981  1.00  0.00     0.108 A 
HETATM   11  N   UNL     1     -39.627 -50.927  11.949  1.00  0.00    -0.310 N 
ATOM     12  HN  UNL     1     -40.322 -50.716  11.233  1.00  0.00     0.186 HD
ENDBRANCH   6   7
BRANCH   1  13
HETATM   13  N   UNL     1     -40.717 -54.452  12.204  1.00  0.00     0.085 N 
HETATM   14  H   UNL     1     -39.950 -53.941  11.769  1.00  0.00     0.313 HD
HETATM   15  H   UNL     1     -41.526 -54.294  11.583  1.00  0.00     0.313 HD
ENDBRANCH   1  13
TORSDOF 2
ENDMDL
MODEL 6
REMARK VINA RESULT:      -4.1      2.007      2.363
REMARK  2 active torsions:
REMARK  status: ('A' for Active; 'I' for Inactive)
REMARK    1  A    between atoms: N_1  and  C_2 
REMARK    2  A    between atoms: C_7  and  N_8 
ROOT
HETATM    1  C   UNL     1     -40.617 -45.103  10.827  1.00  0.00     0.242 C 
HETATM    2  C   UNL     1     -39.805 -44.411  11.932  1.00  0.00     0.037 C 
HETATM    3  C   UNL     1     -39.741 -45.238  13.217  1.00  0.00     0.002 C 
HETATM    4  C   UNL     1     -41.133 -45.615  13.713  1.00  0.00     0.002 C 
HETATM    5  C   UNL     1     -41.972 -46.298  12.632  1.00  0.00     0.029 C 
HETATM    6  C   UNL     1     -42.045 -45.444  11.352  1.00  0.00     0.140 C 
ENDROOT
BRANCH   6   7
HETATM    7  N   UNL     1     -42.941 -46.034  10.355  1.00  0.00    -0.297 N 
HETATM    8  C   UNL     1     -43.099 -47.374  10.107  1.00  0.00     0.112 A 
HETATM    9  C   UNL     1     -44.051 -47.478   9.120  1.00  0.00     0.037 A 
HETATM   10  C   UNL     1     -44.433 -46.153   8.857  1.00  0.00     0.108 A 
HETATM   11  N   UNL     1     -43.771 -45.271   9.608  1.00  0.00    -0.310 N 
ATOM     12  HN  UNL     1     -43.869 -44.256   9.617  1.00  0.00     0.186 HD
ENDBRANCH   6   7
BRANCH   1  13
HETATM   13  N   UNL     1     -39.864 -46.289  10.371  1.00  0.00     0.085 N 
HETATM   14  H   UNL     1     -40.440 -47.121  10.497  1.00  0.00     0.313 HD
HETATM   15  H   UNL     1     -39.083 -46.405  11.036  1.00  0.00     0.313 HD
ENDBRANCH   1  13
TORSDOF 2
ENDMDL
MODEL 7
REMARK VINA RESULT:      -4.1      6.301      7.724
REMARK  2 active torsions:
REMARK  status: ('A' for Active; 'I' for Inactive)
REMARK    1  A    between atoms: N_1  and  C_2 
REMARK    2  A    between atoms: C_7  and  N_8 
ROOT
HETATM    1  C   UNL     1     -44.389 -51.965  15.244  1.00  0.00     0.242 C 
HETATM    2  C   UNL     1     -45.653 -51.096  15.324  1.00  0.00     0.037 C 
HETATM    3  C   UNL     1     -46.743 -51.557  14.356  1.00  0.00     0.002 C 
HETATM    4  C   UNL     1     -46.225 -51.643  12.924  1.00  0.00     0.002 C 
HETATM    5  C   UNL     1     -44.960 -52.495  12.813  1.00  0.00     0.029 C 
HETATM    6  C   UNL     1     -43.863 -52.005  13.778  1.00  0.00     0.140 C 
ENDROOT
BRANCH   6   7
HETATM    7  N   UNL     1     -42.610 -52.740  13.595  1.00  0.00    -0.297 N 
HETATM    8  C   UNL     1     -41.442 -52.525  14.282  1.00  0.00     0.112 A 
HETATM    9  C   UNL     1     -40.539 -53.450  13.813  1.00  0.00     0.037 A 
HETATM   10  C   UNL     1     -41.258 -54.200  12.869  1.00  0.00     0.108 A 
HETATM   11  N   UNL     1     -42.518 -53.782  12.737  1.00  0.00    -0.310 N 
ATOM     12  HN  UNL     1     -43.245 -54.160  12.129  1.00  0.00     0.186 HD
ENDBRANCH   6   7
BRANCH   1  13
HETATM   13  N   UNL     1     -44.711 -53.301  15.786  1.00  0.00     0.085 N 
HETATM   14  H   UNL     1     -45.179 -53.851  15.067  1.00  0.00     0.313 HD
HETATM   15  H   UNL     1     -45.428 -53.150  16.513  1.00  0.00     0.313 HD
ENDBRANCH   1  13
TORSDOF 2
ENDMDL
MODEL 8
REMARK VINA RESULT:      -4.1      3.429      4.570
REMARK  2 active torsions:
REMARK  status: ('A' for Active; 'I' for Inactive)
REMARK    1  A    between atoms: N_1  and  C_2 
REMARK    2  A    between atoms: C_7  and  N_8 
ROOT
HETATM    1  C   UNL     1     -40.331 -49.420  11.723  1.00  0.00     0.242 C 
HETATM    2  C   UNL     1     -38.990 -48.683  11.850  1.00  0.00     0.037 C 
HETATM    3  C   UNL     1     -37.796 -49.637  11.870  1.00  0.00     0.002 C 
HETATM    4  C   UNL     1     -37.942 -50.701  12.954  1.00  0.00     0.002 C 
HETATM    5  C   UNL     1     -39.273 -51.447  12.860  1.00  0.00     0.029 C 
HETATM    6  C   UNL     1     -40.468 -50.474  12.863  1.00  0.00     0.140 C 
ENDROOT
BRANCH   6   7
HETATM    7  N   UNL     1     -41.748 -51.185  12.893  1.00  0.00    -0.297 N 
HETATM    8  C   UNL     1     -42.934 -50.689  13.371  1.00  0.00     0.112 A 
HETATM    9  C   UNL     1     -43.874 -51.674  13.180  1.00  0.00     0.037 A 
HETATM   10  C   UNL     1     -43.172 -52.715  12.553  1.00  0.00     0.108 A 
HETATM   11  N   UNL     1     -41.884 -52.423  12.366  1.00  0.00    -0.310 N 
ATOM     12  HN  UNL     1     -41.166 -53.000  11.928  1.00  0.00     0.186 HD
ENDBRANCH   6   7
BRANCH   1  13
HETATM   13  N   UNL     1     -40.409 -50.009  10.371  1.00  0.00     0.085 N 
HETATM   14  H   UNL     1     -40.673 -50.991  10.447  1.00  0.00     0.313 HD
HETATM   15  H   UNL     1     -39.444 -50.022  10.008  1.00  0.00     0.313 HD
ENDBRANCH   1  13
TORSDOF 2
ENDMDL
MODEL 9
REMARK VINA RESULT:      -4.1      4.587      6.458
REMARK  2 active torsions:
REMARK  status: ('A' for Active; 'I' for Inactive)
REMARK    1  A    between atoms: N_1  and  C_2 
REMARK    2  A    between atoms: C_7  and  N_8 
ROOT
HETATM    1  C   UNL     1     -43.036 -52.573  12.470  1.00  0.00     0.242 C 
HETATM    2  C   UNL     1     -43.834 -53.853  12.761  1.00  0.00     0.037 C 
HETATM    3  C   UNL     1     -43.567 -54.403  14.162  1.00  0.00     0.002 C 
HETATM    4  C   UNL     1     -42.077 -54.617  14.408  1.00  0.00     0.002 C 
HETATM    5  C   UNL     1     -41.253 -53.363  14.117  1.00  0.00     0.029 C 
HETATM    6  C   UNL     1     -41.516 -52.832  12.695  1.00  0.00     0.140 C 
ENDROOT
BRANCH   6   7
HETATM    7  N   UNL     1     -40.645 -51.701  12.367  1.00  0.00    -0.297 N 
HETATM    8  C   UNL     1     -39.538 -51.304  13.074  1.00  0.00     0.112 A 
HETATM    9  C   UNL     1     -39.011 -50.228  12.401  1.00  0.00     0.037 A 
HETATM   10  C   UNL     1     -39.846 -50.065  11.284  1.00  0.00     0.108 A 
HETATM   11  N   UNL     1     -40.835 -50.961  11.251  1.00  0.00    -0.310 N 
ATOM     12  HN  UNL     1     -41.565 -51.064  10.546  1.00  0.00     0.186 HD
ENDBRANCH   6   7
BRANCH   1  13
HETATM   13  N   UNL     1     -43.576 -51.488  13.315  1.00  0.00     0.085 N 
HETATM   14  H   UNL     1     -44.567 -51.364  13.109  1.00  0.00     0.313 HD
HETATM   15  H   UNL     1     -43.126 -50.619  12.987  1.00  0.00     0.313 HD
ENDBRANCH   1  13
TORSDOF 2
ENDMDL
