MODEL 1
REMARK VINA RESULT:      -6.0      0.000      0.000
REMARK  6 active torsions:
REMARK  status: ('A' for Active; 'I' for Inactive)
REMARK    1  A    between atoms: N_5  and  C_6 
REMARK    2  A    between atoms: C_6  and  C_7 
REMARK    3  A    between atoms: C_7  and  O_8 
REMARK    4  A    between atoms: C_12  and  C_19 
REMARK    5  A    between atoms: C_14  and  C_15 
REMARK    6  A    between atoms: C_15  and  O_17 
ROOT
HETATM    1  C   UNL     1     -37.515 -50.939  13.091  1.00  0.00     0.070 C 
HETATM    2  C   UNL     1     -38.919 -50.814  12.620  1.00  0.00     0.037 A 
HETATM    3  N   UNL     1     -39.251 -49.728  11.905  1.00  0.00    -0.300 N 
ATOM      4  HN  UNL     1     -38.651 -48.950  11.630  1.00  0.00     0.187 HD
HETATM    5  N   UNL     1     -40.561 -49.903  11.633  1.00  0.00    -0.274 N 
HETATM    6  C   UNL     1     -41.075 -51.061  12.153  1.00  0.00     0.136 A 
HETATM    7  N   UNL     1     -42.343 -51.489  12.024  1.00  0.00    -0.344 N 
ATOM      8  HN  UNL     1     -43.057 -50.940  11.545  1.00  0.00     0.167 HD
HETATM    9  C   UNL     1     -42.607 -52.697  12.572  1.00  0.00     0.016 A 
HETATM   10  C   UNL     1     -41.635 -53.434  13.255  1.00  0.00     0.045 A 
HETATM   11  C   UNL     1     -40.328 -52.933  13.406  1.00  0.00     0.055 A 
HETATM   12  C   UNL     1     -40.025 -51.699  12.804  1.00  0.00     0.050 A 
ENDROOT
BRANCH   5  13
HETATM   13  C   UNL     1     -41.282 -48.957  10.799  1.00  0.00     0.177 C 
BRANCH  13  14
HETATM   14  C   UNL     1     -41.074 -47.492  11.179  1.00  0.00     0.185 C 
BRANCH  14  15
HETATM   15  O   UNL     1     -39.888 -46.960  10.588  1.00  0.00    -0.399 OA
HETATM   16  H   UNL     1     -39.449 -46.458  11.310  1.00  0.00     0.209 HD
ENDBRANCH  14  15
ENDBRANCH  13  14
ENDBRANCH   5  13
BRANCH   9  17
HETATM   17  C   UNL     1     -43.998 -53.251  12.361  1.00  0.00     0.036 A 
HETATM   18  C   UNL     1     -45.082 -52.891  13.356  1.00  0.00     0.011 A 
HETATM   19  C   UNL     1     -44.602 -54.307  13.259  1.00  0.00     0.011 A 
ENDBRANCH   9  17
BRANCH  11  20
HETATM   20  C   UNL     1     -39.284 -53.726  14.092  1.00  0.00     0.177 C 
HETATM   21  O   UNL     1     -38.955 -53.543  15.249  1.00  0.00    -0.646 OA
BRANCH  20  22
HETATM   22  O   UNL     1     -38.717 -54.676  13.319  1.00  0.00    -0.773 OA
HETATM   23  H   UNL     1     -39.238 -55.486  13.175  1.00  0.00     0.167 HD
ENDBRANCH  20  22
ENDBRANCH  11  20
TORSDOF 6
ENDMDL
MODEL 2
REMARK VINA RESULT:      -5.6      1.819      2.230
REMARK  6 active torsions:
REMARK  status: ('A' for Active; 'I' for Inactive)
REMARK    1  A    between atoms: N_5  and  C_6 
REMARK    2  A    between atoms: C_6  and  C_7 
REMARK    3  A    between atoms: C_7  and  O_8 
REMARK    4  A    between atoms: C_12  and  C_19 
REMARK    5  A    between atoms: C_14  and  C_15 
REMARK    6  A    between atoms: C_15  and  O_17 
ROOT
HETATM    1  C   UNL     1     -39.045 -50.393  11.842  1.00  0.00     0.070 C 
HETATM    2  C   UNL     1     -40.468 -49.986  11.971  1.00  0.00     0.037 A 
HETATM    3  N   UNL     1     -40.795 -48.722  11.659  1.00  0.00    -0.300 N 
ATOM      4  HN  UNL     1     -40.179 -47.977  11.334  1.00  0.00     0.187 HD
HETATM    5  N   UNL     1     -42.126 -48.664  11.874  1.00  0.00    -0.274 N 
HETATM    6  C   UNL     1     -42.657 -49.847  12.315  1.00  0.00     0.136 A 
HETATM    7  N   UNL     1     -43.953 -50.073  12.595  1.00  0.00    -0.344 N 
ATOM      8  HN  UNL     1     -44.659 -49.340  12.539  1.00  0.00     0.167 HD
HETATM    9  C   UNL     1     -44.255 -51.342  12.957  1.00  0.00     0.016 A 
HETATM   10  C   UNL     1     -43.281 -52.339  13.066  1.00  0.00     0.045 A 
HETATM   11  C   UNL     1     -41.927 -52.051  12.805  1.00  0.00     0.055 A 
HETATM   12  C   UNL     1     -41.602 -50.750  12.384  1.00  0.00     0.050 A 
ENDROOT
BRANCH   5  13
HETATM   13  C   UNL     1     -42.877 -47.458  11.576  1.00  0.00     0.177 C 
BRANCH  13  14
HETATM   14  C   UNL     1     -43.349 -47.349  10.126  1.00  0.00     0.185 C 
BRANCH  14  15
HETATM   15  O   UNL     1     -42.554 -48.151   9.254  1.00  0.00    -0.399 OA
HETATM   16  H   UNL     1     -41.789 -48.437   9.801  1.00  0.00     0.209 HD
ENDBRANCH  14  15
ENDBRANCH  13  14
ENDBRANCH   5  13
BRANCH   9  17
HETATM   17  C   UNL     1     -45.717 -51.654  13.185  1.00  0.00     0.036 A 
HETATM   18  C   UNL     1     -46.317 -51.368  14.546  1.00  0.00     0.011 A 
HETATM   19  C   UNL     1     -46.182 -52.784  14.075  1.00  0.00     0.011 A 
ENDBRANCH   9  17
BRANCH  11  20
HETATM   20  C   UNL     1     -40.898 -53.112  12.877  1.00  0.00     0.177 C 
HETATM   21  O   UNL     1     -40.413 -53.505  13.922  1.00  0.00    -0.646 OA
BRANCH  20  22
HETATM   22  O   UNL     1     -40.533 -53.609  11.676  1.00  0.00    -0.773 OA
HETATM   23  H   UNL     1     -41.256 -53.882  11.083  1.00  0.00     0.167 HD
ENDBRANCH  20  22
ENDBRANCH  11  20
TORSDOF 6
ENDMDL
MODEL 3
REMARK VINA RESULT:      -5.6      2.221      4.825
REMARK  6 active torsions:
REMARK  status: ('A' for Active; 'I' for Inactive)
REMARK    1  A    between atoms: N_5  and  C_6 
REMARK    2  A    between atoms: C_6  and  C_7 
REMARK    3  A    between atoms: C_7  and  O_8 
REMARK    4  A    between atoms: C_12  and  C_19 
REMARK    5  A    between atoms: C_14  and  C_15 
REMARK    6  A    between atoms: C_15  and  O_17 
ROOT
HETATM    1  C   UNL     1     -39.226 -54.182  14.058  1.00  0.00     0.070 C 
HETATM    2  C   UNL     1     -40.274 -53.360  13.402  1.00  0.00     0.037 A 
HETATM    3  N   UNL     1     -41.517 -53.861  13.328  1.00  0.00    -0.300 N 
ATOM      4  HN  UNL     1     -41.852 -54.761  13.674  1.00  0.00     0.187 HD
HETATM    5  N   UNL     1     -42.222 -52.902  12.693  1.00  0.00    -0.274 N 
HETATM    6  C   UNL     1     -41.470 -51.808  12.356  1.00  0.00     0.136 A 
HETATM    7  N   UNL     1     -41.918 -50.705  11.730  1.00  0.00    -0.344 N 
ATOM      8  HN  UNL     1     -42.881 -50.616  11.408  1.00  0.00     0.167 HD
HETATM    9  C   UNL     1     -41.003 -49.724  11.558  1.00  0.00     0.016 A 
HETATM   10  C   UNL     1     -39.675 -49.861  11.971  1.00  0.00     0.045 A 
HETATM   11  C   UNL     1     -39.233 -51.049  12.586  1.00  0.00     0.055 A 
HETATM   12  C   UNL     1     -40.181 -52.061  12.813  1.00  0.00     0.050 A 
ENDROOT
BRANCH   5  13
HETATM   13  C   UNL     1     -43.651 -53.042  12.483  1.00  0.00     0.177 C 
BRANCH  13  14
HETATM   14  C   UNL     1     -44.312 -54.127  13.333  1.00  0.00     0.185 C 
BRANCH  14  15
HETATM   15  O   UNL     1     -45.667 -54.348  12.941  1.00  0.00    -0.399 OA
HETATM   16  H   UNL     1     -45.640 -55.157  12.385  1.00  0.00     0.209 HD
ENDBRANCH  14  15
ENDBRANCH  13  14
ENDBRANCH   5  13
BRANCH   9  17
HETATM   17  C   UNL     1     -41.497 -48.433  10.944  1.00  0.00     0.036 A 
HETATM   18  C   UNL     1     -41.870 -47.288  11.863  1.00  0.00     0.011 A 
HETATM   19  C   UNL     1     -42.932 -47.972  11.057  1.00  0.00     0.011 A 
ENDBRANCH   9  17
BRANCH  11  20
HETATM   20  C   UNL     1     -37.838 -51.184  13.064  1.00  0.00     0.177 C 
HETATM   21  O   UNL     1     -36.942 -51.657  12.390  1.00  0.00    -0.646 OA
BRANCH  20  22
HETATM   22  O   UNL     1     -37.643 -50.741  14.323  1.00  0.00    -0.773 OA
HETATM   23  H   UNL     1     -37.523 -51.422  15.008  1.00  0.00     0.167 HD
ENDBRANCH  20  22
ENDBRANCH  11  20
TORSDOF 6
ENDMDL
MODEL 4
REMARK VINA RESULT:      -5.6      3.073      4.812
REMARK  6 active torsions:
REMARK  status: ('A' for Active; 'I' for Inactive)
REMARK    1  A    between atoms: N_5  and  C_6 
REMARK    2  A    between atoms: C_6  and  C_7 
REMARK    3  A    between atoms: C_7  and  O_8 
REMARK    4  A    between atoms: C_12  and  C_19 
REMARK    5  A    between atoms: C_14  and  C_15 
REMARK    6  A    between atoms: C_15  and  O_17 
ROOT
HETATM    1  C   UNL     1     -46.364 -51.561  13.359  1.00  0.00     0.070 C 
HETATM    2  C   UNL     1     -44.883 -51.575  13.246  1.00  0.00     0.037 A 
HETATM    3  N   UNL     1     -44.273 -50.465  12.801  1.00  0.00    -0.300 N 
ATOM      4  HN  UNL     1     -44.701 -49.583  12.520  1.00  0.00     0.187 HD
HETATM    5  N   UNL     1     -42.962 -50.785  12.811  1.00  0.00    -0.274 N 
HETATM    6  C   UNL     1     -42.717 -52.061  13.245  1.00  0.00     0.136 A 
HETATM    7  N   UNL     1     -41.506 -52.634  13.366  1.00  0.00    -0.344 N 
ATOM      8  HN  UNL     1     -40.648 -52.156  13.092  1.00  0.00     0.167 HD
HETATM    9  C   UNL     1     -41.506 -53.887  13.876  1.00  0.00     0.016 A 
HETATM   10  C   UNL     1     -42.686 -54.553  14.220  1.00  0.00     0.045 A 
HETATM   11  C   UNL     1     -43.938 -53.935  14.039  1.00  0.00     0.055 A 
HETATM   12  C   UNL     1     -43.954 -52.616  13.552  1.00  0.00     0.050 A 
ENDROOT
BRANCH   5  13
HETATM   13  C   UNL     1     -41.952 -49.804  12.458  1.00  0.00     0.177 C 
BRANCH  13  14
HETATM   14  C   UNL     1     -42.511 -48.476  11.948  1.00  0.00     0.185 C 
BRANCH  14  15
HETATM   15  O   UNL     1     -42.905 -48.564  10.579  1.00  0.00    -0.399 OA
HETATM   16  H   UNL     1     -43.200 -47.657  10.341  1.00  0.00     0.209 HD
ENDBRANCH  14  15
ENDBRANCH  13  14
ENDBRANCH   5  13
BRANCH   9  17
HETATM   17  C   UNL     1     -40.155 -54.524  14.115  1.00  0.00     0.036 A 
HETATM   18  C   UNL     1     -39.492 -54.337  15.463  1.00  0.00     0.011 A 
HETATM   19  C   UNL     1     -38.883 -53.717  14.243  1.00  0.00     0.011 A 
ENDBRANCH   9  17
BRANCH  11  20
HETATM   20  C   UNL     1     -45.188 -54.618  14.441  1.00  0.00     0.177 C 
HETATM   21  O   UNL     1     -45.622 -54.607  15.578  1.00  0.00    -0.646 OA
BRANCH  20  22
HETATM   22  O   UNL     1     -45.810 -55.266  13.434  1.00  0.00    -0.773 OA
HETATM   23  H   UNL     1     -45.247 -55.815  12.860  1.00  0.00     0.167 HD
ENDBRANCH  20  22
ENDBRANCH  11  20
TORSDOF 6
ENDMDL
MODEL 5
REMARK VINA RESULT:      -5.5      2.406      4.785
REMARK  6 active torsions:
REMARK  status: ('A' for Active; 'I' for Inactive)
REMARK    1  A    between atoms: N_5  and  C_6 
REMARK    2  A    between atoms: C_6  and  C_7 
REMARK    3  A    between atoms: C_7  and  O_8 
REMARK    4  A    between atoms: C_12  and  C_19 
REMARK    5  A    between atoms: C_14  and  C_15 
REMARK    6  A    between atoms: C_15  and  O_17 
ROOT
HETATM    1  C   UNL     1     -38.327 -51.185  13.885  1.00  0.00     0.070 C 
HETATM    2  C   UNL     1     -39.323 -52.265  14.102  1.00  0.00     0.037 A 
HETATM    3  N   UNL     1     -39.021 -53.237  14.977  1.00  0.00    -0.300 N 
ATOM      4  HN  UNL     1     -38.171 -53.340  15.532  1.00  0.00     0.187 HD
HETATM    5  N   UNL     1     -40.099 -54.048  14.952  1.00  0.00    -0.274 N 
HETATM    6  C   UNL     1     -41.076 -53.627  14.089  1.00  0.00     0.136 A 
HETATM    7  N   UNL     1     -42.256 -54.236  13.876  1.00  0.00    -0.344 N 
ATOM      8  HN  UNL     1     -42.504 -55.116  14.328  1.00  0.00     0.167 HD
HETATM    9  C   UNL     1     -43.092 -53.601  13.022  1.00  0.00     0.016 A 
HETATM   10  C   UNL     1     -42.737 -52.412  12.379  1.00  0.00     0.045 A 
HETATM   11  C   UNL     1     -41.475 -51.827  12.595  1.00  0.00     0.055 A 
HETATM   12  C   UNL     1     -40.612 -52.449  13.514  1.00  0.00     0.050 A 
ENDROOT
BRANCH   5  13
HETATM   13  C   UNL     1     -40.187 -55.199  15.833  1.00  0.00     0.177 C 
BRANCH  13  14
HETATM   14  C   UNL     1     -38.841 -55.705  16.349  1.00  0.00     0.185 C 
BRANCH  14  15
HETATM   15  O   UNL     1     -37.924 -55.939  15.281  1.00  0.00    -0.399 OA
HETATM   16  H   UNL     1     -37.143 -55.382  15.492  1.00  0.00     0.209 HD
ENDBRANCH  14  15
ENDBRANCH  13  14
ENDBRANCH   5  13
BRANCH   9  17
HETATM   17  C   UNL     1     -44.464 -54.208  12.835  1.00  0.00     0.036 A 
HETATM   18  C   UNL     1     -45.623 -53.643  13.629  1.00  0.00     0.011 A 
HETATM   19  C   UNL     1     -45.143 -55.036  13.902  1.00  0.00     0.011 A 
ENDBRANCH   9  17
BRANCH  11  20
HETATM   20  C   UNL     1     -41.110 -50.546  11.950  1.00  0.00     0.177 C 
HETATM   21  O   UNL     1     -41.252 -49.462  12.484  1.00  0.00    -0.646 OA
BRANCH  20  22
HETATM   22  O   UNL     1     -40.608 -50.680  10.705  1.00  0.00    -0.773 OA
HETATM   23  H   UNL     1     -40.389 -51.585  10.421  1.00  0.00     0.167 HD
ENDBRANCH  20  22
ENDBRANCH  11  20
TORSDOF 6
ENDMDL
MODEL 6
REMARK VINA RESULT:      -5.5      3.438      5.172
REMARK  6 active torsions:
REMARK  status: ('A' for Active; 'I' for Inactive)
REMARK    1  A    between atoms: N_5  and  C_6 
REMARK    2  A    between atoms: C_6  and  C_7 
REMARK    3  A    between atoms: C_7  and  O_8 
REMARK    4  A    between atoms: C_12  and  C_19 
REMARK    5  A    between atoms: C_14  and  C_15 
REMARK    6  A    between atoms: C_15  and  O_17 
ROOT
HETATM    1  C   UNL     1     -41.207 -52.379  11.743  1.00  0.00     0.070 C 
HETATM    2  C   UNL     1     -42.031 -53.184  12.681  1.00  0.00     0.037 A 
HETATM    3  N   UNL     1     -43.343 -53.305  12.426  1.00  0.00    -0.300 N 
ATOM      4  HN  UNL     1     -43.871 -52.906  11.650  1.00  0.00     0.187 HD
HETATM    5  N   UNL     1     -43.803 -54.076  13.433  1.00  0.00    -0.274 N 
HETATM    6  C   UNL     1     -42.830 -54.449  14.322  1.00  0.00     0.136 A 
HETATM    7  N   UNL     1     -43.006 -55.223  15.407  1.00  0.00    -0.344 N 
ATOM      8  HN  UNL     1     -43.924 -55.571  15.684  1.00  0.00     0.167 HD
HETATM    9  C   UNL     1     -41.883 -55.510  16.105  1.00  0.00     0.016 A 
HETATM   10  C   UNL     1     -40.631 -55.006  15.742  1.00  0.00     0.045 A 
HETATM   11  C   UNL     1     -40.493 -54.163  14.622  1.00  0.00     0.055 A 
HETATM   12  C   UNL     1     -41.642 -53.891  13.860  1.00  0.00     0.050 A 
ENDROOT
BRANCH   5  13
HETATM   13  C   UNL     1     -45.191 -54.500  13.473  1.00  0.00     0.177 C 
BRANCH  13  14
HETATM   14  C   UNL     1     -46.204 -53.356  13.421  1.00  0.00     0.185 C 
BRANCH  14  15
HETATM   15  O   UNL     1     -46.392 -52.884  12.087  1.00  0.00    -0.399 OA
HETATM   16  H   UNL     1     -46.410 -51.904  12.166  1.00  0.00     0.209 HD
ENDBRANCH  14  15
ENDBRANCH  13  14
ENDBRANCH   5  13
BRANCH   9  17
HETATM   17  C   UNL     1     -42.032 -56.457  17.274  1.00  0.00     0.036 A 
HETATM   18  C   UNL     1     -42.320 -55.879  18.644  1.00  0.00     0.011 A 
HETATM   19  C   UNL     1     -41.008 -56.554  18.382  1.00  0.00     0.011 A 
ENDBRANCH   9  17
BRANCH  11  20
HETATM   20  C   UNL     1     -39.163 -53.660  14.208  1.00  0.00     0.177 C 
HETATM   21  O   UNL     1     -38.720 -52.579  14.549  1.00  0.00    -0.646 OA
BRANCH  20  22
HETATM   22  O   UNL     1     -38.480 -54.506  13.410  1.00  0.00    -0.773 OA
HETATM   23  H   UNL     1     -38.411 -55.429  13.713  1.00  0.00     0.167 HD
ENDBRANCH  20  22
ENDBRANCH  11  20
TORSDOF 6
ENDMDL
MODEL 7
REMARK VINA RESULT:      -5.3      2.412      4.975
REMARK  6 active torsions:
REMARK  status: ('A' for Active; 'I' for Inactive)
REMARK    1  A    between atoms: N_5  and  C_6 
REMARK    2  A    between atoms: C_6  and  C_7 
REMARK    3  A    between atoms: C_7  and  O_8 
REMARK    4  A    between atoms: C_12  and  C_19 
REMARK    5  A    between atoms: C_14  and  C_15 
REMARK    6  A    between atoms: C_15  and  O_17 
ROOT
HETATM    1  C   UNL     1     -42.566 -55.311  15.178  1.00  0.00     0.070 C 
HETATM    2  C   UNL     1     -42.853 -54.165  14.277  1.00  0.00     0.037 A 
HETATM    3  N   UNL     1     -44.137 -53.853  14.039  1.00  0.00    -0.300 N 
ATOM      4  HN  UNL     1     -44.972 -54.312  14.405  1.00  0.00     0.187 HD
HETATM    5  N   UNL     1     -44.069 -52.795  13.205  1.00  0.00    -0.274 N 
HETATM    6  C   UNL     1     -42.786 -52.423  12.901  1.00  0.00     0.136 A 
HETATM    7  N   UNL     1     -42.429 -51.398  12.107  1.00  0.00    -0.344 N 
ATOM      8  HN  UNL     1     -43.115 -50.824  11.618  1.00  0.00     0.167 HD
HETATM    9  C   UNL     1     -41.097 -51.182  12.003  1.00  0.00     0.016 A 
HETATM   10  C   UNL     1     -40.157 -51.990  12.649  1.00  0.00     0.045 A 
HETATM   11  C   UNL     1     -40.570 -53.081  13.439  1.00  0.00     0.055 A 
HETATM   12  C   UNL     1     -41.951 -53.293  13.594  1.00  0.00     0.050 A 
ENDROOT
BRANCH   5  13
HETATM   13  C   UNL     1     -45.273 -52.112  12.768  1.00  0.00     0.177 C 
BRANCH  13  14
HETATM   14  C   UNL     1     -46.397 -52.086  13.802  1.00  0.00     0.185 C 
BRANCH  14  15
HETATM   15  O   UNL     1     -47.025 -53.362  13.926  1.00  0.00    -0.399 OA
HETATM   16  H   UNL     1     -47.810 -53.316  13.338  1.00  0.00     0.209 HD
ENDBRANCH  14  15
ENDBRANCH  13  14
ENDBRANCH   5  13
BRANCH   9  17
HETATM   17  C   UNL     1     -40.665 -49.979  11.195  1.00  0.00     0.036 A 
HETATM   18  C   UNL     1     -40.219 -48.732  11.931  1.00  0.00     0.011 A 
HETATM   19  C   UNL     1     -41.480 -48.708  11.123  1.00  0.00     0.011 A 
ENDBRANCH   9  17
BRANCH  11  20
HETATM   20  C   UNL     1     -39.581 -53.914  14.159  1.00  0.00     0.177 C 
HETATM   21  O   UNL     1     -39.376 -53.827  15.355  1.00  0.00    -0.646 OA
BRANCH  20  22
HETATM   22  O   UNL     1     -38.915 -54.783  13.370  1.00  0.00    -0.773 OA
HETATM   23  H   UNL     1     -38.754 -54.500  12.453  1.00  0.00     0.167 HD
ENDBRANCH  20  22
ENDBRANCH  11  20
TORSDOF 6
ENDMDL
MODEL 8
REMARK VINA RESULT:      -5.2      3.794      6.717
REMARK  6 active torsions:
REMARK  status: ('A' for Active; 'I' for Inactive)
REMARK    1  A    between atoms: N_5  and  C_6 
REMARK    2  A    between atoms: C_6  and  C_7 
REMARK    3  A    between atoms: C_7  and  O_8 
REMARK    4  A    between atoms: C_12  and  C_19 
REMARK    5  A    between atoms: C_14  and  C_15 
REMARK    6  A    between atoms: C_15  and  O_17 
ROOT
HETATM    1  C   UNL     1     -40.866 -50.163  11.532  1.00  0.00     0.070 C 
HETATM    2  C   UNL     1     -41.181 -48.772  11.115  1.00  0.00     0.037 A 
HETATM    3  N   UNL     1     -42.109 -48.593  10.162  1.00  0.00    -0.300 N 
ATOM      4  HN  UNL     1     -42.646 -49.306   9.667  1.00  0.00     0.187 HD
HETATM    5  N   UNL     1     -42.168 -47.254  10.008  1.00  0.00    -0.274 N 
HETATM    6  C   UNL     1     -41.308 -46.574  10.829  1.00  0.00     0.136 A 
HETATM    7  N   UNL     1     -41.169 -45.238  10.893  1.00  0.00    -0.344 N 
ATOM      8  HN  UNL     1     -41.684 -44.607  10.280  1.00  0.00     0.167 HD
HETATM    9  C   UNL     1     -40.299 -44.789  11.827  1.00  0.00     0.016 A 
HETATM   10  C   UNL     1     -39.569 -45.657  12.645  1.00  0.00     0.045 A 
HETATM   11  C   UNL     1     -39.711 -47.052  12.518  1.00  0.00     0.055 A 
HETATM   12  C   UNL     1     -40.644 -47.535  11.584  1.00  0.00     0.050 A 
ENDROOT
BRANCH   5  13
HETATM   13  C   UNL     1     -43.125 -46.649   9.100  1.00  0.00     0.177 C 
BRANCH  13  14
HETATM   14  C   UNL     1     -43.812 -47.635   8.155  1.00  0.00     0.185 C 
BRANCH  14  15
HETATM   15  O   UNL     1     -42.910 -48.125   7.163  1.00  0.00    -0.399 OA
HETATM   16  H   UNL     1     -42.613 -47.326   6.674  1.00  0.00     0.209 HD
ENDBRANCH  14  15
ENDBRANCH  13  14
ENDBRANCH   5  13
BRANCH   9  17
HETATM   17  C   UNL     1     -40.191 -43.290  11.991  1.00  0.00     0.036 A 
HETATM   18  C   UNL     1     -41.205 -42.579  12.863  1.00  0.00     0.011 A 
HETATM   19  C   UNL     1     -41.188 -42.328  11.386  1.00  0.00     0.011 A 
ENDBRANCH   9  17
BRANCH  11  20
HETATM   20  C   UNL     1     -38.972 -47.975  13.410  1.00  0.00     0.177 C 
HETATM   21  O   UNL     1     -38.014 -48.632  13.048  1.00  0.00    -0.646 OA
BRANCH  20  22
HETATM   22  O   UNL     1     -39.458 -48.031  14.667  1.00  0.00    -0.773 OA
HETATM   23  H   UNL     1     -40.208 -47.445  14.869  1.00  0.00     0.167 HD
ENDBRANCH  20  22
ENDBRANCH  11  20
TORSDOF 6
ENDMDL
MODEL 9
REMARK VINA RESULT:      -5.1      4.712      6.491
REMARK  6 active torsions:
REMARK  status: ('A' for Active; 'I' for Inactive)
REMARK    1  A    between atoms: N_5  and  C_6 
REMARK    2  A    between atoms: C_6  and  C_7 
REMARK    3  A    between atoms: C_7  and  O_8 
REMARK    4  A    between atoms: C_12  and  C_19 
REMARK    5  A    between atoms: C_14  and  C_15 
REMARK    6  A    between atoms: C_15  and  O_17 
ROOT
HETATM    1  C   UNL     1     -42.102 -43.621  12.831  1.00  0.00     0.070 C 
HETATM    2  C   UNL     1     -42.050 -44.994  12.265  1.00  0.00     0.037 A 
HETATM    3  N   UNL     1     -43.086 -45.410  11.521  1.00  0.00    -0.300 N 
ATOM      4  HN  UNL     1     -43.934 -44.895  11.282  1.00  0.00     0.187 HD
HETATM    5  N   UNL     1     -42.749 -46.666  11.161  1.00  0.00    -0.274 N 
HETATM    6  C   UNL     1     -41.534 -47.065  11.653  1.00  0.00     0.136 A 
HETATM    7  N   UNL     1     -40.951 -48.258  11.441  1.00  0.00    -0.344 N 
ATOM      8  HN  UNL     1     -41.406 -49.000  10.912  1.00  0.00     0.167 HD
HETATM    9  C   UNL     1     -39.718 -48.404  11.979  1.00  0.00     0.016 A 
HETATM   10  C   UNL     1     -39.108 -47.397  12.732  1.00  0.00     0.045 A 
HETATM   11  C   UNL     1     -39.770 -46.176  12.968  1.00  0.00     0.055 A 
HETATM   12  C   UNL     1     -41.033 -45.990  12.379  1.00  0.00     0.050 A 
ENDROOT
BRANCH   5  13
HETATM   13  C   UNL     1     -43.598 -47.441  10.274  1.00  0.00     0.177 C 
BRANCH  13  14
HETATM   14  C   UNL     1     -43.278 -47.277   8.789  1.00  0.00     0.185 C 
BRANCH  14  15
HETATM   15  O   UNL     1     -42.748 -45.983   8.507  1.00  0.00    -0.399 OA
HETATM   16  H   UNL     1     -42.945 -45.448   9.308  1.00  0.00     0.209 HD
ENDBRANCH  14  15
ENDBRANCH  13  14
ENDBRANCH   5  13
BRANCH   9  17
HETATM   17  C   UNL     1     -38.994 -49.697  11.678  1.00  0.00     0.036 A 
HETATM   18  C   UNL     1     -38.306 -50.426  12.813  1.00  0.00     0.011 A 
HETATM   19  C   UNL     1     -37.487 -49.818  11.715  1.00  0.00     0.011 A 
ENDBRANCH   9  17
BRANCH  11  20
HETATM   20  C   UNL     1     -39.112 -45.090  13.729  1.00  0.00     0.177 C 
HETATM   21  O   UNL     1     -39.111 -45.029  14.944  1.00  0.00    -0.646 OA
BRANCH  20  22
HETATM   22  O   UNL     1     -38.514 -44.160  12.955  1.00  0.00    -0.773 OA
HETATM   23  H   UNL     1     -37.541 -44.127  12.991  1.00  0.00     0.167 HD
ENDBRANCH  20  22
ENDBRANCH  11  20
TORSDOF 6
ENDMDL
