MODEL 1
REMARK VINA RESULT:      -5.9      0.000      0.000
REMARK  4 active torsions:
REMARK  status: ('A' for Active; 'I' for Inactive)
REMARK    1  A    between atoms: C_2  and  C_4 
REMARK    2  A    between atoms: N_9  and  C_10 
REMARK    3  A    between atoms: C_10  and  C_11 
REMARK       I    between atoms: C_11  and  N_13 
REMARK    4  A    between atoms: N_13  and  C_14 
ROOT
HETATM    1  C   UNL     1     -42.215 -52.456  15.002  1.00  0.00     0.236 C 
HETATM    2  O   UNL     1     -41.187 -53.097  15.171  1.00  0.00    -0.272 OA
HETATM    3  N   UNL     1     -42.274 -51.365  14.157  1.00  0.00    -0.346 N 
HETATM    4  H   UNL     1     -43.133 -50.841  14.074  1.00  0.00     0.163 HD
ENDROOT
BRANCH   1   5
HETATM    5  C   UNL     1     -43.490 -52.798  15.734  1.00  0.00     0.232 C 
BRANCH   5   6
HETATM    6  N   UNL     1     -44.431 -53.565  14.936  1.00  0.00    -0.336 N 
HETATM    7  C   UNL     1     -45.473 -53.106  14.155  1.00  0.00     0.087 A 
HETATM    8  N   UNL     1     -46.021 -54.113  13.497  1.00  0.00    -0.354 N 
HETATM    9  C   UNL     1     -45.315 -55.230  13.830  1.00  0.00     0.106 A 
ATOM     10  HN  UNL     1     -46.819 -54.064  12.864  1.00  0.00     0.166 HD
HETATM   11  C   UNL     1     -44.326 -54.918  14.727  1.00  0.00     0.110 A 
BRANCH   7  12
HETATM   12  C   UNL     1     -45.967 -51.686  14.058  1.00  0.00     0.045 C 
HETATM   13  C   UNL     1     -46.598 -51.433  12.679  1.00  0.00     0.017 C 
HETATM   14  C   UNL     1     -46.979 -51.422  15.177  1.00  0.00     0.017 C 
ENDBRANCH   7  12
ENDBRANCH   5   6
ENDBRANCH   1   5
BRANCH   3  15
HETATM   15  C   UNL     1     -41.087 -50.826  13.474  1.00  0.00     0.176 C 
HETATM   16  C   UNL     1     -40.831 -49.367  13.845  1.00  0.00     0.035 C 
HETATM   17  C   UNL     1     -39.512 -48.840  13.291  1.00  0.00     0.004 C 
HETATM   18  C   UNL     1     -39.634 -48.290  11.873  1.00  0.00     0.020 C 
HETATM   19  C   UNL     1     -40.644 -49.005  10.987  1.00  0.00     0.122 C 
HETATM   20  N   UNL     1     -40.539 -50.448  11.010  1.00  0.00    -0.359 N 
HETATM   21  C   UNL     1     -41.077 -51.251  11.978  1.00  0.00     0.240 C 
HETATM   22  H   UNL     1     -40.607 -50.899  10.104  1.00  0.00     0.162 HD
HETATM   23  O   UNL     1     -41.434 -52.387  11.640  1.00  0.00    -0.271 OA
ENDBRANCH   3  15
TORSDOF 4
ENDMDL
MODEL 2
REMARK VINA RESULT:      -5.8      2.043      2.263
REMARK  4 active torsions:
REMARK  status: ('A' for Active; 'I' for Inactive)
REMARK    1  A    between atoms: C_2  and  C_4 
REMARK    2  A    between atoms: N_9  and  C_10 
REMARK    3  A    between atoms: C_10  and  C_11 
REMARK       I    between atoms: C_11  and  N_13 
REMARK    4  A    between atoms: N_13  and  C_14 
ROOT
HETATM    1  C   UNL     1     -42.659 -51.788  12.803  1.00  0.00     0.236 C 
HETATM    2  O   UNL     1     -42.574 -51.581  14.006  1.00  0.00    -0.272 OA
HETATM    3  N   UNL     1     -42.304 -50.838  11.865  1.00  0.00    -0.346 N 
HETATM    4  H   UNL     1     -42.423 -51.035  10.882  1.00  0.00     0.163 HD
ENDROOT
BRANCH   1   5
HETATM    5  C   UNL     1     -43.190 -53.092  12.260  1.00  0.00     0.232 C 
BRANCH   5   6
HETATM    6  N   UNL     1     -44.251 -53.668  13.068  1.00  0.00    -0.336 N 
HETATM    7  C   UNL     1     -45.511 -53.165  13.322  1.00  0.00     0.087 A 
HETATM    8  N   UNL     1     -46.219 -54.044  14.010  1.00  0.00    -0.354 N 
HETATM    9  C   UNL     1     -45.424 -55.138  14.181  1.00  0.00     0.106 A 
ATOM     10  HN  UNL     1     -47.173 -53.926  14.348  1.00  0.00     0.166 HD
HETATM   11  C   UNL     1     -44.195 -54.928  13.611  1.00  0.00     0.110 A 
BRANCH   7  12
HETATM   12  C   UNL     1     -46.037 -51.810  12.922  1.00  0.00     0.045 C 
HETATM   13  C   UNL     1     -46.914 -51.927  11.665  1.00  0.00     0.017 C 
HETATM   14  C   UNL     1     -46.829 -51.208  14.087  1.00  0.00     0.017 C 
ENDBRANCH   7  12
ENDBRANCH   5   6
ENDBRANCH   1   5
BRANCH   3  15
HETATM   15  C   UNL     1     -41.893 -49.473  12.234  1.00  0.00     0.176 C 
HETATM   16  C   UNL     1     -43.079 -48.511  12.263  1.00  0.00     0.035 C 
HETATM   17  C   UNL     1     -42.711 -47.137  12.811  1.00  0.00     0.004 C 
HETATM   18  C   UNL     1     -42.174 -46.189  11.742  1.00  0.00     0.020 C 
HETATM   19  C   UNL     1     -41.364 -46.852  10.638  1.00  0.00     0.122 C 
HETATM   20  N   UNL     1     -40.355 -47.774  11.111  1.00  0.00    -0.359 N 
HETATM   21  C   UNL     1     -40.595 -49.071  11.477  1.00  0.00     0.240 C 
HETATM   22  H   UNL     1     -39.455 -47.704  10.648  1.00  0.00     0.162 HD
HETATM   23  O   UNL     1     -39.683 -49.888  11.305  1.00  0.00    -0.271 OA
ENDBRANCH   3  15
TORSDOF 4
ENDMDL
MODEL 3
REMARK VINA RESULT:      -5.7      2.330      6.290
REMARK  4 active torsions:
REMARK  status: ('A' for Active; 'I' for Inactive)
REMARK    1  A    between atoms: C_2  and  C_4 
REMARK    2  A    between atoms: N_9  and  C_10 
REMARK    3  A    between atoms: C_10  and  C_11 
REMARK       I    between atoms: C_11  and  N_13 
REMARK    4  A    between atoms: N_13  and  C_14 
ROOT
HETATM    1  C   UNL     1     -42.930 -52.363  12.872  1.00  0.00     0.236 C 
HETATM    2  O   UNL     1     -42.874 -51.973  14.031  1.00  0.00    -0.272 OA
HETATM    3  N   UNL     1     -44.124 -52.695  12.263  1.00  0.00    -0.346 N 
HETATM    4  H   UNL     1     -44.124 -53.048  11.317  1.00  0.00     0.163 HD
ENDROOT
BRANCH   1   5
HETATM    5  C   UNL     1     -41.686 -52.538  12.035  1.00  0.00     0.232 C 
BRANCH   5   6
HETATM    6  N   UNL     1     -40.483 -52.752  12.820  1.00  0.00    -0.336 N 
HETATM    7  C   UNL     1     -39.517 -51.835  13.185  1.00  0.00     0.087 A 
HETATM    8  N   UNL     1     -38.641 -52.401  13.996  1.00  0.00    -0.354 N 
HETATM    9  C   UNL     1     -39.053 -53.686  14.184  1.00  0.00     0.106 A 
ATOM     10  HN  UNL     1     -37.815 -51.961  14.402  1.00  0.00     0.166 HD
HETATM   11  C   UNL     1     -40.191 -53.932  13.460  1.00  0.00     0.110 A 
BRANCH   7  12
HETATM   12  C   UNL     1     -39.418 -50.402  12.727  1.00  0.00     0.045 C 
HETATM   13  C   UNL     1     -39.852 -49.451  13.854  1.00  0.00     0.017 C 
HETATM   14  C   UNL     1     -37.981 -50.108  12.287  1.00  0.00     0.017 C 
ENDBRANCH   7  12
ENDBRANCH   5   6
ENDBRANCH   1   5
BRANCH   3  15
HETATM   15  C   UNL     1     -45.407 -52.705  12.985  1.00  0.00     0.176 C 
HETATM   16  C   UNL     1     -45.650 -51.395  13.731  1.00  0.00     0.035 C 
HETATM   17  C   UNL     1     -47.046 -51.312  14.340  1.00  0.00     0.004 C 
HETATM   18  C   UNL     1     -47.131 -51.933  15.731  1.00  0.00     0.020 C 
HETATM   19  C   UNL     1     -46.232 -53.140  15.956  1.00  0.00     0.122 C 
HETATM   20  N   UNL     1     -46.293 -54.133  14.906  1.00  0.00    -0.359 N 
HETATM   21  C   UNL     1     -45.608 -54.058  13.724  1.00  0.00     0.240 C 
HETATM   22  H   UNL     1     -46.336 -55.095  15.224  1.00  0.00     0.162 HD
HETATM   23  O   UNL     1     -45.270 -55.125  13.195  1.00  0.00    -0.271 OA
ENDBRANCH   3  15
TORSDOF 4
ENDMDL
MODEL 4
REMARK VINA RESULT:      -5.7      1.891      6.115
REMARK  4 active torsions:
REMARK  status: ('A' for Active; 'I' for Inactive)
REMARK    1  A    between atoms: C_2  and  C_4 
REMARK    2  A    between atoms: N_9  and  C_10 
REMARK    3  A    between atoms: C_10  and  C_11 
REMARK       I    between atoms: C_11  and  N_13 
REMARK    4  A    between atoms: N_13  and  C_14 
ROOT
HETATM    1  C   UNL     1     -42.741 -52.368  12.950  1.00  0.00     0.236 C 
HETATM    2  O   UNL     1     -42.625 -52.559  14.153  1.00  0.00    -0.272 OA
HETATM    3  N   UNL     1     -43.974 -52.230  12.342  1.00  0.00    -0.346 N 
HETATM    4  H   UNL     1     -44.028 -52.110  11.340  1.00  0.00     0.163 HD
ENDROOT
BRANCH   1   5
HETATM    5  C   UNL     1     -41.540 -52.300  12.039  1.00  0.00     0.232 C 
BRANCH   5   6
HETATM    6  N   UNL     1     -40.629 -51.215  12.358  1.00  0.00    -0.336 N 
HETATM    7  C   UNL     1     -40.828 -49.855  12.221  1.00  0.00     0.087 A 
HETATM    8  N   UNL     1     -39.801 -49.195  12.730  1.00  0.00    -0.354 N 
HETATM    9  C   UNL     1     -38.942 -50.129  13.227  1.00  0.00     0.106 A 
ATOM     10  HN  UNL     1     -39.677 -48.183  12.747  1.00  0.00     0.166 HD
HETATM   11  C   UNL     1     -39.430 -51.391  13.003  1.00  0.00     0.110 A 
BRANCH   7  12
HETATM   12  C   UNL     1     -42.006 -49.179  11.568  1.00  0.00     0.045 C 
HETATM   13  C   UNL     1     -42.971 -48.639  12.637  1.00  0.00     0.017 C 
HETATM   14  C   UNL     1     -41.506 -48.048  10.664  1.00  0.00     0.017 C 
ENDBRANCH   7  12
ENDBRANCH   5   6
ENDBRANCH   1   5
BRANCH   3  15
HETATM   15  C   UNL     1     -45.242 -52.403  13.069  1.00  0.00     0.176 C 
HETATM   16  C   UNL     1     -45.476 -51.281  14.079  1.00  0.00     0.035 C 
HETATM   17  C   UNL     1     -46.859 -51.340  14.717  1.00  0.00     0.004 C 
HETATM   18  C   UNL     1     -46.913 -52.241  15.948  1.00  0.00     0.020 C 
HETATM   19  C   UNL     1     -46.004 -53.460  15.897  1.00  0.00     0.122 C 
HETATM   20  N   UNL     1     -46.081 -54.210  14.664  1.00  0.00    -0.359 N 
HETATM   21  C   UNL     1     -45.420 -53.883  13.511  1.00  0.00     0.240 C 
HETATM   22  H   UNL     1     -46.113 -55.218  14.773  1.00  0.00     0.162 HD
HETATM   23  O   UNL     1     -45.088 -54.812  12.764  1.00  0.00    -0.271 OA
ENDBRANCH   3  15
TORSDOF 4
ENDMDL
MODEL 5
REMARK VINA RESULT:      -5.7      1.804      6.759
REMARK  4 active torsions:
REMARK  status: ('A' for Active; 'I' for Inactive)
REMARK    1  A    between atoms: C_2  and  C_4 
REMARK    2  A    between atoms: N_9  and  C_10 
REMARK    3  A    between atoms: C_10  and  C_11 
REMARK       I    between atoms: C_11  and  N_13 
REMARK    4  A    between atoms: N_13  and  C_14 
ROOT
HETATM    1  C   UNL     1     -42.408 -51.645  12.966  1.00  0.00     0.236 C 
HETATM    2  O   UNL     1     -42.389 -51.281  14.134  1.00  0.00    -0.272 OA
HETATM    3  N   UNL     1     -43.533 -52.199  12.385  1.00  0.00    -0.346 N 
HETATM    4  H   UNL     1     -43.497 -52.521  11.429  1.00  0.00     0.163 HD
ENDROOT
BRANCH   1   5
HETATM    5  C   UNL     1     -41.188 -51.542  12.084  1.00  0.00     0.232 C 
BRANCH   5   6
HETATM    6  N   UNL     1     -40.792 -50.175  11.796  1.00  0.00    -0.336 N 
HETATM    7  C   UNL     1     -39.520 -49.651  11.685  1.00  0.00     0.087 A 
HETATM    8  N   UNL     1     -39.584 -48.388  11.301  1.00  0.00    -0.354 N 
HETATM    9  C   UNL     1     -40.904 -48.094  11.135  1.00  0.00     0.106 A 
ATOM     10  HN  UNL     1     -38.797 -47.755  11.158  1.00  0.00     0.166 HD
HETATM   11  C   UNL     1     -41.676 -49.185  11.442  1.00  0.00     0.110 A 
BRANCH   7  12
HETATM   12  C   UNL     1     -38.224 -50.364  11.976  1.00  0.00     0.045 C 
HETATM   13  C   UNL     1     -37.171 -50.014  10.911  1.00  0.00     0.017 C 
HETATM   14  C   UNL     1     -37.735 -49.978  13.375  1.00  0.00     0.017 C 
ENDBRANCH   7  12
ENDBRANCH   5   6
ENDBRANCH   1   5
BRANCH   3  15
HETATM   15  C   UNL     1     -44.759 -52.487  13.148  1.00  0.00     0.176 C 
HETATM   16  C   UNL     1     -45.471 -51.209  13.586  1.00  0.00     0.035 C 
HETATM   17  C   UNL     1     -46.830 -51.479  14.222  1.00  0.00     0.004 C 
HETATM   18  C   UNL     1     -46.747 -51.755  15.720  1.00  0.00     0.020 C 
HETATM   19  C   UNL     1     -45.493 -52.489  16.174  1.00  0.00     0.122 C 
HETATM   20  N   UNL     1     -45.165 -53.653  15.382  1.00  0.00    -0.359 N 
HETATM   21  C   UNL     1     -44.503 -53.618  14.184  1.00  0.00     0.240 C 
HETATM   22  H   UNL     1     -44.882 -54.470  15.912  1.00  0.00     0.162 HD
HETATM   23  O   UNL     1     -43.796 -54.592  13.897  1.00  0.00    -0.271 OA
ENDBRANCH   3  15
TORSDOF 4
ENDMDL
MODEL 6
REMARK VINA RESULT:      -5.4      3.539      6.294
REMARK  4 active torsions:
REMARK  status: ('A' for Active; 'I' for Inactive)
REMARK    1  A    between atoms: C_2  and  C_4 
REMARK    2  A    between atoms: N_9  and  C_10 
REMARK    3  A    between atoms: C_10  and  C_11 
REMARK       I    between atoms: C_11  and  N_13 
REMARK    4  A    between atoms: N_13  and  C_14 
ROOT
HETATM    1  C   UNL     1     -42.353 -49.736  12.554  1.00  0.00     0.236 C 
HETATM    2  O   UNL     1     -42.208 -49.891  13.760  1.00  0.00    -0.272 OA
HETATM    3  N   UNL     1     -41.843 -50.627  11.630  1.00  0.00    -0.346 N 
HETATM    4  H   UNL     1     -41.952 -50.444  10.643  1.00  0.00     0.163 HD
ENDROOT
BRANCH   1   5
HETATM    5  C   UNL     1     -43.078 -48.538  11.992  1.00  0.00     0.232 C 
BRANCH   5   6
HETATM    6  N   UNL     1     -42.218 -47.637  11.245  1.00  0.00    -0.336 N 
HETATM    7  C   UNL     1     -42.505 -46.925  10.098  1.00  0.00     0.087 A 
HETATM    8  N   UNL     1     -41.493 -46.130   9.795  1.00  0.00    -0.354 N 
HETATM    9  C   UNL     1     -40.553 -46.304  10.766  1.00  0.00     0.106 A 
ATOM     10  HN  UNL     1     -41.427 -45.507   8.990  1.00  0.00     0.166 HD
HETATM   11  C   UNL     1     -40.976 -47.239  11.676  1.00  0.00     0.110 A 
BRANCH   7  12
HETATM   12  C   UNL     1     -43.756 -47.027   9.263  1.00  0.00     0.045 C 
HETATM   13  C   UNL     1     -44.321 -45.627   8.975  1.00  0.00     0.017 C 
HETATM   14  C   UNL     1     -43.439 -47.767   7.960  1.00  0.00     0.017 C 
ENDBRANCH   7  12
ENDBRANCH   5   6
ENDBRANCH   1   5
BRANCH   3  15
HETATM   15  C   UNL     1     -41.000 -51.772  12.014  1.00  0.00     0.176 C 
HETATM   16  C   UNL     1     -41.803 -52.855  12.730  1.00  0.00     0.035 C 
HETATM   17  C   UNL     1     -40.994 -54.123  12.979  1.00  0.00     0.004 C 
HETATM   18  C   UNL     1     -40.197 -54.079  14.280  1.00  0.00     0.020 C 
HETATM   19  C   UNL     1     -39.671 -52.706  14.670  1.00  0.00     0.122 C 
HETATM   20  N   UNL     1     -39.011 -51.994  13.598  1.00  0.00    -0.359 N 
HETATM   21  C   UNL     1     -39.657 -51.280  12.625  1.00  0.00     0.240 C 
HETATM   22  H   UNL     1     -38.148 -51.529  13.857  1.00  0.00     0.162 HD
HETATM   23  O   UNL     1     -39.066 -50.301  12.152  1.00  0.00    -0.271 OA
ENDBRANCH   3  15
TORSDOF 4
ENDMDL
MODEL 7
REMARK VINA RESULT:      -5.4      1.715      2.324
REMARK  4 active torsions:
REMARK  status: ('A' for Active; 'I' for Inactive)
REMARK    1  A    between atoms: C_2  and  C_4 
REMARK    2  A    between atoms: N_9  and  C_10 
REMARK    3  A    between atoms: C_10  and  C_11 
REMARK       I    between atoms: C_11  and  N_13 
REMARK    4  A    between atoms: N_13  and  C_14 
ROOT
HETATM    1  C   UNL     1     -41.897 -51.692  12.501  1.00  0.00     0.236 C 
HETATM    2  O   UNL     1     -41.758 -51.169  13.598  1.00  0.00    -0.272 OA
HETATM    3  N   UNL     1     -41.045 -51.428  11.446  1.00  0.00    -0.346 N 
HETATM    4  H   UNL     1     -41.216 -51.851  10.545  1.00  0.00     0.163 HD
ENDROOT
BRANCH   1   5
HETATM    5  C   UNL     1     -43.034 -52.642  12.215  1.00  0.00     0.232 C 
BRANCH   5   6
HETATM    6  N   UNL     1     -43.656 -53.180  13.412  1.00  0.00    -0.336 N 
HETATM    7  C   UNL     1     -44.859 -52.827  13.991  1.00  0.00     0.087 A 
HETATM    8  N   UNL     1     -45.124 -53.631  15.006  1.00  0.00    -0.354 N 
HETATM    9  C   UNL     1     -44.102 -54.531  15.071  1.00  0.00     0.106 A 
ATOM     10  HN  UNL     1     -45.936 -53.587  15.622  1.00  0.00     0.166 HD
HETATM   11  C   UNL     1     -43.174 -54.269  14.097  1.00  0.00     0.110 A 
BRANCH   7  12
HETATM   12  C   UNL     1     -45.754 -51.686  13.582  1.00  0.00     0.045 C 
HETATM   13  C   UNL     1     -46.544 -52.054  12.316  1.00  0.00     0.017 C 
HETATM   14  C   UNL     1     -46.701 -51.344  14.736  1.00  0.00     0.017 C 
ENDBRANCH   7  12
ENDBRANCH   5   6
ENDBRANCH   1   5
BRANCH   3  15
HETATM   15  C   UNL     1     -39.970 -50.426  11.526  1.00  0.00     0.176 C 
HETATM   16  C   UNL     1     -38.921 -50.799  12.570  1.00  0.00     0.035 C 
HETATM   17  C   UNL     1     -37.711 -49.872  12.550  1.00  0.00     0.004 C 
HETATM   18  C   UNL     1     -37.894 -48.627  13.413  1.00  0.00     0.020 C 
HETATM   19  C   UNL     1     -39.314 -48.084  13.472  1.00  0.00     0.122 C 
HETATM   20  N   UNL     1     -39.958 -47.959  12.183  1.00  0.00    -0.359 N 
HETATM   21  C   UNL     1     -40.562 -48.987  11.511  1.00  0.00     0.240 C 
HETATM   22  H   UNL     1     -40.476 -47.099  12.041  1.00  0.00     0.162 HD
HETATM   23  O   UNL     1     -41.520 -48.704  10.781  1.00  0.00    -0.271 OA
ENDBRANCH   3  15
TORSDOF 4
ENDMDL
MODEL 8
REMARK VINA RESULT:      -5.2      1.591      1.739
REMARK  4 active torsions:
REMARK  status: ('A' for Active; 'I' for Inactive)
REMARK    1  A    between atoms: C_2  and  C_4 
REMARK    2  A    between atoms: N_9  and  C_10 
REMARK    3  A    between atoms: C_10  and  C_11 
REMARK       I    between atoms: C_11  and  N_13 
REMARK    4  A    between atoms: N_13  and  C_14 
ROOT
HETATM    1  C   UNL     1     -42.309 -50.668  14.857  1.00  0.00     0.236 C 
HETATM    2  O   UNL     1     -41.123 -50.703  15.156  1.00  0.00    -0.272 OA
HETATM    3  N   UNL     1     -42.778 -49.923  13.793  1.00  0.00    -0.346 N 
HETATM    4  H   UNL     1     -43.769 -49.891  13.601  1.00  0.00     0.163 HD
ENDROOT
BRANCH   1   5
HETATM    5  C   UNL     1     -43.349 -51.417  15.654  1.00  0.00     0.232 C 
BRANCH   5   6
HETATM    6  N   UNL     1     -43.898 -52.567  14.956  1.00  0.00    -0.336 N 
HETATM    7  C   UNL     1     -44.986 -52.621  14.108  1.00  0.00     0.087 A 
HETATM    8  N   UNL     1     -45.092 -53.832  13.587  1.00  0.00    -0.354 N 
HETATM    9  C   UNL     1     -44.051 -54.562  14.077  1.00  0.00     0.106 A 
ATOM     10  HN  UNL     1     -45.813 -54.156  12.943  1.00  0.00     0.166 HD
HETATM   11  C   UNL     1     -43.298 -53.802  14.935  1.00  0.00     0.110 A 
BRANCH   7  12
HETATM   12  C   UNL     1     -45.954 -51.505  13.812  1.00  0.00     0.045 C 
HETATM   13  C   UNL     1     -46.636 -51.735  12.454  1.00  0.00     0.017 C 
HETATM   14  C   UNL     1     -46.991 -51.419  14.936  1.00  0.00     0.017 C 
ENDBRANCH   7  12
ENDBRANCH   5   6
ENDBRANCH   1   5
BRANCH   3  15
HETATM   15  C   UNL     1     -41.910 -49.035  13.002  1.00  0.00     0.176 C 
HETATM   16  C   UNL     1     -42.475 -47.620  12.911  1.00  0.00     0.035 C 
HETATM   17  C   UNL     1     -41.512 -46.641  12.249  1.00  0.00     0.004 C 
HETATM   18  C   UNL     1     -41.635 -46.614  10.728  1.00  0.00     0.020 C 
HETATM   19  C   UNL     1     -41.987 -47.948  10.085  1.00  0.00     0.122 C 
HETATM   20  N   UNL     1     -41.192 -49.063  10.553  1.00  0.00    -0.359 N 
HETATM   21  C   UNL     1     -41.428 -49.754  11.710  1.00  0.00     0.240 C 
HETATM   22  H   UNL     1     -40.868 -49.694   9.829  1.00  0.00     0.162 HD
HETATM   23  O   UNL     1     -41.113 -50.951  11.730  1.00  0.00    -0.271 OA
ENDBRANCH   3  15
TORSDOF 4
ENDMDL
MODEL 9
REMARK VINA RESULT:      -5.1      2.538      3.759
REMARK  4 active torsions:
REMARK  status: ('A' for Active; 'I' for Inactive)
REMARK    1  A    between atoms: C_2  and  C_4 
REMARK    2  A    between atoms: N_9  and  C_10 
REMARK    3  A    between atoms: C_10  and  C_11 
REMARK       I    between atoms: C_11  and  N_13 
REMARK    4  A    between atoms: N_13  and  C_14 
ROOT
HETATM    1  C   UNL     1     -41.395 -50.512  11.880  1.00  0.00     0.236 C 
HETATM    2  O   UNL     1     -40.174 -50.596  11.856  1.00  0.00    -0.272 OA
HETATM    3  N   UNL     1     -42.066 -49.403  11.403  1.00  0.00    -0.346 N 
HETATM    4  H   UNL     1     -43.073 -49.357  11.475  1.00  0.00     0.163 HD
ENDROOT
BRANCH   1   5
HETATM    5  C   UNL     1     -42.252 -51.608  12.465  1.00  0.00     0.232 C 
BRANCH   5   6
HETATM    6  N   UNL     1     -43.145 -51.148  13.514  1.00  0.00    -0.336 N 
HETATM    7  C   UNL     1     -44.467 -51.484  13.730  1.00  0.00     0.087 A 
HETATM    8  N   UNL     1     -44.893 -50.942  14.857  1.00  0.00    -0.354 N 
HETATM    9  C   UNL     1     -43.835 -50.272  15.394  1.00  0.00     0.106 A 
ATOM     10  HN  UNL     1     -45.832 -51.011  15.249  1.00  0.00     0.166 HD
HETATM   11  C   UNL     1     -42.739 -50.379  14.577  1.00  0.00     0.110 A 
BRANCH   7  12
HETATM   12  C   UNL     1     -45.343 -52.316  12.828  1.00  0.00     0.045 C 
HETATM   13  C   UNL     1     -45.535 -53.722  13.418  1.00  0.00     0.017 C 
HETATM   14  C   UNL     1     -46.691 -51.613  12.640  1.00  0.00     0.017 C 
ENDBRANCH   7  12
ENDBRANCH   5   6
ENDBRANCH   1   5
BRANCH   3  15
HETATM   15  C   UNL     1     -41.369 -48.198  10.924  1.00  0.00     0.176 C 
HETATM   16  C   UNL     1     -40.696 -47.439  12.065  1.00  0.00     0.035 C 
HETATM   17  C   UNL     1     -39.824 -46.289  11.576  1.00  0.00     0.004 C 
HETATM   18  C   UNL     1     -40.598 -44.989  11.382  1.00  0.00     0.020 C 
HETATM   19  C   UNL     1     -42.036 -45.156  10.912  1.00  0.00     0.122 C 
HETATM   20  N   UNL     1     -42.196 -46.063   9.796  1.00  0.00    -0.359 N 
HETATM   21  C   UNL     1     -42.253 -47.426   9.903  1.00  0.00     0.240 C 
HETATM   22  H   UNL     1     -42.826 -45.744   9.068  1.00  0.00     0.162 HD
HETATM   23  O   UNL     1     -42.932 -48.034   9.066  1.00  0.00    -0.271 OA
ENDBRANCH   3  15
TORSDOF 4
ENDMDL
