MODEL 1
REMARK VINA RESULT:      -6.2      0.000      0.000
REMARK  6 active torsions:
REMARK  status: ('A' for Active; 'I' for Inactive)
REMARK    1  A    between atoms: O_2  and  C_3 
REMARK    2  A    between atoms: N_6  and  C_7 
REMARK    3  A    between atoms: C_7  and  C_8 
REMARK    4  A    between atoms: C_8  and  O_9 
REMARK    5  A    between atoms: C_8  and  C_10 
REMARK    6  A    between atoms: C_10  and  N_11 
ROOT
HETATM    1  C   UNL     1     -41.857 -52.390  13.324  1.00  0.00     0.163 C 
ENDROOT
BRANCH   1   2
HETATM    2  C   UNL     1     -41.381 -52.183  11.878  1.00  0.00     0.164 C 
BRANCH   2   3
HETATM    3  C   UNL     1     -40.668 -50.806  11.753  1.00  0.00     0.305 C 
BRANCH   3   4
HETATM    4  N   UNL     1     -41.263 -49.682  12.503  1.00  0.00     0.091 N 
HETATM    5  C   UNL     1     -42.331 -48.955  11.796  1.00  0.00     0.275 C 
HETATM    6  C   UNL     1     -41.813 -48.197  10.568  1.00  0.00     0.062 C 
HETATM    7  C   UNL     1     -40.779 -47.158  11.005  1.00  0.00     0.124 C 
HETATM    8  C   UNL     1     -39.675 -47.839  11.825  1.00  0.00     0.062 C 
HETATM    9  C   UNL     1     -40.247 -48.710  12.952  1.00  0.00     0.275 C 
BRANCH   7  10
HETATM   10  O   UNL     1     -41.510 -46.175  11.746  1.00  0.00    -0.391 OA
HETATM   11  C   UNL     1     -42.255 -45.261  10.963  1.00  0.00     0.202 C 
ENDBRANCH   7  10
ENDBRANCH   3   4
ENDBRANCH   2   3
BRANCH   2  12
HETATM   12  O   UNL     1     -40.507 -53.271  11.555  1.00  0.00    -0.392 OA
HETATM   13  H   UNL     1     -40.127 -53.625  12.376  1.00  0.00     0.210 HD
ENDBRANCH   2  12
ENDBRANCH   1   2
BRANCH   1  14
HETATM   14  N   UNL     1     -43.275 -52.689  13.391  1.00  0.00    -0.339 N 
HETATM   15  C   UNL     1     -43.944 -53.531  12.543  1.00  0.00     0.184 A 
HETATM   16  N   UNL     1     -45.227 -53.578  12.818  1.00  0.00    -0.350 N 
HETATM   17  C   UNL     1     -45.393 -52.724  13.880  1.00  0.00     0.060 A 
ATOM     18  HN  UNL     1     -45.943 -54.129  12.345  1.00  0.00     0.166 HD
HETATM   19  C   UNL     1     -46.562 -52.374  14.566  1.00  0.00     0.039 A 
HETATM   20  C   UNL     1     -44.182 -52.168  14.275  1.00  0.00     0.062 A 
HETATM   21  C   UNL     1     -46.493 -51.485  15.659  1.00  0.00    -0.054 A 
HETATM   22  C   UNL     1     -47.770 -51.148  16.378  1.00  0.00     0.049 C 
HETATM   23  C   UNL     1     -45.249 -50.948  16.052  1.00  0.00    -0.054 A 
HETATM   24  C   UNL     1     -45.094 -50.015  17.225  1.00  0.00     0.049 C 
HETATM   25  C   UNL     1     -44.073 -51.278  15.347  1.00  0.00     0.039 A 
ENDBRANCH   1  14
TORSDOF 6
ENDMDL
MODEL 2
REMARK VINA RESULT:      -6.0      1.760      2.420
REMARK  6 active torsions:
REMARK  status: ('A' for Active; 'I' for Inactive)
REMARK    1  A    between atoms: O_2  and  C_3 
REMARK    2  A    between atoms: N_6  and  C_7 
REMARK    3  A    between atoms: C_7  and  C_8 
REMARK    4  A    between atoms: C_8  and  O_9 
REMARK    5  A    between atoms: C_8  and  C_10 
REMARK    6  A    between atoms: C_10  and  N_11 
ROOT
HETATM    1  C   UNL     1     -42.125 -52.811  13.418  1.00  0.00     0.163 C 
ENDROOT
BRANCH   1   2
HETATM    2  C   UNL     1     -41.662 -52.391  12.015  1.00  0.00     0.164 C 
BRANCH   2   3
HETATM    3  C   UNL     1     -41.063 -50.956  12.068  1.00  0.00     0.305 C 
BRANCH   3   4
HETATM    4  N   UNL     1     -39.598 -50.857  12.227  1.00  0.00     0.091 N 
HETATM    5  C   UNL     1     -39.124 -50.777  13.619  1.00  0.00     0.275 C 
HETATM    6  C   UNL     1     -39.545 -49.474  14.310  1.00  0.00     0.062 C 
HETATM    7  C   UNL     1     -38.944 -48.281  13.564  1.00  0.00     0.124 C 
HETATM    8  C   UNL     1     -39.331 -48.350  12.080  1.00  0.00     0.062 C 
HETATM    9  C   UNL     1     -39.030 -49.725  11.469  1.00  0.00     0.275 C 
BRANCH   7  10
HETATM   10  O   UNL     1     -37.532 -48.360  13.786  1.00  0.00    -0.391 OA
HETATM   11  C   UNL     1     -37.086 -47.835  15.022  1.00  0.00     0.202 C 
ENDBRANCH   7  10
ENDBRANCH   3   4
ENDBRANCH   2   3
BRANCH   2  12
HETATM   12  O   UNL     1     -40.700 -53.357  11.574  1.00  0.00    -0.392 OA
HETATM   13  H   UNL     1     -40.101 -53.564  12.310  1.00  0.00     0.210 HD
ENDBRANCH   2  12
ENDBRANCH   1   2
BRANCH   1  14
HETATM   14  N   UNL     1     -43.568 -52.948  13.496  1.00  0.00    -0.339 N 
HETATM   15  C   UNL     1     -44.337 -53.678  12.630  1.00  0.00     0.184 A 
HETATM   16  N   UNL     1     -45.614 -53.587  12.921  1.00  0.00    -0.350 N 
HETATM   17  C   UNL     1     -45.670 -52.757  14.013  1.00  0.00     0.060 A 
ATOM     18  HN  UNL     1     -46.394 -54.036  12.441  1.00  0.00     0.166 HD
HETATM   19  C   UNL     1     -46.784 -52.299  14.726  1.00  0.00     0.039 A 
HETATM   20  C   UNL     1     -44.399 -52.357  14.409  1.00  0.00     0.062 A 
HETATM   21  C   UNL     1     -46.602 -51.461  15.846  1.00  0.00    -0.054 A 
HETATM   22  C   UNL     1     -47.825 -51.005  16.594  1.00  0.00     0.049 C 
HETATM   23  C   UNL     1     -45.301 -51.084  16.239  1.00  0.00    -0.054 A 
HETATM   24  C   UNL     1     -45.027 -50.216  17.441  1.00  0.00     0.049 C 
HETATM   25  C   UNL     1     -44.178 -51.522  15.507  1.00  0.00     0.039 A 
ENDBRANCH   1  14
TORSDOF 6
ENDMDL
MODEL 3
REMARK VINA RESULT:      -6.0      3.250      4.277
REMARK  6 active torsions:
REMARK  status: ('A' for Active; 'I' for Inactive)
REMARK    1  A    between atoms: O_2  and  C_3 
REMARK    2  A    between atoms: N_6  and  C_7 
REMARK    3  A    between atoms: C_7  and  C_8 
REMARK    4  A    between atoms: C_8  and  O_9 
REMARK    5  A    between atoms: C_8  and  C_10 
REMARK    6  A    between atoms: C_10  and  N_11 
ROOT
HETATM    1  C   UNL     1     -38.955 -52.084  13.693  1.00  0.00     0.163 C 
ENDROOT
BRANCH   1   2
HETATM    2  C   UNL     1     -38.059 -51.015  13.050  1.00  0.00     0.164 C 
BRANCH   2   3
HETATM    3  C   UNL     1     -37.559 -50.026  14.141  1.00  0.00     0.305 C 
BRANCH   3   4
HETATM    4  N   UNL     1     -37.508 -48.598  13.767  1.00  0.00     0.091 N 
HETATM    5  C   UNL     1     -37.029 -47.691  14.823  1.00  0.00     0.275 C 
HETATM    6  C   UNL     1     -37.995 -47.609  16.011  1.00  0.00     0.062 C 
HETATM    7  C   UNL     1     -39.345 -47.068  15.537  1.00  0.00     0.124 C 
HETATM    8  C   UNL     1     -39.865 -47.922  14.372  1.00  0.00     0.062 C 
HETATM    9  C   UNL     1     -38.809 -48.104  13.274  1.00  0.00     0.275 C 
BRANCH   7  10
HETATM   10  O   UNL     1     -39.109 -45.703  15.177  1.00  0.00    -0.391 OA
HETATM   11  C   UNL     1     -40.256 -44.977  14.777  1.00  0.00     0.202 C 
ENDBRANCH   7  10
ENDBRANCH   3   4
ENDBRANCH   2   3
BRANCH   2  12
HETATM   12  O   UNL     1     -36.974 -51.696  12.407  1.00  0.00    -0.392 OA
HETATM   13  H   UNL     1     -36.751 -52.490  12.922  1.00  0.00     0.210 HD
ENDBRANCH   2  12
ENDBRANCH   1   2
BRANCH   1  14
HETATM   14  N   UNL     1     -40.263 -52.145  13.065  1.00  0.00    -0.339 N 
HETATM   15  C   UNL     1     -40.670 -51.365  12.016  1.00  0.00     0.184 A 
HETATM   16  N   UNL     1     -41.915 -51.612  11.683  1.00  0.00    -0.350 N 
HETATM   17  C   UNL     1     -42.331 -52.582  12.560  1.00  0.00     0.060 A 
ATOM     18  HN  UNL     1     -42.456 -51.176  10.936  1.00  0.00     0.166 HD
HETATM   19  C   UNL     1     -43.581 -53.203  12.674  1.00  0.00     0.039 A 
HETATM   20  C   UNL     1     -41.308 -52.952  13.425  1.00  0.00     0.062 A 
HETATM   21  C   UNL     1     -43.778 -54.207  13.645  1.00  0.00    -0.054 A 
HETATM   22  C   UNL     1     -45.131 -54.859  13.723  1.00  0.00     0.049 C 
HETATM   23  C   UNL     1     -42.718 -54.577  14.499  1.00  0.00    -0.054 A 
HETATM   24  C   UNL     1     -42.846 -55.660  15.540  1.00  0.00     0.049 C 
HETATM   25  C   UNL     1     -41.466 -53.936  14.405  1.00  0.00     0.039 A 
ENDBRANCH   1  14
TORSDOF 6
ENDMDL
MODEL 4
REMARK VINA RESULT:      -5.9      1.851      2.786
REMARK  6 active torsions:
REMARK  status: ('A' for Active; 'I' for Inactive)
REMARK    1  A    between atoms: O_2  and  C_3 
REMARK    2  A    between atoms: N_6  and  C_7 
REMARK    3  A    between atoms: C_7  and  C_8 
REMARK    4  A    between atoms: C_8  and  O_9 
REMARK    5  A    between atoms: C_8  and  C_10 
REMARK    6  A    between atoms: C_10  and  N_11 
ROOT
HETATM    1  C   UNL     1     -41.072 -50.312  12.492  1.00  0.00     0.163 C 
ENDROOT
BRANCH   1   2
HETATM    2  C   UNL     1     -40.817 -49.936  11.025  1.00  0.00     0.164 C 
BRANCH   2   3
HETATM    3  C   UNL     1     -41.373 -48.510  10.746  1.00  0.00     0.305 C 
BRANCH   3   4
HETATM    4  N   UNL     1     -41.299 -47.541  11.858  1.00  0.00     0.091 N 
HETATM    5  C   UNL     1     -42.436 -46.611  11.954  1.00  0.00     0.275 C 
HETATM    6  C   UNL     1     -42.500 -45.637  10.770  1.00  0.00     0.062 C 
HETATM    7  C   UNL     1     -41.228 -44.787  10.737  1.00  0.00     0.124 C 
HETATM    8  C   UNL     1     -39.995 -45.701  10.723  1.00  0.00     0.062 C 
HETATM    9  C   UNL     1     -40.048 -46.758  11.834  1.00  0.00     0.275 C 
BRANCH   7  10
HETATM   10  O   UNL     1     -41.297 -43.946  11.893  1.00  0.00    -0.391 OA
HETATM   11  C   UNL     1     -40.275 -42.972  11.992  1.00  0.00     0.202 C 
ENDBRANCH   7  10
ENDBRANCH   3   4
ENDBRANCH   2   3
BRANCH   2  12
HETATM   12  O   UNL     1     -39.403 -50.012  10.802  1.00  0.00    -0.392 OA
HETATM   13  H   UNL     1     -39.115 -49.213  10.330  1.00  0.00     0.210 HD
ENDBRANCH   2  12
ENDBRANCH   1   2
BRANCH   1  14
HETATM   14  N   UNL     1     -41.554 -51.674  12.628  1.00  0.00    -0.339 N 
HETATM   15  C   UNL     1     -40.854 -52.797  12.272  1.00  0.00     0.184 A 
HETATM   16  N   UNL     1     -41.556 -53.888  12.471  1.00  0.00    -0.350 N 
HETATM   17  C   UNL     1     -42.760 -53.451  12.964  1.00  0.00     0.060 A 
ATOM     18  HN  UNL     1     -41.268 -54.851  12.296  1.00  0.00     0.166 HD
HETATM   19  C   UNL     1     -43.893 -54.188  13.329  1.00  0.00     0.039 A 
HETATM   20  C   UNL     1     -42.780 -52.067  13.094  1.00  0.00     0.062 A 
HETATM   21  C   UNL     1     -45.025 -53.523  13.844  1.00  0.00    -0.054 A 
HETATM   22  C   UNL     1     -46.214 -54.354  14.239  1.00  0.00     0.049 C 
HETATM   23  C   UNL     1     -45.014 -52.119  13.983  1.00  0.00    -0.054 A 
HETATM   24  C   UNL     1     -46.174 -51.343  14.550  1.00  0.00     0.049 C 
HETATM   25  C   UNL     1     -43.885 -51.371  13.591  1.00  0.00     0.039 A 
ENDBRANCH   1  14
TORSDOF 6
ENDMDL
MODEL 5
REMARK VINA RESULT:      -5.9      2.117      6.733
REMARK  6 active torsions:
REMARK  status: ('A' for Active; 'I' for Inactive)
REMARK    1  A    between atoms: O_2  and  C_3 
REMARK    2  A    between atoms: N_6  and  C_7 
REMARK    3  A    between atoms: C_7  and  C_8 
REMARK    4  A    between atoms: C_8  and  O_9 
REMARK    5  A    between atoms: C_8  and  C_10 
REMARK    6  A    between atoms: C_10  and  N_11 
ROOT
HETATM    1  C   UNL     1     -40.928 -51.043  11.807  1.00  0.00     0.163 C 
ENDROOT
BRANCH   1   2
HETATM    2  C   UNL     1     -41.325 -52.409  12.385  1.00  0.00     0.164 C 
BRANCH   2   3
HETATM    3  C   UNL     1     -42.858 -52.620  12.226  1.00  0.00     0.305 C 
BRANCH   3   4
HETATM    4  N   UNL     1     -43.582 -53.123  13.411  1.00  0.00     0.091 N 
HETATM    5  C   UNL     1     -44.908 -53.700  13.134  1.00  0.00     0.275 C 
HETATM    6  C   UNL     1     -45.915 -52.652  12.645  1.00  0.00     0.062 C 
HETATM    7  C   UNL     1     -46.109 -51.585  13.724  1.00  0.00     0.124 C 
HETATM    8  C   UNL     1     -44.748 -50.999  14.123  1.00  0.00     0.062 C 
HETATM    9  C   UNL     1     -43.725 -52.092  14.458  1.00  0.00     0.275 C 
BRANCH   7  10
HETATM   10  O   UNL     1     -46.780 -52.245  14.802  1.00  0.00    -0.391 OA
HETATM   11  C   UNL     1     -47.168 -51.407  15.874  1.00  0.00     0.202 C 
ENDBRANCH   7  10
ENDBRANCH   3   4
ENDBRANCH   2   3
BRANCH   2  12
HETATM   12  O   UNL     1     -40.572 -53.406  11.683  1.00  0.00    -0.392 OA
HETATM   13  H   UNL     1     -40.621 -53.226  10.729  1.00  0.00     0.210 HD
ENDBRANCH   2  12
ENDBRANCH   1   2
BRANCH   1  14
HETATM   14  N   UNL     1     -40.403 -50.153  12.826  1.00  0.00    -0.339 N 
HETATM   15  C   UNL     1     -40.118 -50.515  14.116  1.00  0.00     0.184 A 
HETATM   16  N   UNL     1     -39.694 -49.494  14.824  1.00  0.00    -0.350 N 
HETATM   17  C   UNL     1     -39.716 -48.429  13.958  1.00  0.00     0.060 A 
ATOM     18  HN  UNL     1     -39.410 -49.493  15.803  1.00  0.00     0.166 HD
HETATM   19  C   UNL     1     -39.385 -47.088  14.187  1.00  0.00     0.039 A 
HETATM   20  C   UNL     1     -40.136 -48.817  12.691  1.00  0.00     0.062 A 
HETATM   21  C   UNL     1     -39.459 -46.158  13.129  1.00  0.00    -0.054 A 
HETATM   22  C   UNL     1     -39.079 -44.731  13.414  1.00  0.00     0.049 C 
HETATM   23  C   UNL     1     -39.870 -46.581  11.848  1.00  0.00    -0.054 A 
HETATM   24  C   UNL     1     -39.946 -45.651  10.664  1.00  0.00     0.049 C 
HETATM   25  C   UNL     1     -40.230 -47.925  11.620  1.00  0.00     0.039 A 
ENDBRANCH   1  14
TORSDOF 6
ENDMDL
MODEL 6
REMARK VINA RESULT:      -5.9      1.683      2.448
REMARK  6 active torsions:
REMARK  status: ('A' for Active; 'I' for Inactive)
REMARK    1  A    between atoms: O_2  and  C_3 
REMARK    2  A    between atoms: N_6  and  C_7 
REMARK    3  A    between atoms: C_7  and  C_8 
REMARK    4  A    between atoms: C_8  and  O_9 
REMARK    5  A    between atoms: C_8  and  C_10 
REMARK    6  A    between atoms: C_10  and  N_11 
ROOT
HETATM    1  C   UNL     1     -41.447 -53.996  13.470  1.00  0.00     0.163 C 
ENDROOT
BRANCH   1   2
HETATM    2  C   UNL     1     -41.044 -52.839  12.544  1.00  0.00     0.164 C 
BRANCH   2   3
HETATM    3  C   UNL     1     -39.938 -51.983  13.224  1.00  0.00     0.305 C 
BRANCH   3   4
HETATM    4  N   UNL     1     -40.322 -50.622  13.650  1.00  0.00     0.091 N 
HETATM    5  C   UNL     1     -41.080 -49.845  12.655  1.00  0.00     0.275 C 
HETATM    6  C   UNL     1     -40.241 -49.499  11.418  1.00  0.00     0.062 C 
HETATM    7  C   UNL     1     -39.043 -48.644  11.835  1.00  0.00     0.124 C 
HETATM    8  C   UNL     1     -38.254 -49.361  12.938  1.00  0.00     0.062 C 
HETATM    9  C   UNL     1     -39.159 -49.825  14.087  1.00  0.00     0.275 C 
BRANCH   7  10
HETATM   10  O   UNL     1     -39.592 -47.390  12.254  1.00  0.00    -0.391 OA
HETATM   11  C   UNL     1     -40.056 -46.555  11.210  1.00  0.00     0.202 C 
ENDBRANCH   7  10
ENDBRANCH   3   4
ENDBRANCH   2   3
BRANCH   2  12
HETATM   12  O   UNL     1     -40.594 -53.414  11.311  1.00  0.00    -0.392 OA
HETATM   13  H   UNL     1     -41.361 -53.767  10.829  1.00  0.00     0.210 HD
ENDBRANCH   2  12
ENDBRANCH   1   2
BRANCH   1  14
HETATM   14  N   UNL     1     -42.233 -53.537  14.601  1.00  0.00    -0.339 N 
HETATM   15  C   UNL     1     -41.851 -53.624  15.913  1.00  0.00     0.184 A 
HETATM   16  N   UNL     1     -42.780 -53.167  16.720  1.00  0.00    -0.350 N 
HETATM   17  C   UNL     1     -43.806 -52.780  15.895  1.00  0.00     0.060 A 
ATOM     18  HN  UNL     1     -42.746 -53.112  17.738  1.00  0.00     0.166 HD
HETATM   19  C   UNL     1     -45.056 -52.240  16.223  1.00  0.00     0.039 A 
HETATM   20  C   UNL     1     -43.483 -52.981  14.558  1.00  0.00     0.062 A 
HETATM   21  C   UNL     1     -45.957 -51.887  15.196  1.00  0.00    -0.054 A 
HETATM   22  C   UNL     1     -47.282 -51.296  15.591  1.00  0.00     0.049 C 
HETATM   23  C   UNL     1     -45.598 -52.084  13.846  1.00  0.00    -0.054 A 
HETATM   24  C   UNL     1     -46.496 -51.705  12.696  1.00  0.00     0.049 C 
HETATM   25  C   UNL     1     -44.351 -52.651  13.513  1.00  0.00     0.039 A 
ENDBRANCH   1  14
TORSDOF 6
ENDMDL
MODEL 7
REMARK VINA RESULT:      -5.8      2.399      3.363
REMARK  6 active torsions:
REMARK  status: ('A' for Active; 'I' for Inactive)
REMARK    1  A    between atoms: O_2  and  C_3 
REMARK    2  A    between atoms: N_6  and  C_7 
REMARK    3  A    between atoms: C_7  and  C_8 
REMARK    4  A    between atoms: C_8  and  O_9 
REMARK    5  A    between atoms: C_8  and  C_10 
REMARK    6  A    between atoms: C_10  and  N_11 
ROOT
HETATM    1  C   UNL     1     -40.247 -50.373  14.042  1.00  0.00     0.163 C 
ENDROOT
BRANCH   1   2
HETATM    2  C   UNL     1     -39.446 -49.383  13.183  1.00  0.00     0.164 C 
BRANCH   2   3
HETATM    3  C   UNL     1     -40.354 -48.186  12.781  1.00  0.00     0.305 C 
BRANCH   3   4
HETATM    4  N   UNL     1     -40.458 -47.890  11.338  1.00  0.00     0.091 N 
HETATM    5  C   UNL     1     -40.238 -46.481  10.970  1.00  0.00     0.275 C 
HETATM    6  C   UNL     1     -41.341 -45.556  11.501  1.00  0.00     0.062 C 
HETATM    7  C   UNL     1     -42.687 -45.969  10.903  1.00  0.00     0.124 C 
HETATM    8  C   UNL     1     -42.941 -47.458  11.177  1.00  0.00     0.062 C 
HETATM    9  C   UNL     1     -41.747 -48.331  10.769  1.00  0.00     0.275 C 
BRANCH   7  10
HETATM   10  O   UNL     1     -42.602 -45.656   9.509  1.00  0.00    -0.391 OA
HETATM   11  C   UNL     1     -43.735 -46.013   8.740  1.00  0.00     0.202 C 
ENDBRANCH   7  10
ENDBRANCH   3   4
ENDBRANCH   2   3
BRANCH   2  12
HETATM   12  O   UNL     1     -38.316 -48.963  13.956  1.00  0.00    -0.392 OA
HETATM   13  H   UNL     1     -38.520 -48.110  14.375  1.00  0.00     0.210 HD
ENDBRANCH   2  12
ENDBRANCH   1   2
BRANCH   1  14
HETATM   14  N   UNL     1     -40.950 -51.351  13.231  1.00  0.00    -0.339 N 
HETATM   15  C   UNL     1     -40.698 -51.605  11.909  1.00  0.00     0.184 A 
HETATM   16  N   UNL     1     -41.516 -52.511  11.425  1.00  0.00    -0.350 N 
HETATM   17  C   UNL     1     -42.334 -52.846  12.475  1.00  0.00     0.060 A 
ATOM     18  HN  UNL     1     -41.537 -52.884  10.476  1.00  0.00     0.166 HD
HETATM   19  C   UNL     1     -43.404 -53.749  12.517  1.00  0.00     0.039 A 
HETATM   20  C   UNL     1     -41.989 -52.149  13.627  1.00  0.00     0.062 A 
HETATM   21  C   UNL     1     -44.097 -53.957  13.727  1.00  0.00    -0.054 A 
HETATM   22  C   UNL     1     -45.229 -54.947  13.732  1.00  0.00     0.049 C 
HETATM   23  C   UNL     1     -43.716 -53.251  14.887  1.00  0.00    -0.054 A 
HETATM   24  C   UNL     1     -44.391 -53.442  16.221  1.00  0.00     0.049 C 
HETATM   25  C   UNL     1     -42.657 -52.321  14.843  1.00  0.00     0.039 A 
ENDBRANCH   1  14
TORSDOF 6
ENDMDL
MODEL 8
REMARK VINA RESULT:      -5.7      4.009      6.705
REMARK  6 active torsions:
REMARK  status: ('A' for Active; 'I' for Inactive)
REMARK    1  A    between atoms: O_2  and  C_3 
REMARK    2  A    between atoms: N_6  and  C_7 
REMARK    3  A    between atoms: C_7  and  C_8 
REMARK    4  A    between atoms: C_8  and  O_9 
REMARK    5  A    between atoms: C_8  and  C_10 
REMARK    6  A    between atoms: C_10  and  N_11 
ROOT
HETATM    1  C   UNL     1     -40.937 -54.229  13.001  1.00  0.00     0.163 C 
ENDROOT
BRANCH   1   2
HETATM    2  C   UNL     1     -39.712 -53.885  13.861  1.00  0.00     0.164 C 
BRANCH   2   3
HETATM    3  C   UNL     1     -40.056 -54.083  15.365  1.00  0.00     0.305 C 
BRANCH   3   4
HETATM    4  N   UNL     1     -40.366 -55.461  15.797  1.00  0.00     0.091 N 
HETATM    5  C   UNL     1     -41.689 -55.640  16.417  1.00  0.00     0.275 C 
HETATM    6  C   UNL     1     -41.810 -54.916  17.764  1.00  0.00     0.062 C 
HETATM    7  C   UNL     1     -40.778 -55.480  18.743  1.00  0.00     0.124 C 
HETATM    8  C   UNL     1     -39.377 -55.403  18.120  1.00  0.00     0.062 C 
HETATM    9  C   UNL     1     -39.340 -56.004  16.709  1.00  0.00     0.275 C 
BRANCH   7  10
HETATM   10  O   UNL     1     -41.202 -56.819  19.020  1.00  0.00    -0.391 OA
HETATM   11  C   UNL     1     -40.411 -57.519  19.962  1.00  0.00     0.202 C 
ENDBRANCH   7  10
ENDBRANCH   3   4
ENDBRANCH   2   3
BRANCH   2  12
HETATM   12  O   UNL     1     -38.640 -54.738  13.440  1.00  0.00    -0.392 OA
HETATM   13  H   UNL     1     -38.872 -55.660  13.644  1.00  0.00     0.210 HD
ENDBRANCH   2  12
ENDBRANCH   1   2
BRANCH   1  14
HETATM   14  N   UNL     1     -41.818 -53.088  12.830  1.00  0.00    -0.339 N 
HETATM   15  C   UNL     1     -41.521 -51.965  12.104  1.00  0.00     0.184 A 
HETATM   16  N   UNL     1     -42.490 -51.082  12.159  1.00  0.00    -0.350 N 
HETATM   17  C   UNL     1     -43.446 -51.654  12.962  1.00  0.00     0.060 A 
ATOM     18  HN  UNL     1     -42.525 -50.170  11.704  1.00  0.00     0.166 HD
HETATM   19  C   UNL     1     -44.681 -51.142  13.378  1.00  0.00     0.039 A 
HETATM   20  C   UNL     1     -43.061 -52.922  13.381  1.00  0.00     0.062 A 
HETATM   21  C   UNL     1     -45.524 -51.926  14.193  1.00  0.00    -0.054 A 
HETATM   22  C   UNL     1     -46.849 -51.345  14.604  1.00  0.00     0.049 C 
HETATM   23  C   UNL     1     -45.118 -53.218  14.589  1.00  0.00    -0.054 A 
HETATM   24  C   UNL     1     -45.977 -54.122  15.435  1.00  0.00     0.049 C 
HETATM   25  C   UNL     1     -43.864 -53.725  14.194  1.00  0.00     0.039 A 
ENDBRANCH   1  14
TORSDOF 6
ENDMDL
MODEL 9
REMARK VINA RESULT:      -5.6      2.843      7.071
REMARK  6 active torsions:
REMARK  status: ('A' for Active; 'I' for Inactive)
REMARK    1  A    between atoms: O_2  and  C_3 
REMARK    2  A    between atoms: N_6  and  C_7 
REMARK    3  A    between atoms: C_7  and  C_8 
REMARK    4  A    between atoms: C_8  and  O_9 
REMARK    5  A    between atoms: C_8  and  C_10 
REMARK    6  A    between atoms: C_10  and  N_11 
ROOT
HETATM    1  C   UNL     1     -42.156 -50.946  12.426  1.00  0.00     0.163 C 
ENDROOT
BRANCH   1   2
HETATM    2  C   UNL     1     -42.058 -52.474  12.312  1.00  0.00     0.164 C 
BRANCH   2   3
HETATM    3  C   UNL     1     -43.479 -53.099  12.409  1.00  0.00     0.305 C 
BRANCH   3   4
HETATM    4  N   UNL     1     -43.667 -54.165  13.413  1.00  0.00     0.091 N 
HETATM    5  C   UNL     1     -45.040 -54.687  13.523  1.00  0.00     0.275 C 
HETATM    6  C   UNL     1     -46.022 -53.644  14.071  1.00  0.00     0.062 C 
HETATM    7  C   UNL     1     -45.591 -53.222  15.477  1.00  0.00     0.124 C 
HETATM    8  C   UNL     1     -44.132 -52.745  15.449  1.00  0.00     0.062 C 
HETATM    9  C   UNL     1     -43.208 -53.755  14.755  1.00  0.00     0.275 C 
BRANCH   7  10
HETATM   10  O   UNL     1     -45.796 -54.372  16.304  1.00  0.00    -0.391 OA
HETATM   11  C   UNL     1     -45.636 -54.152  17.693  1.00  0.00     0.202 C 
ENDBRANCH   7  10
ENDBRANCH   3   4
ENDBRANCH   2   3
BRANCH   2  12
HETATM   12  O   UNL     1     -41.427 -52.771  11.061  1.00  0.00    -0.392 OA
HETATM   13  H   UNL     1     -42.113 -52.935  10.392  1.00  0.00     0.210 HD
ENDBRANCH   2  12
ENDBRANCH   1   2
BRANCH   1  14
HETATM   14  N   UNL     1     -40.849 -50.314  12.395  1.00  0.00    -0.339 N 
HETATM   15  C   UNL     1     -40.340 -49.609  11.337  1.00  0.00     0.184 A 
HETATM   16  N   UNL     1     -39.121 -49.187  11.577  1.00  0.00    -0.350 N 
HETATM   17  C   UNL     1     -38.828 -49.647  12.837  1.00  0.00     0.060 A 
ATOM     18  HN  UNL     1     -38.522 -48.637  10.962  1.00  0.00     0.166 HD
HETATM   19  C   UNL     1     -37.653 -49.507  13.585  1.00  0.00     0.039 A 
HETATM   20  C   UNL     1     -39.902 -50.340  13.384  1.00  0.00     0.062 A 
HETATM   21  C   UNL     1     -37.583 -50.047  14.886  1.00  0.00    -0.054 A 
HETATM   22  C   UNL     1     -36.309 -49.860  15.662  1.00  0.00     0.049 C 
HETATM   23  C   UNL     1     -38.694 -50.730  15.426  1.00  0.00    -0.054 A 
HETATM   24  C   UNL     1     -38.702 -51.309  16.817  1.00  0.00     0.049 C 
HETATM   25  C   UNL     1     -39.869 -50.896  14.665  1.00  0.00     0.039 A 
ENDBRANCH   1  14
TORSDOF 6
ENDMDL
