MODEL 1
REMARK VINA RESULT:      -6.1      0.000      0.000
REMARK  6 active torsions:
REMARK  status: ('A' for Active; 'I' for Inactive)
REMARK    1  A    between atoms: C_7  and  O_8 
REMARK    2  A    between atoms: O_8  and  C_9 
REMARK    3  A    between atoms: C_9  and  C_10 
REMARK    4  A    between atoms: C_10  and  O_11 
REMARK    5  A    between atoms: C_10  and  C_12 
REMARK    6  A    between atoms: C_12  and  N_13 
ROOT
HETATM    1  C   UNL     1     -41.152 -53.774  13.487  1.00  0.00     0.161 C 
ENDROOT
BRANCH   1   2
HETATM    2  C   UNL     1     -42.557 -53.858  12.864  1.00  0.00     0.209 C 
BRANCH   2   3
HETATM    3  O   UNL     1     -43.516 -53.927  13.925  1.00  0.00    -0.347 OA
BRANCH   3   4
HETATM    4  C   UNL     1     -44.609 -53.105  13.859  1.00  0.00     0.091 A 
HETATM    5  C   UNL     1     -45.016 -52.490  15.056  1.00  0.00     0.067 A 
HETATM    6  C   UNL     1     -46.126 -51.639  15.080  1.00  0.00     0.027 A 
HETATM    7 CL   UNL     1     -44.167 -52.752  16.538  1.00  0.00    -0.081 Cl
HETATM    8  C   UNL     1     -46.835 -51.381  13.908  1.00  0.00     0.008 A 
HETATM    9  C   UNL     1     -46.439 -51.969  12.706  1.00  0.00    -0.059 A 
HETATM   10  C   UNL     1     -47.179 -51.689  11.429  1.00  0.00     0.048 C 
HETATM   11  C   UNL     1     -45.333 -52.837  12.690  1.00  0.00     0.045 A 
ENDBRANCH   3   4
ENDBRANCH   2   3
ENDBRANCH   1   2
BRANCH   1  12
HETATM   12  O   UNL     1     -40.132 -54.059  12.517  1.00  0.00    -0.392 OA
HETATM   13  H   UNL     1     -40.523 -54.596  11.804  1.00  0.00     0.210 HD
ENDBRANCH   1  12
BRANCH   1  14
HETATM   14  C   UNL     1     -40.843 -52.392  14.089  1.00  0.00     0.166 C 
BRANCH  14  15
HETATM   15  N   UNL     1     -40.988 -51.288  13.152  1.00  0.00    -0.308 N 
HETATM   16  C   UNL     1     -42.202 -50.667  12.999  1.00  0.00     0.186 A 
HETATM   17  N   UNL     1     -42.447 -49.722  12.154  1.00  0.00    -0.356 N 
HETATM   18  C   UNL     1     -41.407 -49.301  11.366  1.00  0.00     0.011 A 
ATOM     19  HN  UNL     1     -43.374 -49.305  12.075  1.00  0.00     0.166 HD
HETATM   20  C   UNL     1     -41.730 -48.236  10.356  1.00  0.00     0.068 C 
HETATM   21  C   UNL     1     -40.168 -49.800  11.446  1.00  0.00     0.099 A 
HETATM   22  C   UNL     1     -39.909 -50.896  12.392  1.00  0.00     0.250 A 
HETATM   23  O   UNL     1     -38.799 -51.418  12.428  1.00  0.00    -0.268 OA
ENDBRANCH  14  15
ENDBRANCH   1  14
TORSDOF 6
ENDMDL
MODEL 2
REMARK VINA RESULT:      -6.1      2.299      3.926
REMARK  6 active torsions:
REMARK  status: ('A' for Active; 'I' for Inactive)
REMARK    1  A    between atoms: C_7  and  O_8 
REMARK    2  A    between atoms: O_8  and  C_9 
REMARK    3  A    between atoms: C_9  and  C_10 
REMARK    4  A    between atoms: C_10  and  O_11 
REMARK    5  A    between atoms: C_10  and  C_12 
REMARK    6  A    between atoms: C_12  and  N_13 
ROOT
HETATM    1  C   UNL     1     -40.722 -50.949  14.067  1.00  0.00     0.161 C 
ENDROOT
BRANCH   1   2
HETATM    2  C   UNL     1     -42.014 -50.404  13.431  1.00  0.00     0.209 C 
BRANCH   2   3
HETATM    3  O   UNL     1     -42.916 -50.044  14.482  1.00  0.00    -0.347 OA
BRANCH   3   4
HETATM    4  C   UNL     1     -44.184 -50.561  14.447  1.00  0.00     0.091 A 
HETATM    5  C   UNL     1     -44.830 -50.746  15.682  1.00  0.00     0.067 A 
HETATM    6  C   UNL     1     -46.124 -51.274  15.739  1.00  0.00     0.027 A 
HETATM    7 CL   UNL     1     -44.064 -50.325  17.173  1.00  0.00    -0.081 Cl
HETATM    8  C   UNL     1     -46.794 -51.612  14.564  1.00  0.00     0.008 A 
HETATM    9  C   UNL     1     -46.176 -51.424  13.326  1.00  0.00    -0.059 A 
HETATM   10  C   UNL     1     -46.888 -51.766  12.048  1.00  0.00     0.048 C 
HETATM   11  C   UNL     1     -44.869 -50.908  13.276  1.00  0.00     0.045 A 
ENDBRANCH   3   4
ENDBRANCH   2   3
ENDBRANCH   1   2
BRANCH   1  12
HETATM   12  O   UNL     1     -40.680 -50.682  15.477  1.00  0.00    -0.392 OA
HETATM   13  H   UNL     1     -40.031 -49.975  15.639  1.00  0.00     0.210 HD
ENDBRANCH   1  12
BRANCH   1  14
HETATM   14  C   UNL     1     -40.555 -52.468  13.879  1.00  0.00     0.166 C 
BRANCH  14  15
HETATM   15  N   UNL     1     -41.803 -53.214  13.925  1.00  0.00    -0.308 N 
HETATM   16  C   UNL     1     -42.453 -53.546  12.762  1.00  0.00     0.186 A 
HETATM   17  N   UNL     1     -43.592 -54.152  12.701  1.00  0.00    -0.356 N 
HETATM   18  C   UNL     1     -44.181 -54.503  13.888  1.00  0.00     0.011 A 
ATOM     19  HN  UNL     1     -44.034 -54.362  11.806  1.00  0.00     0.166 HD
HETATM   20  C   UNL     1     -45.527 -55.161  13.789  1.00  0.00     0.068 C 
HETATM   21  C   UNL     1     -43.630 -54.270  15.085  1.00  0.00     0.099 A 
HETATM   22  C   UNL     1     -42.347 -53.553  15.143  1.00  0.00     0.250 A 
HETATM   23  O   UNL     1     -41.862 -53.263  16.233  1.00  0.00    -0.268 OA
ENDBRANCH  14  15
ENDBRANCH   1  14
TORSDOF 6
ENDMDL
MODEL 3
REMARK VINA RESULT:      -6.1      2.746      4.907
REMARK  6 active torsions:
REMARK  status: ('A' for Active; 'I' for Inactive)
REMARK    1  A    between atoms: C_7  and  O_8 
REMARK    2  A    between atoms: O_8  and  C_9 
REMARK    3  A    between atoms: C_9  and  C_10 
REMARK    4  A    between atoms: C_10  and  O_11 
REMARK    5  A    between atoms: C_10  and  C_12 
REMARK    6  A    between atoms: C_12  and  N_13 
ROOT
HETATM    1  C   UNL     1     -46.469 -54.441  14.958  1.00  0.00     0.161 C 
ENDROOT
BRANCH   1   2
HETATM    2  C   UNL     1     -45.394 -54.820  13.923  1.00  0.00     0.209 C 
BRANCH   2   3
HETATM    3  O   UNL     1     -44.256 -55.332  14.622  1.00  0.00    -0.347 OA
BRANCH   3   4
HETATM    4  C   UNL     1     -43.043 -54.734  14.404  1.00  0.00     0.091 A 
HETATM    5  C   UNL     1     -42.047 -54.943  15.374  1.00  0.00     0.067 A 
HETATM    6  C   UNL     1     -40.781 -54.366  15.233  1.00  0.00     0.027 A 
HETATM    7 CL   UNL     1     -42.337 -55.921  16.769  1.00  0.00    -0.081 Cl
HETATM    8  C   UNL     1     -40.490 -53.583  14.116  1.00  0.00     0.008 A 
HETATM    9  C   UNL     1     -41.460 -53.375  13.134  1.00  0.00    -0.059 A 
HETATM   10  C   UNL     1     -41.160 -52.549  11.916  1.00  0.00     0.048 C 
HETATM   11  C   UNL     1     -42.736 -53.944  13.289  1.00  0.00     0.045 A 
ENDBRANCH   3   4
ENDBRANCH   2   3
ENDBRANCH   1   2
BRANCH   1  12
HETATM   12  O   UNL     1     -45.989 -54.619  16.299  1.00  0.00    -0.392 OA
HETATM   13  H   UNL     1     -46.754 -54.689  16.896  1.00  0.00     0.210 HD
ENDBRANCH   1  12
BRANCH   1  14
HETATM   14  C   UNL     1     -46.944 -52.983  14.826  1.00  0.00     0.166 C 
BRANCH  14  15
HETATM   15  N   UNL     1     -45.902 -52.054  14.414  1.00  0.00    -0.308 N 
HETATM   16  C   UNL     1     -45.787 -51.686  13.097  1.00  0.00     0.186 A 
HETATM   17  N   UNL     1     -44.863 -50.917  12.624  1.00  0.00    -0.356 N 
HETATM   18  C   UNL     1     -43.944 -50.421  13.512  1.00  0.00     0.011 A 
ATOM     19  HN  UNL     1     -44.819 -50.687  11.631  1.00  0.00     0.166 HD
HETATM   20  C   UNL     1     -42.852 -49.570  12.928  1.00  0.00     0.068 C 
HETATM   21  C   UNL     1     -43.972 -50.674  14.826  1.00  0.00     0.099 A 
HETATM   22  C   UNL     1     -45.012 -51.575  15.348  1.00  0.00     0.250 A 
HETATM   23  O   UNL     1     -45.010 -51.879  16.537  1.00  0.00    -0.268 OA
ENDBRANCH  14  15
ENDBRANCH   1  14
TORSDOF 6
ENDMDL
MODEL 4
REMARK VINA RESULT:      -6.0      1.691      2.005
REMARK  6 active torsions:
REMARK  status: ('A' for Active; 'I' for Inactive)
REMARK    1  A    between atoms: C_7  and  O_8 
REMARK    2  A    between atoms: O_8  and  C_9 
REMARK    3  A    between atoms: C_9  and  C_10 
REMARK    4  A    between atoms: C_10  and  O_11 
REMARK    5  A    between atoms: C_10  and  C_12 
REMARK    6  A    between atoms: C_12  and  N_13 
ROOT
HETATM    1  C   UNL     1     -42.328 -54.211  14.508  1.00  0.00     0.161 C 
ENDROOT
BRANCH   1   2
HETATM    2  C   UNL     1     -43.556 -55.120  14.315  1.00  0.00     0.209 C 
BRANCH   2   3
HETATM    3  O   UNL     1     -44.572 -54.705  15.233  1.00  0.00    -0.347 OA
BRANCH   3   4
HETATM    4  C   UNL     1     -45.321 -53.604  14.909  1.00  0.00     0.091 A 
HETATM    5  C   UNL     1     -45.685 -52.750  15.965  1.00  0.00     0.067 A 
HETATM    6  C   UNL     1     -46.454 -51.606  15.724  1.00  0.00     0.027 A 
HETATM    7 CL   UNL     1     -45.197 -53.067  17.592  1.00  0.00    -0.081 Cl
HETATM    8  C   UNL     1     -46.858 -51.295  14.426  1.00  0.00     0.008 A 
HETATM    9  C   UNL     1     -46.495 -52.123  13.362  1.00  0.00    -0.059 A 
HETATM   10  C   UNL     1     -46.906 -51.795  11.955  1.00  0.00     0.048 C 
HETATM   11  C   UNL     1     -45.737 -53.280  13.612  1.00  0.00     0.045 A 
ENDBRANCH   3   4
ENDBRANCH   2   3
ENDBRANCH   1   2
BRANCH   1  12
HETATM   12  O   UNL     1     -41.616 -54.542  15.711  1.00  0.00    -0.392 OA
HETATM   13  H   UNL     1     -40.677 -54.321  15.587  1.00  0.00     0.210 HD
ENDBRANCH   1  12
BRANCH   1  14
HETATM   14  C   UNL     1     -41.328 -54.296  13.341  1.00  0.00     0.166 C 
BRANCH  14  15
HETATM   15  N   UNL     1     -40.726 -53.022  12.979  1.00  0.00    -0.308 N 
HETATM   16  C   UNL     1     -41.221 -52.300  11.923  1.00  0.00     0.186 A 
HETATM   17  N   UNL     1     -40.722 -51.191  11.488  1.00  0.00    -0.356 N 
HETATM   18  C   UNL     1     -39.626 -50.696  12.146  1.00  0.00     0.011 A 
ATOM     19  HN  UNL     1     -41.125 -50.704  10.688  1.00  0.00     0.166 HD
HETATM   20  C   UNL     1     -39.034 -49.432  11.589  1.00  0.00     0.068 C 
HETATM   21  C   UNL     1     -39.074 -51.286  13.213  1.00  0.00     0.099 A 
HETATM   22  C   UNL     1     -39.634 -52.562  13.681  1.00  0.00     0.250 A 
HETATM   23  O   UNL     1     -39.097 -53.157  14.611  1.00  0.00    -0.268 OA
ENDBRANCH  14  15
ENDBRANCH   1  14
TORSDOF 6
ENDMDL
MODEL 5
REMARK VINA RESULT:      -6.0      2.826      6.570
REMARK  6 active torsions:
REMARK  status: ('A' for Active; 'I' for Inactive)
REMARK    1  A    between atoms: C_7  and  O_8 
REMARK    2  A    between atoms: O_8  and  C_9 
REMARK    3  A    between atoms: C_9  and  C_10 
REMARK    4  A    between atoms: C_10  and  O_11 
REMARK    5  A    between atoms: C_10  and  C_12 
REMARK    6  A    between atoms: C_12  and  N_13 
ROOT
HETATM    1  C   UNL     1     -41.042 -53.027  12.670  1.00  0.00     0.161 C 
ENDROOT
BRANCH   1   2
HETATM    2  C   UNL     1     -39.870 -52.710  13.618  1.00  0.00     0.209 C 
BRANCH   2   3
HETATM    3  O   UNL     1     -38.868 -52.008  12.876  1.00  0.00    -0.347 OA
BRANCH   3   4
HETATM    4  C   UNL     1     -38.502 -50.761  13.309  1.00  0.00     0.091 A 
HETATM    5  C   UNL     1     -39.029 -49.663  12.606  1.00  0.00     0.067 A 
HETATM    6  C   UNL     1     -38.703 -48.355  12.978  1.00  0.00     0.027 A 
HETATM    7 CL   UNL     1     -40.100 -49.879  11.267  1.00  0.00    -0.081 Cl
HETATM    8  C   UNL     1     -37.858 -48.125  14.062  1.00  0.00     0.008 A 
HETATM    9  C   UNL     1     -37.335 -49.201  14.783  1.00  0.00    -0.059 A 
HETATM   10  C   UNL     1     -36.437 -48.974  15.965  1.00  0.00     0.048 C 
HETATM   11  C   UNL     1     -37.653 -50.515  14.394  1.00  0.00     0.045 A 
ENDBRANCH   3   4
ENDBRANCH   2   3
ENDBRANCH   1   2
BRANCH   1  12
HETATM   12  O   UNL     1     -40.575 -53.569  11.425  1.00  0.00    -0.392 OA
HETATM   13  H   UNL     1     -41.000 -54.433  11.283  1.00  0.00     0.210 HD
ENDBRANCH   1  12
BRANCH   1  14
HETATM   14  C   UNL     1     -42.041 -54.034  13.266  1.00  0.00     0.166 C 
BRANCH  14  15
HETATM   15  N   UNL     1     -43.325 -53.453  13.632  1.00  0.00    -0.308 N 
HETATM   16  C   UNL     1     -43.620 -52.159  13.285  1.00  0.00     0.186 A 
HETATM   17  N   UNL     1     -44.703 -51.536  13.613  1.00  0.00    -0.356 N 
HETATM   18  C   UNL     1     -45.629 -52.231  14.347  1.00  0.00     0.011 A 
ATOM     19  HN  UNL     1     -44.864 -50.567  13.338  1.00  0.00     0.166 HD
HETATM   20  C   UNL     1     -46.856 -51.469  14.758  1.00  0.00     0.068 C 
HETATM   21  C   UNL     1     -45.475 -53.509  14.714  1.00  0.00     0.099 A 
HETATM   22  C   UNL     1     -44.225 -54.198  14.359  1.00  0.00     0.250 A 
HETATM   23  O   UNL     1     -44.032 -55.346  14.750  1.00  0.00    -0.268 OA
ENDBRANCH  14  15
ENDBRANCH   1  14
TORSDOF 6
ENDMDL
MODEL 6
REMARK VINA RESULT:      -6.0      3.316      4.801
REMARK  6 active torsions:
REMARK  status: ('A' for Active; 'I' for Inactive)
REMARK    1  A    between atoms: C_7  and  O_8 
REMARK    2  A    between atoms: O_8  and  C_9 
REMARK    3  A    between atoms: C_9  and  C_10 
REMARK    4  A    between atoms: C_10  and  O_11 
REMARK    5  A    between atoms: C_10  and  C_12 
REMARK    6  A    between atoms: C_12  and  N_13 
ROOT
HETATM    1  C   UNL     1     -40.862 -49.421  11.373  1.00  0.00     0.161 C 
ENDROOT
BRANCH   1   2
HETATM    2  C   UNL     1     -41.815 -50.329  12.170  1.00  0.00     0.209 C 
BRANCH   2   3
HETATM    3  O   UNL     1     -41.491 -51.692  11.876  1.00  0.00    -0.347 OA
BRANCH   3   4
HETATM    4  C   UNL     1     -41.963 -52.663  12.718  1.00  0.00     0.091 A 
HETATM    5  C   UNL     1     -41.067 -53.162  13.680  1.00  0.00     0.067 A 
HETATM    6  C   UNL     1     -41.465 -54.158  14.577  1.00  0.00     0.027 A 
HETATM    7 CL   UNL     1     -39.450 -52.566  13.801  1.00  0.00    -0.081 Cl
HETATM    8  C   UNL     1     -42.765 -54.660  14.534  1.00  0.00     0.008 A 
HETATM    9  C   UNL     1     -43.675 -54.168  13.596  1.00  0.00    -0.059 A 
HETATM   10  C   UNL     1     -45.085 -54.684  13.545  1.00  0.00     0.048 C 
HETATM   11  C   UNL     1     -43.265 -53.178  12.686  1.00  0.00     0.045 A 
ENDBRANCH   3   4
ENDBRANCH   2   3
ENDBRANCH   1   2
BRANCH   1  12
HETATM   12  O   UNL     1     -40.258 -50.128  10.279  1.00  0.00    -0.392 OA
HETATM   13  H   UNL     1     -39.365 -50.409  10.546  1.00  0.00     0.210 HD
ENDBRANCH   1  12
BRANCH   1  14
HETATM   14  C   UNL     1     -41.560 -48.179  10.791  1.00  0.00     0.166 C 
BRANCH  14  15
HETATM   15  N   UNL     1     -41.014 -46.915  11.259  1.00  0.00    -0.308 N 
HETATM   16  C   UNL     1     -40.206 -46.880  12.368  1.00  0.00     0.186 A 
HETATM   17  N   UNL     1     -39.722 -45.804  12.895  1.00  0.00    -0.356 N 
HETATM   18  C   UNL     1     -40.028 -44.615  12.286  1.00  0.00     0.011 A 
ATOM     19  HN  UNL     1     -39.137 -45.838  13.729  1.00  0.00     0.166 HD
HETATM   20  C   UNL     1     -39.495 -43.376  12.948  1.00  0.00     0.068 C 
HETATM   21  C   UNL     1     -40.774 -44.520  11.178  1.00  0.00     0.099 A 
HETATM   22  C   UNL     1     -41.342 -45.749  10.604  1.00  0.00     0.250 A 
HETATM   23  O   UNL     1     -42.089 -45.677   9.633  1.00  0.00    -0.268 OA
ENDBRANCH  14  15
ENDBRANCH   1  14
TORSDOF 6
ENDMDL
MODEL 7
REMARK VINA RESULT:      -6.0      2.020      2.389
REMARK  6 active torsions:
REMARK  status: ('A' for Active; 'I' for Inactive)
REMARK    1  A    between atoms: C_7  and  O_8 
REMARK    2  A    between atoms: O_8  and  C_9 
REMARK    3  A    between atoms: C_9  and  C_10 
REMARK    4  A    between atoms: C_10  and  O_11 
REMARK    5  A    between atoms: C_10  and  C_12 
REMARK    6  A    between atoms: C_12  and  N_13 
ROOT
HETATM    1  C   UNL     1     -40.788 -52.552  12.658  1.00  0.00     0.161 C 
ENDROOT
BRANCH   1   2
HETATM    2  C   UNL     1     -42.116 -52.948  13.330  1.00  0.00     0.209 C 
BRANCH   2   3
HETATM    3  O   UNL     1     -42.670 -51.785  13.953  1.00  0.00    -0.347 OA
BRANCH   3   4
HETATM    4  C   UNL     1     -44.034 -51.665  13.995  1.00  0.00     0.091 A 
HETATM    5  C   UNL     1     -44.614 -51.439  15.255  1.00  0.00     0.067 A 
HETATM    6  C   UNL     1     -46.000 -51.309  15.389  1.00  0.00     0.027 A 
HETATM    7 CL   UNL     1     -43.649 -51.305  16.682  1.00  0.00    -0.081 Cl
HETATM    8  C   UNL     1     -46.823 -51.391  14.266  1.00  0.00     0.008 A 
HETATM    9  C   UNL     1     -46.265 -51.601  13.003  1.00  0.00    -0.059 A 
HETATM   10  C   UNL     1     -47.133 -51.674  11.779  1.00  0.00     0.048 C 
HETATM   11  C   UNL     1     -44.873 -51.747  12.876  1.00  0.00     0.045 A 
ENDBRANCH   3   4
ENDBRANCH   2   3
ENDBRANCH   1   2
BRANCH   1  12
HETATM   12  O   UNL     1     -40.500 -53.395  11.532  1.00  0.00    -0.392 OA
HETATM   13  H   UNL     1     -39.535 -53.506  11.467  1.00  0.00     0.210 HD
ENDBRANCH   1  12
BRANCH   1  14
HETATM   14  C   UNL     1     -40.777 -51.095  12.161  1.00  0.00     0.166 C 
BRANCH  14  15
HETATM   15  N   UNL     1     -39.826 -50.238  12.852  1.00  0.00    -0.308 N 
HETATM   16  C   UNL     1     -40.272 -49.209  13.643  1.00  0.00     0.186 A 
HETATM   17  N   UNL     1     -39.509 -48.359  14.248  1.00  0.00    -0.356 N 
HETATM   18  C   UNL     1     -38.155 -48.514  14.097  1.00  0.00     0.011 A 
ATOM     19  HN  UNL     1     -39.898 -47.605  14.813  1.00  0.00     0.166 HD
HETATM   20  C   UNL     1     -37.294 -47.483  14.769  1.00  0.00     0.068 C 
HETATM   21  C   UNL     1     -37.597 -49.499  13.384  1.00  0.00     0.099 A 
HETATM   22  C   UNL     1     -38.476 -50.443  12.677  1.00  0.00     0.250 A 
HETATM   23  O   UNL     1     -37.985 -51.308  11.958  1.00  0.00    -0.268 OA
ENDBRANCH  14  15
ENDBRANCH   1  14
TORSDOF 6
ENDMDL
MODEL 8
REMARK VINA RESULT:      -5.9      2.396      5.919
REMARK  6 active torsions:
REMARK  status: ('A' for Active; 'I' for Inactive)
REMARK    1  A    between atoms: C_7  and  O_8 
REMARK    2  A    between atoms: O_8  and  C_9 
REMARK    3  A    between atoms: C_9  and  C_10 
REMARK    4  A    between atoms: C_10  and  O_11 
REMARK    5  A    between atoms: C_10  and  C_12 
REMARK    6  A    between atoms: C_12  and  N_13 
ROOT
HETATM    1  C   UNL     1     -41.092 -52.934  12.518  1.00  0.00     0.161 C 
ENDROOT
BRANCH   1   2
HETATM    2  C   UNL     1     -39.951 -52.413  13.411  1.00  0.00     0.209 C 
BRANCH   2   3
HETATM    3  O   UNL     1     -39.059 -51.642  12.600  1.00  0.00    -0.347 OA
BRANCH   3   4
HETATM    4  C   UNL     1     -39.213 -50.281  12.588  1.00  0.00     0.091 A 
HETATM    5  C   UNL     1     -38.410 -49.542  13.475  1.00  0.00     0.067 A 
HETATM    6  C   UNL     1     -38.507 -48.148  13.533  1.00  0.00     0.027 A 
HETATM    7 CL   UNL     1     -37.273 -50.317  14.520  1.00  0.00    -0.081 Cl
HETATM    8  C   UNL     1     -39.396 -47.473  12.698  1.00  0.00     0.008 A 
HETATM    9  C   UNL     1     -40.192 -48.186  11.800  1.00  0.00    -0.059 A 
HETATM   10  C   UNL     1     -41.143 -47.475  10.880  1.00  0.00     0.048 C 
HETATM   11  C   UNL     1     -40.103 -49.589  11.758  1.00  0.00     0.045 A 
ENDBRANCH   3   4
ENDBRANCH   2   3
ENDBRANCH   1   2
BRANCH   1  12
HETATM   12  O   UNL     1     -40.581 -53.581  11.342  1.00  0.00    -0.392 OA
HETATM   13  H   UNL     1     -40.468 -54.528  11.534  1.00  0.00     0.210 HD
ENDBRANCH   1  12
BRANCH   1  14
HETATM   14  C   UNL     1     -42.007 -53.939  13.239  1.00  0.00     0.166 C 
BRANCH  14  15
HETATM   15  N   UNL     1     -43.299 -53.393  13.629  1.00  0.00    -0.308 N 
HETATM   16  C   UNL     1     -43.661 -52.129  13.238  1.00  0.00     0.186 A 
HETATM   17  N   UNL     1     -44.756 -51.535  13.581  1.00  0.00    -0.356 N 
HETATM   18  C   UNL     1     -45.623 -52.233  14.382  1.00  0.00     0.011 A 
ATOM     19  HN  UNL     1     -44.966 -50.588  13.270  1.00  0.00     0.166 HD
HETATM   20  C   UNL     1     -46.864 -51.502  14.808  1.00  0.00     0.068 C 
HETATM   21  C   UNL     1     -45.402 -53.486  14.798  1.00  0.00     0.099 A 
HETATM   22  C   UNL     1     -44.139 -54.140  14.424  1.00  0.00     0.250 A 
HETATM   23  O   UNL     1     -43.884 -55.260  14.857  1.00  0.00    -0.268 OA
ENDBRANCH  14  15
ENDBRANCH   1  14
TORSDOF 6
ENDMDL
MODEL 9
REMARK VINA RESULT:      -5.8      2.554      5.942
REMARK  6 active torsions:
REMARK  status: ('A' for Active; 'I' for Inactive)
REMARK    1  A    between atoms: C_7  and  O_8 
REMARK    2  A    between atoms: O_8  and  C_9 
REMARK    3  A    between atoms: C_9  and  C_10 
REMARK    4  A    between atoms: C_10  and  O_11 
REMARK    5  A    between atoms: C_10  and  C_12 
REMARK    6  A    between atoms: C_12  and  N_13 
ROOT
HETATM    1  C   UNL     1     -41.640 -51.996  12.119  1.00  0.00     0.161 C 
ENDROOT
BRANCH   1   2
HETATM    2  C   UNL     1     -40.414 -51.246  12.672  1.00  0.00     0.209 C 
BRANCH   2   3
HETATM    3  O   UNL     1     -39.860 -50.450  11.620  1.00  0.00    -0.347 OA
BRANCH   3   4
HETATM    4  C   UNL     1     -40.226 -49.132  11.548  1.00  0.00     0.091 A 
HETATM    5  C   UNL     1     -39.438 -48.213  12.263  1.00  0.00     0.067 A 
HETATM    6  C   UNL     1     -39.743 -46.849  12.248  1.00  0.00     0.027 A 
HETATM    7 CL   UNL     1     -38.063 -48.723  13.177  1.00  0.00    -0.081 Cl
HETATM    8  C   UNL     1     -40.831 -46.382  11.511  1.00  0.00     0.008 A 
HETATM    9  C   UNL     1     -41.618 -47.276  10.783  1.00  0.00    -0.059 A 
HETATM   10  C   UNL     1     -42.784 -46.791   9.968  1.00  0.00     0.048 C 
HETATM   11  C   UNL     1     -41.317 -48.649  10.814  1.00  0.00     0.045 A 
ENDBRANCH   3   4
ENDBRANCH   2   3
ENDBRANCH   1   2
BRANCH   1  12
HETATM   12  O   UNL     1     -41.307 -52.742  10.938  1.00  0.00    -0.392 OA
HETATM   13  H   UNL     1     -40.389 -52.534  10.688  1.00  0.00     0.210 HD
ENDBRANCH   1  12
BRANCH   1  14
HETATM   14  C   UNL     1     -42.249 -52.982  13.132  1.00  0.00     0.166 C 
BRANCH  14  15
HETATM   15  N   UNL     1     -43.554 -52.585  13.638  1.00  0.00    -0.308 N 
HETATM   16  C   UNL     1     -43.655 -51.611  14.599  1.00  0.00     0.186 A 
HETATM   17  N   UNL     1     -44.759 -51.231  15.152  1.00  0.00    -0.356 N 
HETATM   18  C   UNL     1     -45.913 -51.839  14.731  1.00  0.00     0.011 A 
ATOM     19  HN  UNL     1     -44.772 -50.510  15.872  1.00  0.00     0.166 HD
HETATM   20  C   UNL     1     -47.175 -51.416  15.426  1.00  0.00     0.068 C 
HETATM   21  C   UNL     1     -45.950 -52.775  13.775  1.00  0.00     0.099 A 
HETATM   22  C   UNL     1     -44.684 -53.219  13.173  1.00  0.00     0.250 A 
HETATM   23  O   UNL     1     -44.689 -54.128  12.348  1.00  0.00    -0.268 OA
ENDBRANCH  14  15
ENDBRANCH   1  14
TORSDOF 6
ENDMDL
