MODEL 1
REMARK VINA RESULT:      -5.8      0.000      0.000
REMARK  6 active torsions:
REMARK  status: ('A' for Active; 'I' for Inactive)
REMARK    1  A    between atoms: O_2  and  C_3 
REMARK    2  A    between atoms: C_3  and  C_4 
REMARK    3  A    between atoms: C_4  and  N_5 
REMARK       I    between atoms: N_5  and  C_6 
REMARK    4  A    between atoms: C_6  and  C_8 
REMARK    5  A    between atoms: C_8  and  C_9 
REMARK    6  A    between atoms: C_12  and  C_15 
ROOT
HETATM    1  N   UNL     1     -42.723 -48.587  10.743  1.00  0.00    -0.358 N 
HETATM    2  C   UNL     1     -42.104 -49.097  11.863  1.00  0.00     0.223 C 
HETATM    3  O   UNL     1     -42.405 -48.740  13.000  1.00  0.00    -0.273 OA
HETATM    4  H   UNL     1     -42.428 -48.871   9.815  1.00  0.00     0.162 HD
ENDROOT
BRANCH   2   5
HETATM    5  C   UNL     1     -41.044 -50.150  11.601  1.00  0.00     0.160 C 
BRANCH   5   6
HETATM    6  C   UNL     1     -41.442 -51.484  12.142  1.00  0.00     0.025 A 
HETATM    7  C   UNL     1     -40.611 -52.434  12.707  1.00  0.00     0.077 A 
HETATM    8  S   UNL     1     -41.517 -53.800  13.198  1.00  0.00    -0.086 SA
HETATM    9  C   UNL     1     -42.951 -53.040  12.630  1.00  0.00     0.054 A 
HETATM   10  N   UNL     1     -42.785 -51.836  12.119  1.00  0.00    -0.356 N 
ATOM     11  HN  UNL     1     -43.536 -51.248  11.758  1.00  0.00     0.166 HD
BRANCH   9  12
HETATM   12  C   UNL     1     -44.275 -53.757  12.713  1.00  0.00     0.035 C 
HETATM   13  C   UNL     1     -44.363 -54.590  13.991  1.00  0.00     0.016 C 
HETATM   14  C   UNL     1     -45.423 -52.748  12.645  1.00  0.00     0.016 C 
ENDBRANCH   9  12
ENDBRANCH   5   6
ENDBRANCH   2   5
BRANCH   1  15
HETATM   15  C   UNL     1     -43.734 -47.555  10.875  1.00  0.00     0.160 C 
BRANCH  15  16
HETATM   16  C   UNL     1     -44.433 -47.349   9.524  1.00  0.00     0.076 C 
HETATM   17  C   UNL     1     -44.329 -45.882   9.005  1.00  0.00     0.040 C 
HETATM   18  C   UNL     1     -43.113 -46.296   8.160  1.00  0.00     0.006 C 
HETATM   19  C   UNL     1     -43.578 -47.753   8.280  1.00  0.00     0.040 C 
BRANCH  16  20
HETATM   20  O   UNL     1     -45.763 -47.944   9.502  1.00  0.00    -0.383 OA
HETATM   21  C   UNL     1     -46.851 -47.122   9.100  1.00  0.00     0.202 C 
ENDBRANCH  16  20
ENDBRANCH  15  16
ENDBRANCH   1  15
TORSDOF 6
ENDMDL
MODEL 2
REMARK VINA RESULT:      -5.8      2.823      6.328
REMARK  6 active torsions:
REMARK  status: ('A' for Active; 'I' for Inactive)
REMARK    1  A    between atoms: O_2  and  C_3 
REMARK    2  A    between atoms: C_3  and  C_4 
REMARK    3  A    between atoms: C_4  and  N_5 
REMARK       I    between atoms: N_5  and  C_6 
REMARK    4  A    between atoms: C_6  and  C_8 
REMARK    5  A    between atoms: C_8  and  C_9 
REMARK    6  A    between atoms: C_12  and  C_15 
ROOT
HETATM    1  N   UNL     1     -44.079 -50.779  13.834  1.00  0.00    -0.358 N 
HETATM    2  C   UNL     1     -43.132 -50.127  13.075  1.00  0.00     0.223 C 
HETATM    3  O   UNL     1     -42.485 -50.697  12.199  1.00  0.00    -0.273 OA
HETATM    4  H   UNL     1     -44.570 -50.293  14.577  1.00  0.00     0.162 HD
ENDROOT
BRANCH   2   5
HETATM    5  C   UNL     1     -42.959 -48.650  13.374  1.00  0.00     0.160 C 
BRANCH   5   6
HETATM    6  C   UNL     1     -42.826 -47.843  12.124  1.00  0.00     0.025 A 
HETATM    7  C   UNL     1     -41.871 -46.880  11.853  1.00  0.00     0.077 A 
HETATM    8  S   UNL     1     -42.105 -46.234  10.287  1.00  0.00    -0.086 SA
HETATM    9  C   UNL     1     -43.456 -47.275  10.071  1.00  0.00     0.054 A 
HETATM   10  N   UNL     1     -43.720 -48.073  11.087  1.00  0.00    -0.356 N 
ATOM     11  HN  UNL     1     -44.473 -48.761  11.108  1.00  0.00     0.166 HD
BRANCH   9  12
HETATM   12  C   UNL     1     -44.263 -47.220   8.799  1.00  0.00     0.035 C 
HETATM   13  C   UNL     1     -43.554 -47.970   7.671  1.00  0.00     0.016 C 
HETATM   14  C   UNL     1     -45.660 -47.798   9.037  1.00  0.00     0.016 C 
ENDBRANCH   9  12
ENDBRANCH   5   6
ENDBRANCH   2   5
BRANCH   1  15
HETATM   15  C   UNL     1     -44.308 -52.200  13.651  1.00  0.00     0.160 C 
BRANCH  15  16
HETATM   16  C   UNL     1     -45.800 -52.447  13.390  1.00  0.00     0.076 C 
HETATM   17  C   UNL     1     -46.425 -53.482  14.376  1.00  0.00     0.040 C 
HETATM   18  C   UNL     1     -46.909 -52.315  15.252  1.00  0.00     0.006 C 
HETATM   19  C   UNL     1     -46.757 -51.392  14.035  1.00  0.00     0.040 C 
BRANCH  16  20
HETATM   20  O   UNL     1     -46.079 -52.660  11.977  1.00  0.00    -0.383 OA
HETATM   21  C   UNL     1     -47.096 -51.871  11.374  1.00  0.00     0.202 C 
ENDBRANCH  16  20
ENDBRANCH  15  16
ENDBRANCH   1  15
TORSDOF 6
ENDMDL
MODEL 3
REMARK VINA RESULT:      -5.7      1.818      2.756
REMARK  6 active torsions:
REMARK  status: ('A' for Active; 'I' for Inactive)
REMARK    1  A    between atoms: O_2  and  C_3 
REMARK    2  A    between atoms: C_3  and  C_4 
REMARK    3  A    between atoms: C_4  and  N_5 
REMARK       I    between atoms: N_5  and  C_6 
REMARK    4  A    between atoms: C_6  and  C_8 
REMARK    5  A    between atoms: C_8  and  C_9 
REMARK    6  A    between atoms: C_12  and  C_15 
ROOT
HETATM    1  N   UNL     1     -41.032 -49.820  11.131  1.00  0.00    -0.358 N 
HETATM    2  C   UNL     1     -41.440 -50.639  12.162  1.00  0.00     0.223 C 
HETATM    3  O   UNL     1     -41.665 -50.210  13.292  1.00  0.00    -0.273 OA
HETATM    4  H   UNL     1     -40.816 -50.207  10.219  1.00  0.00     0.162 HD
ENDROOT
BRANCH   2   5
HETATM    5  C   UNL     1     -41.617 -52.102  11.803  1.00  0.00     0.160 C 
BRANCH   5   6
HETATM    6  C   UNL     1     -42.785 -52.708  12.510  1.00  0.00     0.025 A 
HETATM    7  C   UNL     1     -42.787 -53.858  13.279  1.00  0.00     0.077 A 
HETATM    8  S   UNL     1     -44.352 -54.154  13.902  1.00  0.00    -0.086 SA
HETATM    9  C   UNL     1     -44.923 -52.738  13.112  1.00  0.00     0.054 A 
HETATM   10  N   UNL     1     -44.013 -52.065  12.436  1.00  0.00    -0.356 N 
ATOM     11  HN  UNL     1     -44.187 -51.197  11.930  1.00  0.00     0.166 HD
BRANCH   9  12
HETATM   12  C   UNL     1     -46.378 -52.354  13.199  1.00  0.00     0.035 C 
HETATM   13  C   UNL     1     -46.624 -51.417  14.382  1.00  0.00     0.016 C 
HETATM   14  C   UNL     1     -46.828 -51.700  11.891  1.00  0.00     0.016 C 
ENDBRANCH   9  12
ENDBRANCH   5   6
ENDBRANCH   2   5
BRANCH   1  15
HETATM   15  C   UNL     1     -40.806 -48.407  11.368  1.00  0.00     0.160 C 
BRANCH  15  16
HETATM   16  C   UNL     1     -41.948 -47.594  10.745  1.00  0.00     0.076 C 
HETATM   17  C   UNL     1     -43.091 -47.278  11.758  1.00  0.00     0.040 C 
HETATM   18  C   UNL     1     -42.441 -45.910  12.023  1.00  0.00     0.006 C 
HETATM   19  C   UNL     1     -41.695 -46.053  10.689  1.00  0.00     0.040 C 
BRANCH  16  20
HETATM   20  O   UNL     1     -42.364 -48.136   9.459  1.00  0.00    -0.383 OA
HETATM   21  C   UNL     1     -43.484 -47.540   8.817  1.00  0.00     0.202 C 
ENDBRANCH  16  20
ENDBRANCH  15  16
ENDBRANCH   1  15
TORSDOF 6
ENDMDL
MODEL 4
REMARK VINA RESULT:      -5.6      1.192      1.762
REMARK  6 active torsions:
REMARK  status: ('A' for Active; 'I' for Inactive)
REMARK    1  A    between atoms: O_2  and  C_3 
REMARK    2  A    between atoms: C_3  and  C_4 
REMARK    3  A    between atoms: C_4  and  N_5 
REMARK       I    between atoms: N_5  and  C_6 
REMARK    4  A    between atoms: C_6  and  C_8 
REMARK    5  A    between atoms: C_8  and  C_9 
REMARK    6  A    between atoms: C_12  and  C_15 
ROOT
HETATM    1  N   UNL     1     -42.624 -48.646  10.824  1.00  0.00    -0.358 N 
HETATM    2  C   UNL     1     -42.162 -49.254  11.970  1.00  0.00     0.223 C 
HETATM    3  O   UNL     1     -42.564 -48.942  13.089  1.00  0.00    -0.273 OA
HETATM    4  H   UNL     1     -42.246 -48.896   9.917  1.00  0.00     0.162 HD
ENDROOT
BRANCH   2   5
HETATM    5  C   UNL     1     -41.141 -50.356  11.759  1.00  0.00     0.160 C 
BRANCH   5   6
HETATM    6  C   UNL     1     -41.629 -51.670  12.272  1.00  0.00     0.025 A 
HETATM    7  C   UNL     1     -40.862 -52.695  12.796  1.00  0.00     0.077 A 
HETATM    8  S   UNL     1     -41.859 -54.002  13.271  1.00  0.00    -0.086 SA
HETATM    9  C   UNL     1     -43.242 -53.121  12.751  1.00  0.00     0.054 A 
HETATM   10  N   UNL     1     -42.995 -51.920  12.268  1.00  0.00    -0.356 N 
ATOM     11  HN  UNL     1     -43.705 -51.267  11.938  1.00  0.00     0.166 HD
BRANCH   9  12
HETATM   12  C   UNL     1     -44.614 -53.738  12.842  1.00  0.00     0.035 C 
HETATM   13  C   UNL     1     -44.650 -54.831  13.911  1.00  0.00     0.016 C 
HETATM   14  C   UNL     1     -45.656 -52.658  13.139  1.00  0.00     0.016 C 
ENDBRANCH   9  12
ENDBRANCH   5   6
ENDBRANCH   2   5
BRANCH   1  15
HETATM   15  C   UNL     1     -43.583 -47.561  10.911  1.00  0.00     0.160 C 
BRANCH  15  16
HETATM   16  C   UNL     1     -43.639 -46.819   9.568  1.00  0.00     0.076 C 
HETATM   17  C   UNL     1     -43.413 -47.761   8.345  1.00  0.00     0.040 C 
HETATM   18  C   UNL     1     -44.938 -47.880   8.190  1.00  0.00     0.006 C 
HETATM   19  C   UNL     1     -45.080 -46.590   9.011  1.00  0.00     0.040 C 
BRANCH  16  20
HETATM   20  O   UNL     1     -42.850 -45.595   9.588  1.00  0.00    -0.383 OA
HETATM   21  C   UNL     1     -42.236 -45.220  10.815  1.00  0.00     0.202 C 
ENDBRANCH  16  20
ENDBRANCH  15  16
ENDBRANCH   1  15
TORSDOF 6
ENDMDL
MODEL 5
REMARK VINA RESULT:      -5.6      3.923      5.922
REMARK  6 active torsions:
REMARK  status: ('A' for Active; 'I' for Inactive)
REMARK    1  A    between atoms: O_2  and  C_3 
REMARK    2  A    between atoms: C_3  and  C_4 
REMARK    3  A    between atoms: C_4  and  N_5 
REMARK       I    between atoms: N_5  and  C_6 
REMARK    4  A    between atoms: C_6  and  C_8 
REMARK    5  A    between atoms: C_8  and  C_9 
REMARK    6  A    between atoms: C_12  and  C_15 
ROOT
HETATM    1  N   UNL     1     -43.619 -53.776  12.658  1.00  0.00    -0.358 N 
HETATM    2  C   UNL     1     -42.547 -54.160  13.433  1.00  0.00     0.223 C 
HETATM    3  O   UNL     1     -42.687 -54.675  14.540  1.00  0.00    -0.273 OA
HETATM    4  H   UNL     1     -43.474 -53.317  11.765  1.00  0.00     0.162 HD
ENDROOT
BRANCH   2   5
HETATM    5  C   UNL     1     -41.180 -53.929  12.817  1.00  0.00     0.160 C 
BRANCH   5   6
HETATM    6  C   UNL     1     -40.687 -52.541  13.067  1.00  0.00     0.025 A 
HETATM    7  C   UNL     1     -40.711 -51.854  14.267  1.00  0.00     0.077 A 
HETATM    8  S   UNL     1     -40.023 -50.299  14.075  1.00  0.00    -0.086 SA
HETATM    9  C   UNL     1     -39.738 -50.641  12.415  1.00  0.00     0.054 A 
HETATM   10  N   UNL     1     -40.111 -51.841  12.015  1.00  0.00    -0.356 N 
ATOM     11  HN  UNL     1     -39.992 -52.203  11.070  1.00  0.00     0.166 HD
BRANCH   9  12
HETATM   12  C   UNL     1     -39.124 -49.597  11.518  1.00  0.00     0.035 C 
HETATM   13  C   UNL     1     -39.439 -48.190  12.027  1.00  0.00     0.016 C 
HETATM   14  C   UNL     1     -37.612 -49.810  11.421  1.00  0.00     0.016 C 
ENDBRANCH   9  12
ENDBRANCH   5   6
ENDBRANCH   2   5
BRANCH   1  15
HETATM   15  C   UNL     1     -44.972 -53.927  13.159  1.00  0.00     0.160 C 
BRANCH  15  16
HETATM   16  C   UNL     1     -45.759 -52.634  12.903  1.00  0.00     0.076 C 
HETATM   17  C   UNL     1     -46.689 -52.245  14.094  1.00  0.00     0.040 C 
HETATM   18  C   UNL     1     -45.584 -51.310  14.616  1.00  0.00     0.006 C 
HETATM   19  C   UNL     1     -44.970 -51.321  13.209  1.00  0.00     0.040 C 
BRANCH  16  20
HETATM   20  O   UNL     1     -46.371 -52.620  11.582  1.00  0.00    -0.383 OA
HETATM   21  C   UNL     1     -47.308 -51.590  11.294  1.00  0.00     0.202 C 
ENDBRANCH  16  20
ENDBRANCH  15  16
ENDBRANCH   1  15
TORSDOF 6
ENDMDL
MODEL 6
REMARK VINA RESULT:      -5.6      2.600      5.632
REMARK  6 active torsions:
REMARK  status: ('A' for Active; 'I' for Inactive)
REMARK    1  A    between atoms: O_2  and  C_3 
REMARK    2  A    between atoms: C_3  and  C_4 
REMARK    3  A    between atoms: C_4  and  N_5 
REMARK       I    between atoms: N_5  and  C_6 
REMARK    4  A    between atoms: C_6  and  C_8 
REMARK    5  A    between atoms: C_8  and  C_9 
REMARK    6  A    between atoms: C_12  and  C_15 
ROOT
HETATM    1  N   UNL     1     -43.506 -53.249  12.287  1.00  0.00    -0.358 N 
HETATM    2  C   UNL     1     -42.288 -52.899  12.826  1.00  0.00     0.223 C 
HETATM    3  O   UNL     1     -42.075 -52.917  14.036  1.00  0.00    -0.273 OA
HETATM    4  H   UNL     1     -43.667 -53.188  11.287  1.00  0.00     0.162 HD
ENDROOT
BRANCH   2   5
HETATM    5  C   UNL     1     -41.216 -52.514  11.823  1.00  0.00     0.160 C 
BRANCH   5   6
HETATM    6  C   UNL     1     -40.851 -51.070  11.930  1.00  0.00     0.025 A 
HETATM    7  C   UNL     1     -39.695 -50.544  12.478  1.00  0.00     0.077 A 
HETATM    8  S   UNL     1     -39.707 -48.837  12.364  1.00  0.00    -0.086 SA
HETATM    9  C   UNL     1     -41.243 -48.909  11.595  1.00  0.00     0.054 A 
HETATM   10  N   UNL     1     -41.724 -50.123  11.412  1.00  0.00    -0.356 N 
ATOM     11  HN  UNL     1     -42.610 -50.336  10.954  1.00  0.00     0.166 HD
BRANCH   9  12
HETATM   12  C   UNL     1     -41.958 -47.641  11.203  1.00  0.00     0.035 C 
HETATM   13  C   UNL     1     -42.622 -47.792   9.835  1.00  0.00     0.016 C 
HETATM   14  C   UNL     1     -42.992 -47.271  12.267  1.00  0.00     0.016 C 
ENDBRANCH   9  12
ENDBRANCH   5   6
ENDBRANCH   2   5
BRANCH   1  15
HETATM   15  C   UNL     1     -44.611 -53.609  13.155  1.00  0.00     0.160 C 
BRANCH  15  16
HETATM   16  C   UNL     1     -45.754 -52.602  12.973  1.00  0.00     0.076 C 
HETATM   17  C   UNL     1     -46.724 -52.557  14.194  1.00  0.00     0.040 C 
HETATM   18  C   UNL     1     -45.934 -51.358  14.743  1.00  0.00     0.006 C 
HETATM   19  C   UNL     1     -45.384 -51.126  13.329  1.00  0.00     0.040 C 
BRANCH  16  20
HETATM   20  O   UNL     1     -46.379 -52.718  11.662  1.00  0.00    -0.383 OA
HETATM   21  C   UNL     1     -47.249 -51.672  11.246  1.00  0.00     0.202 C 
ENDBRANCH  16  20
ENDBRANCH  15  16
ENDBRANCH   1  15
TORSDOF 6
ENDMDL
MODEL 7
REMARK VINA RESULT:      -5.6      2.802      6.290
REMARK  6 active torsions:
REMARK  status: ('A' for Active; 'I' for Inactive)
REMARK    1  A    between atoms: O_2  and  C_3 
REMARK    2  A    between atoms: C_3  and  C_4 
REMARK    3  A    between atoms: C_4  and  N_5 
REMARK       I    between atoms: N_5  and  C_6 
REMARK    4  A    between atoms: C_6  and  C_8 
REMARK    5  A    between atoms: C_8  and  C_9 
REMARK    6  A    between atoms: C_12  and  C_15 
ROOT
HETATM    1  N   UNL     1     -40.975 -51.738  11.472  1.00  0.00    -0.358 N 
HETATM    2  C   UNL     1     -39.903 -50.946  11.821  1.00  0.00     0.223 C 
HETATM    3  O   UNL     1     -39.075 -51.293  12.660  1.00  0.00    -0.273 OA
HETATM    4  H   UNL     1     -41.665 -51.410  10.805  1.00  0.00     0.162 HD
ENDROOT
BRANCH   2   5
HETATM    5  C   UNL     1     -39.798 -49.626  11.081  1.00  0.00     0.160 C 
BRANCH   5   6
HETATM    6  C   UNL     1     -41.082 -48.864  11.121  1.00  0.00     0.025 A 
HETATM    7  C   UNL     1     -41.784 -48.477  12.248  1.00  0.00     0.077 A 
HETATM    8  S   UNL     1     -43.190 -47.610  11.803  1.00  0.00    -0.086 SA
HETATM    9  C   UNL     1     -42.774 -47.805  10.147  1.00  0.00     0.054 A 
HETATM   10  N   UNL     1     -41.651 -48.459   9.922  1.00  0.00    -0.356 N 
ATOM     11  HN  UNL     1     -41.257 -48.640   8.999  1.00  0.00     0.166 HD
BRANCH   9  12
HETATM   12  C   UNL     1     -43.680 -47.269   9.067  1.00  0.00     0.035 C 
HETATM   13  C   UNL     1     -43.366 -47.922   7.721  1.00  0.00     0.016 C 
HETATM   14  C   UNL     1     -45.144 -47.496   9.449  1.00  0.00     0.016 C 
ENDBRANCH   9  12
ENDBRANCH   5   6
ENDBRANCH   2   5
BRANCH   1  15
HETATM   15  C   UNL     1     -41.188 -53.010  12.135  1.00  0.00     0.160 C 
BRANCH  15  16
HETATM   16  C   UNL     1     -42.232 -52.838  13.248  1.00  0.00     0.076 C 
HETATM   17  C   UNL     1     -43.458 -51.983  12.802  1.00  0.00     0.040 C 
HETATM   18  C   UNL     1     -44.212 -53.283  12.479  1.00  0.00     0.006 C 
HETATM   19  C   UNL     1     -43.231 -54.031  13.392  1.00  0.00     0.040 C 
BRANCH  16  20
HETATM   20  O   UNL     1     -41.620 -52.469  14.517  1.00  0.00    -0.383 OA
HETATM   21  C   UNL     1     -41.883 -51.168  15.027  1.00  0.00     0.202 C 
ENDBRANCH  16  20
ENDBRANCH  15  16
ENDBRANCH   1  15
TORSDOF 6
ENDMDL
MODEL 8
REMARK VINA RESULT:      -5.5      3.970      5.688
REMARK  6 active torsions:
REMARK  status: ('A' for Active; 'I' for Inactive)
REMARK    1  A    between atoms: O_2  and  C_3 
REMARK    2  A    between atoms: C_3  and  C_4 
REMARK    3  A    between atoms: C_4  and  N_5 
REMARK       I    between atoms: N_5  and  C_6 
REMARK    4  A    between atoms: C_6  and  C_8 
REMARK    5  A    between atoms: C_8  and  C_9 
REMARK    6  A    between atoms: C_12  and  C_15 
ROOT
HETATM    1  N   UNL     1     -40.193 -50.915  13.582  1.00  0.00    -0.358 N 
HETATM    2  C   UNL     1     -40.866 -51.271  12.434  1.00  0.00     0.223 C 
HETATM    3  O   UNL     1     -41.119 -50.463  11.543  1.00  0.00    -0.273 OA
HETATM    4  H   UNL     1     -40.032 -51.594  14.319  1.00  0.00     0.162 HD
ENDROOT
BRANCH   2   5
HETATM    5  C   UNL     1     -41.253 -52.734  12.330  1.00  0.00     0.160 C 
BRANCH   5   6
HETATM    6  C   UNL     1     -42.676 -52.961  12.722  1.00  0.00     0.025 A 
HETATM    7  C   UNL     1     -43.228 -54.132  13.207  1.00  0.00     0.077 A 
HETATM    8  S   UNL     1     -44.893 -53.914  13.535  1.00  0.00    -0.086 SA
HETATM    9  C   UNL     1     -44.770 -52.280  13.014  1.00  0.00     0.054 A 
HETATM   10  N   UNL     1     -43.567 -51.900  12.632  1.00  0.00    -0.356 N 
ATOM     11  HN  UNL     1     -43.325 -50.961  12.316  1.00  0.00     0.166 HD
BRANCH   9  12
HETATM   12  C   UNL     1     -45.991 -51.395  12.992  1.00  0.00     0.035 C 
HETATM   13  C   UNL     1     -46.943 -51.810  11.871  1.00  0.00     0.016 C 
HETATM   14  C   UNL     1     -46.699 -51.444  14.348  1.00  0.00     0.016 C 
ENDBRANCH   9  12
ENDBRANCH   5   6
ENDBRANCH   2   5
BRANCH   1  15
HETATM   15  C   UNL     1     -39.799 -49.536  13.799  1.00  0.00     0.160 C 
BRANCH  15  16
HETATM   16  C   UNL     1     -38.317 -49.365  13.438  1.00  0.00     0.076 C 
HETATM   17  C   UNL     1     -37.547 -48.461  14.449  1.00  0.00     0.040 C 
HETATM   18  C   UNL     1     -37.083 -49.728  15.187  1.00  0.00     0.006 C 
HETATM   19  C   UNL     1     -37.393 -50.531  13.916  1.00  0.00     0.040 C 
BRANCH  16  20
HETATM   20  O   UNL     1     -38.131 -49.051  12.028  1.00  0.00    -0.383 OA
HETATM   21  C   UNL     1     -37.406 -49.978  11.230  1.00  0.00     0.202 C 
ENDBRANCH  16  20
ENDBRANCH  15  16
ENDBRANCH   1  15
TORSDOF 6
ENDMDL
MODEL 9
REMARK VINA RESULT:      -5.2      3.072      6.118
REMARK  6 active torsions:
REMARK  status: ('A' for Active; 'I' for Inactive)
REMARK    1  A    between atoms: O_2  and  C_3 
REMARK    2  A    between atoms: C_3  and  C_4 
REMARK    3  A    between atoms: C_4  and  N_5 
REMARK       I    between atoms: N_5  and  C_6 
REMARK    4  A    between atoms: C_6  and  C_8 
REMARK    5  A    between atoms: C_8  and  C_9 
REMARK    6  A    between atoms: C_12  and  C_15 
ROOT
HETATM    1  N   UNL     1     -43.247 -53.336  12.360  1.00  0.00    -0.358 N 
HETATM    2  C   UNL     1     -42.014 -53.657  12.887  1.00  0.00     0.223 C 
HETATM    3  O   UNL     1     -41.886 -54.421  13.841  1.00  0.00    -0.273 OA
HETATM    4  H   UNL     1     -43.326 -52.673  11.597  1.00  0.00     0.162 HD
ENDROOT
BRANCH   2   5
HETATM    5  C   UNL     1     -40.823 -53.024  12.193  1.00  0.00     0.160 C 
BRANCH   5   6
HETATM    6  C   UNL     1     -40.797 -51.543  12.378  1.00  0.00     0.025 A 
HETATM    7  C   UNL     1     -40.490 -50.854  13.537  1.00  0.00     0.077 A 
HETATM    8  S   UNL     1     -40.575 -49.167  13.267  1.00  0.00    -0.086 SA
HETATM    9  C   UNL     1     -41.013 -49.462  11.631  1.00  0.00     0.054 A 
HETATM   10  N   UNL     1     -41.080 -50.732  11.286  1.00  0.00    -0.356 N 
ATOM     11  HN  UNL     1     -41.306 -51.072  10.351  1.00  0.00     0.166 HD
BRANCH   9  12
HETATM   12  C   UNL     1     -41.315 -48.310  10.705  1.00  0.00     0.035 C 
HETATM   13  C   UNL     1     -42.807 -47.980  10.716  1.00  0.00     0.016 C 
HETATM   14  C   UNL     1     -40.488 -47.086  11.104  1.00  0.00     0.016 C 
ENDBRANCH   9  12
ENDBRANCH   5   6
ENDBRANCH   2   5
BRANCH   1  15
HETATM   15  C   UNL     1     -44.456 -53.864  12.962  1.00  0.00     0.160 C 
BRANCH  15  16
HETATM   16  C   UNL     1     -45.046 -52.823  13.923  1.00  0.00     0.076 C 
HETATM   17  C   UNL     1     -45.005 -51.374  13.346  1.00  0.00     0.040 C 
HETATM   18  C   UNL     1     -46.454 -51.553  12.865  1.00  0.00     0.006 C 
HETATM   19  C   UNL     1     -46.603 -52.701  13.874  1.00  0.00     0.040 C 
BRANCH  16  20
HETATM   20  O   UNL     1     -44.544 -52.987  15.280  1.00  0.00    -0.383 OA
HETATM   21  C   UNL     1     -45.418 -52.669  16.355  1.00  0.00     0.202 C 
ENDBRANCH  16  20
ENDBRANCH  15  16
ENDBRANCH   1  15
TORSDOF 6
ENDMDL
