MODEL 1
REMARK VINA RESULT:      -5.9      0.000      0.000
REMARK  4 active torsions:
REMARK  status: ('A' for Active; 'I' for Inactive)
REMARK       I    between atoms: C_2  and  N_4 
REMARK    1  A    between atoms: C_7  and  C_9 
REMARK       I    between atoms: C_9  and  N_11 
REMARK    2  A    between atoms: N_11  and  C_12 
REMARK    3  A    between atoms: C_12  and  C_13 
REMARK    4  A    between atoms: C_13  and  C_14 
ROOT
HETATM    1  C   UNL     1     -43.024 -54.062  13.512  1.00  0.00     0.223 C 
HETATM    2  O   UNL     1     -43.431 -53.637  12.432  1.00  0.00    -0.273 OA
HETATM    3  N   UNL     1     -41.694 -54.047  13.858  1.00  0.00    -0.360 N 
HETATM    4  H   UNL     1     -41.403 -54.441  14.746  1.00  0.00     0.162 HD
ENDROOT
BRANCH   3   5
HETATM    5  C   UNL     1     -40.663 -53.567  12.961  1.00  0.00     0.128 C 
BRANCH   5   6
HETATM    6  C   UNL     1     -39.906 -52.359  13.523  1.00  0.00     0.068 C 
BRANCH   6   7
HETATM    7  C   UNL     1     -40.005 -51.199  12.582  1.00  0.00     0.008 A 
HETATM    8  S   UNL     1     -41.537 -50.585  12.113  1.00  0.00    -0.080 SA
HETATM    9  C   UNL     1     -40.759 -49.315  11.265  1.00  0.00     0.047 A 
HETATM   10  C   UNL     1     -41.556 -48.236  10.621  1.00  0.00     0.076 C 
HETATM   11  N   UNL     1     -39.446 -49.366  11.254  1.00  0.00    -0.357 N 
HETATM   12  C   UNL     1     -39.000 -50.443  12.004  1.00  0.00     0.019 A 
ATOM     13  HN  UNL     1     -38.841 -48.707  10.763  1.00  0.00     0.166 HD
HETATM   14  C   UNL     1     -37.533 -50.649  12.141  1.00  0.00     0.069 C 
ENDBRANCH   6   7
ENDBRANCH   5   6
ENDBRANCH   3   5
BRANCH   1  15
HETATM   15  C   UNL     1     -43.982 -54.620  14.556  1.00  0.00     0.097 C 
HETATM   16  C   UNL     1     -45.318 -55.053  13.949  1.00  0.00     0.035 C 
HETATM   17  C   UNL     1     -46.246 -53.852  14.120  1.00  0.00     0.126 C 
HETATM   18  N   UNL     1     -45.550 -52.945  15.019  1.00  0.00    -0.352 N 
HETATM   19  C   UNL     1     -46.025 -51.674  15.250  1.00  0.00     0.215 C 
HETATM   20  C   UNL     1     -44.370 -53.576  15.593  1.00  0.00     0.139 C 
HETATM   21  C   UNL     1     -45.282 -50.835  16.257  1.00  0.00     0.117 C 
HETATM   22  O   UNL     1     -47.006 -51.229  14.657  1.00  0.00    -0.274 OA
ENDBRANCH   1  15
TORSDOF 4
ENDMDL
MODEL 2
REMARK VINA RESULT:      -5.9      3.673      7.009
REMARK  4 active torsions:
REMARK  status: ('A' for Active; 'I' for Inactive)
REMARK       I    between atoms: C_2  and  N_4 
REMARK    1  A    between atoms: C_7  and  C_9 
REMARK       I    between atoms: C_9  and  N_11 
REMARK    2  A    between atoms: N_11  and  C_12 
REMARK    3  A    between atoms: C_12  and  C_13 
REMARK    4  A    between atoms: C_13  and  C_14 
ROOT
HETATM    1  C   UNL     1     -42.671 -47.694  10.941  1.00  0.00     0.223 C 
HETATM    2  O   UNL     1     -42.980 -46.999  11.907  1.00  0.00    -0.273 OA
HETATM    3  N   UNL     1     -42.332 -49.021  11.063  1.00  0.00    -0.360 N 
HETATM    4  H   UNL     1     -42.050 -49.543  10.241  1.00  0.00     0.162 HD
ENDROOT
BRANCH   3   5
HETATM    5  C   UNL     1     -42.272 -49.692  12.345  1.00  0.00     0.128 C 
BRANCH   5   6
HETATM    6  C   UNL     1     -41.596 -51.065  12.262  1.00  0.00     0.068 C 
BRANCH   6   7
HETATM    7  C   UNL     1     -42.491 -52.120  12.832  1.00  0.00     0.008 A 
HETATM    8  S   UNL     1     -44.129 -51.770  13.201  1.00  0.00    -0.080 SA
HETATM    9  C   UNL     1     -44.386 -53.418  13.595  1.00  0.00     0.047 A 
HETATM   10  C   UNL     1     -45.744 -53.909  13.950  1.00  0.00     0.076 C 
HETATM   11  N   UNL     1     -43.319 -54.184  13.536  1.00  0.00    -0.357 N 
HETATM   12  C   UNL     1     -42.225 -53.452  13.101  1.00  0.00     0.019 A 
ATOM     13  HN  UNL     1     -43.299 -55.175  13.775  1.00  0.00     0.166 HD
HETATM   14  C   UNL     1     -40.925 -54.157  12.936  1.00  0.00     0.069 C 
ENDBRANCH   6   7
ENDBRANCH   5   6
ENDBRANCH   3   5
BRANCH   1  15
HETATM   15  C   UNL     1     -42.665 -47.128   9.527  1.00  0.00     0.097 C 
HETATM   16  C   UNL     1     -43.083 -45.657   9.486  1.00  0.00     0.035 C 
HETATM   17  C   UNL     1     -44.581 -45.672   9.193  1.00  0.00     0.126 C 
HETATM   18  N   UNL     1     -44.891 -47.040   8.810  1.00  0.00    -0.352 N 
HETATM   19  C   UNL     1     -46.194 -47.453   8.648  1.00  0.00     0.215 C 
HETATM   20  C   UNL     1     -43.677 -47.823   8.628  1.00  0.00     0.139 C 
HETATM   21  C   UNL     1     -46.414 -48.865   8.172  1.00  0.00     0.117 C 
HETATM   22  O   UNL     1     -47.145 -46.711   8.889  1.00  0.00    -0.274 OA
ENDBRANCH   1  15
TORSDOF 4
ENDMDL
MODEL 3
REMARK VINA RESULT:      -5.8      2.728      4.028
REMARK  4 active torsions:
REMARK  status: ('A' for Active; 'I' for Inactive)
REMARK       I    between atoms: C_2  and  N_4 
REMARK    1  A    between atoms: C_7  and  C_9 
REMARK       I    between atoms: C_9  and  N_11 
REMARK    2  A    between atoms: N_11  and  C_12 
REMARK    3  A    between atoms: C_12  and  C_13 
REMARK    4  A    between atoms: C_13  and  C_14 
ROOT
HETATM    1  C   UNL     1     -44.207 -50.591  13.491  1.00  0.00     0.223 C 
HETATM    2  O   UNL     1     -44.131 -50.027  14.581  1.00  0.00    -0.273 OA
HETATM    3  N   UNL     1     -43.255 -50.438  12.511  1.00  0.00    -0.360 N 
HETATM    4  H   UNL     1     -43.381 -50.896  11.615  1.00  0.00     0.162 HD
ENDROOT
BRANCH   3   5
HETATM    5  C   UNL     1     -42.108 -49.568  12.671  1.00  0.00     0.128 C 
BRANCH   5   6
HETATM    6  C   UNL     1     -41.306 -49.403  11.377  1.00  0.00     0.068 C 
BRANCH   6   7
HETATM    7  C   UNL     1     -41.220 -47.957  10.999  1.00  0.00     0.008 A 
HETATM    8  S   UNL     1     -39.935 -46.979  11.577  1.00  0.00    -0.080 SA
HETATM    9  C   UNL     1     -40.498 -45.681  10.610  1.00  0.00     0.047 A 
HETATM   10  C   UNL     1     -39.733 -44.407  10.535  1.00  0.00     0.076 C 
HETATM   11  N   UNL     1     -41.610 -45.911   9.949  1.00  0.00    -0.357 N 
HETATM   12  C   UNL     1     -42.037 -47.213  10.165  1.00  0.00     0.019 A 
ATOM     13  HN  UNL     1     -42.091 -45.230   9.362  1.00  0.00     0.166 HD
HETATM   14  C   UNL     1     -43.268 -47.676   9.469  1.00  0.00     0.069 C 
ENDBRANCH   6   7
ENDBRANCH   5   6
ENDBRANCH   3   5
BRANCH   1  15
HETATM   15  C   UNL     1     -45.365 -51.523  13.160  1.00  0.00     0.097 C 
HETATM   16  C   UNL     1     -46.517 -51.400  14.161  1.00  0.00     0.035 C 
HETATM   17  C   UNL     1     -46.271 -52.498  15.194  1.00  0.00     0.126 C 
HETATM   18  N   UNL     1     -45.229 -53.340  14.629  1.00  0.00    -0.352 N 
HETATM   19  C   UNL     1     -44.635 -54.331  15.379  1.00  0.00     0.215 C 
HETATM   20  C   UNL     1     -44.962 -52.989  13.242  1.00  0.00     0.139 C 
HETATM   21  C   UNL     1     -43.624 -55.205  14.685  1.00  0.00     0.117 C 
HETATM   22  O   UNL     1     -44.905 -54.495  16.567  1.00  0.00    -0.274 OA
ENDBRANCH   1  15
TORSDOF 4
ENDMDL
MODEL 4
REMARK VINA RESULT:      -5.7      4.930      6.619
REMARK  4 active torsions:
REMARK  status: ('A' for Active; 'I' for Inactive)
REMARK       I    between atoms: C_2  and  N_4 
REMARK    1  A    between atoms: C_7  and  C_9 
REMARK       I    between atoms: C_9  and  N_11 
REMARK    2  A    between atoms: N_11  and  C_12 
REMARK    3  A    between atoms: C_12  and  C_13 
REMARK    4  A    between atoms: C_13  and  C_14 
ROOT
HETATM    1  C   UNL     1     -42.644 -47.633  10.493  1.00  0.00     0.223 C 
HETATM    2  O   UNL     1     -43.025 -47.086  11.526  1.00  0.00    -0.273 OA
HETATM    3  N   UNL     1     -42.011 -48.853  10.493  1.00  0.00    -0.360 N 
HETATM    4  H   UNL     1     -41.682 -49.248   9.618  1.00  0.00     0.162 HD
ENDROOT
BRANCH   3   5
HETATM    5  C   UNL     1     -41.706 -49.570  11.714  1.00  0.00     0.128 C 
BRANCH   5   6
HETATM    6  C   UNL     1     -40.310 -50.201  11.697  1.00  0.00     0.068 C 
BRANCH   6   7
HETATM    7  C   UNL     1     -39.397 -49.470  12.631  1.00  0.00     0.008 A 
HETATM    8  S   UNL     1     -39.928 -48.054  13.441  1.00  0.00    -0.080 SA
HETATM    9  C   UNL     1     -38.456 -48.011  14.316  1.00  0.00     0.047 A 
HETATM   10  C   UNL     1     -38.237 -46.995  15.380  1.00  0.00     0.076 C 
HETATM   11  N   UNL     1     -37.580 -48.936  13.992  1.00  0.00    -0.357 N 
HETATM   12  C   UNL     1     -38.106 -49.778  13.024  1.00  0.00     0.019 A 
ATOM     13  HN  UNL     1     -36.646 -49.021  14.394  1.00  0.00     0.166 HD
HETATM   14  C   UNL     1     -37.273 -50.916  12.550  1.00  0.00     0.069 C 
ENDBRANCH   6   7
ENDBRANCH   5   6
ENDBRANCH   3   5
BRANCH   1  15
HETATM   15  C   UNL     1     -42.870 -46.996   9.128  1.00  0.00     0.097 C 
HETATM   16  C   UNL     1     -43.470 -45.592   9.232  1.00  0.00     0.035 C 
HETATM   17  C   UNL     1     -44.978 -45.788   9.100  1.00  0.00     0.126 C 
HETATM   18  N   UNL     1     -45.157 -47.162   8.660  1.00  0.00    -0.352 N 
HETATM   19  C   UNL     1     -46.409 -47.734   8.610  1.00  0.00     0.215 C 
HETATM   20  C   UNL     1     -43.884 -47.769   8.297  1.00  0.00     0.139 C 
HETATM   21  C   UNL     1     -46.504 -49.134   8.065  1.00  0.00     0.117 C 
HETATM   22  O   UNL     1     -47.410 -47.137   9.002  1.00  0.00    -0.274 OA
ENDBRANCH   1  15
TORSDOF 4
ENDMDL
MODEL 5
REMARK VINA RESULT:      -5.7      1.613      2.165
REMARK  4 active torsions:
REMARK  status: ('A' for Active; 'I' for Inactive)
REMARK       I    between atoms: C_2  and  N_4 
REMARK    1  A    between atoms: C_7  and  C_9 
REMARK       I    between atoms: C_9  and  N_11 
REMARK    2  A    between atoms: N_11  and  C_12 
REMARK    3  A    between atoms: C_12  and  C_13 
REMARK    4  A    between atoms: C_13  and  C_14 
ROOT
HETATM    1  C   UNL     1     -43.459 -53.985  13.300  1.00  0.00     0.223 C 
HETATM    2  O   UNL     1     -44.039 -53.616  12.280  1.00  0.00    -0.273 OA
HETATM    3  N   UNL     1     -42.159 -53.637  13.580  1.00  0.00    -0.360 N 
HETATM    4  H   UNL     1     -41.713 -53.996  14.417  1.00  0.00     0.162 HD
ENDROOT
BRANCH   3   5
HETATM    5  C   UNL     1     -41.356 -52.841  12.674  1.00  0.00     0.128 C 
BRANCH   5   6
HETATM    6  C   UNL     1     -40.906 -51.514  13.293  1.00  0.00     0.068 C 
BRANCH   6   7
HETATM    7  C   UNL     1     -41.597 -50.367  12.625  1.00  0.00     0.008 A 
HETATM    8  S   UNL     1     -40.806 -49.467  11.397  1.00  0.00    -0.080 SA
HETATM    9  C   UNL     1     -42.246 -48.576  11.132  1.00  0.00     0.047 A 
HETATM   10  C   UNL     1     -42.327 -47.578  10.032  1.00  0.00     0.076 C 
HETATM   11  N   UNL     1     -43.241 -48.861  11.942  1.00  0.00    -0.357 N 
HETATM   12  C   UNL     1     -42.882 -49.884  12.805  1.00  0.00     0.019 A 
ATOM     13  HN  UNL     1     -44.149 -48.394  11.937  1.00  0.00     0.166 HD
HETATM   14  C   UNL     1     -43.894 -50.373  13.780  1.00  0.00     0.069 C 
ENDBRANCH   6   7
ENDBRANCH   5   6
ENDBRANCH   3   5
BRANCH   1  15
HETATM   15  C   UNL     1     -44.161 -54.846  14.342  1.00  0.00     0.097 C 
HETATM   16  C   UNL     1     -45.574 -55.246  13.913  1.00  0.00     0.035 C 
HETATM   17  C   UNL     1     -46.495 -54.200  14.537  1.00  0.00     0.126 C 
HETATM   18  N   UNL     1     -45.668 -53.462  15.478  1.00  0.00    -0.352 N 
HETATM   19  C   UNL     1     -46.138 -52.322  16.092  1.00  0.00     0.215 C 
HETATM   20  C   UNL     1     -44.372 -54.101  15.653  1.00  0.00     0.139 C 
HETATM   21  C   UNL     1     -45.241 -51.671  17.111  1.00  0.00     0.117 C 
HETATM   22  O   UNL     1     -47.236 -51.843  15.817  1.00  0.00    -0.274 OA
ENDBRANCH   1  15
TORSDOF 4
ENDMDL
MODEL 6
REMARK VINA RESULT:      -5.5      1.497      1.904
REMARK  4 active torsions:
REMARK  status: ('A' for Active; 'I' for Inactive)
REMARK       I    between atoms: C_2  and  N_4 
REMARK    1  A    between atoms: C_7  and  C_9 
REMARK       I    between atoms: C_9  and  N_11 
REMARK    2  A    between atoms: N_11  and  C_12 
REMARK    3  A    between atoms: C_12  and  C_13 
REMARK    4  A    between atoms: C_13  and  C_14 
ROOT
HETATM    1  C   UNL     1     -42.579 -52.882  15.866  1.00  0.00     0.223 C 
HETATM    2  O   UNL     1     -42.586 -51.953  16.672  1.00  0.00    -0.273 OA
HETATM    3  N   UNL     1     -41.591 -53.034  14.922  1.00  0.00    -0.360 N 
HETATM    4  H   UNL     1     -41.649 -53.797  14.256  1.00  0.00     0.162 HD
ENDROOT
BRANCH   3   5
HETATM    5  C   UNL     1     -40.504 -52.088  14.776  1.00  0.00     0.128 C 
BRANCH   5   6
HETATM    6  C   UNL     1     -39.687 -52.320  13.501  1.00  0.00     0.068 C 
BRANCH   6   7
HETATM    7  C   UNL     1     -39.867 -51.176  12.553  1.00  0.00     0.008 A 
HETATM    8  S   UNL     1     -41.437 -50.621  12.142  1.00  0.00    -0.080 SA
HETATM    9  C   UNL     1     -40.741 -49.336  11.247  1.00  0.00     0.047 A 
HETATM   10  C   UNL     1     -41.601 -48.294  10.626  1.00  0.00     0.076 C 
HETATM   11  N   UNL     1     -39.428 -49.341  11.182  1.00  0.00    -0.357 N 
HETATM   12  C   UNL     1     -38.914 -50.393  11.924  1.00  0.00     0.019 A 
ATOM     13  HN  UNL     1     -38.868 -48.668  10.659  1.00  0.00     0.166 HD
HETATM   14  C   UNL     1     -37.436 -50.546  12.001  1.00  0.00     0.069 C 
ENDBRANCH   6   7
ENDBRANCH   5   6
ENDBRANCH   3   5
BRANCH   1  15
HETATM   15  C   UNL     1     -43.666 -53.948  15.876  1.00  0.00     0.097 C 
HETATM   16  C   UNL     1     -43.467 -54.995  14.779  1.00  0.00     0.035 C 
HETATM   17  C   UNL     1     -44.315 -54.514  13.604  1.00  0.00     0.126 C 
HETATM   18  N   UNL     1     -45.144 -53.443  14.134  1.00  0.00    -0.352 N 
HETATM   19  C   UNL     1     -45.909 -52.660  13.298  1.00  0.00     0.215 C 
HETATM   20  C   UNL     1     -45.042 -53.366  15.583  1.00  0.00     0.139 C 
HETATM   21  C   UNL     1     -46.796 -51.629  13.944  1.00  0.00     0.117 C 
HETATM   22  O   UNL     1     -45.867 -52.782  12.075  1.00  0.00    -0.274 OA
ENDBRANCH   1  15
TORSDOF 4
ENDMDL
MODEL 7
REMARK VINA RESULT:      -5.4      3.442      6.897
REMARK  4 active torsions:
REMARK  status: ('A' for Active; 'I' for Inactive)
REMARK       I    between atoms: C_2  and  N_4 
REMARK    1  A    between atoms: C_7  and  C_9 
REMARK       I    between atoms: C_9  and  N_11 
REMARK    2  A    between atoms: N_11  and  C_12 
REMARK    3  A    between atoms: C_12  and  C_13 
REMARK    4  A    between atoms: C_13  and  C_14 
ROOT
HETATM    1  C   UNL     1     -42.046 -48.999  11.580  1.00  0.00     0.223 C 
HETATM    2  O   UNL     1     -41.141 -48.986  10.747  1.00  0.00    -0.273 OA
HETATM    3  N   UNL     1     -42.097 -49.915  12.602  1.00  0.00    -0.360 N 
HETATM    4  H   UNL     1     -42.883 -49.908  13.243  1.00  0.00     0.162 HD
ENDROOT
BRANCH   3   5
HETATM    5  C   UNL     1     -41.111 -50.965  12.755  1.00  0.00     0.128 C 
BRANCH   5   6
HETATM    6  C   UNL     1     -41.480 -52.239  11.989  1.00  0.00     0.068 C 
BRANCH   6   7
HETATM    7  C   UNL     1     -42.379 -53.102  12.818  1.00  0.00     0.008 A 
HETATM    8  S   UNL     1     -44.068 -53.143  12.519  1.00  0.00    -0.080 SA
HETATM    9  C   UNL     1     -44.239 -54.378  13.695  1.00  0.00     0.047 A 
HETATM   10  C   UNL     1     -45.557 -55.027  13.924  1.00  0.00     0.076 C 
HETATM   11  N   UNL     1     -43.138 -54.703  14.334  1.00  0.00    -0.357 N 
HETATM   12  C   UNL     1     -42.063 -53.977  13.843  1.00  0.00     0.019 A 
ATOM     13  HN  UNL     1     -43.081 -55.391  15.086  1.00  0.00     0.166 HD
HETATM   14  C   UNL     1     -40.716 -54.232  14.420  1.00  0.00     0.069 C 
ENDBRANCH   6   7
ENDBRANCH   5   6
ENDBRANCH   3   5
BRANCH   1  15
HETATM   15  C   UNL     1     -43.171 -47.973  11.542  1.00  0.00     0.097 C 
HETATM   16  C   UNL     1     -43.516 -47.537  10.117  1.00  0.00     0.035 C 
HETATM   17  C   UNL     1     -42.703 -46.266   9.877  1.00  0.00     0.126 C 
HETATM   18  N   UNL     1     -42.186 -45.881  11.180  1.00  0.00    -0.352 N 
HETATM   19  C   UNL     1     -41.259 -44.871  11.305  1.00  0.00     0.215 C 
HETATM   20  C   UNL     1     -42.787 -46.676  12.241  1.00  0.00     0.139 C 
HETATM   21  C   UNL     1     -40.842 -44.488  12.700  1.00  0.00     0.117 C 
HETATM   22  O   UNL     1     -40.777 -44.308  10.323  1.00  0.00    -0.274 OA
ENDBRANCH   1  15
TORSDOF 4
ENDMDL
MODEL 8
REMARK VINA RESULT:      -5.4      2.545      5.933
REMARK  4 active torsions:
REMARK  status: ('A' for Active; 'I' for Inactive)
REMARK       I    between atoms: C_2  and  N_4 
REMARK    1  A    between atoms: C_7  and  C_9 
REMARK       I    between atoms: C_9  and  N_11 
REMARK    2  A    between atoms: N_11  and  C_12 
REMARK    3  A    between atoms: C_12  and  C_13 
REMARK    4  A    between atoms: C_13  and  C_14 
ROOT
HETATM    1  C   UNL     1     -42.623 -53.960  13.491  1.00  0.00     0.223 C 
HETATM    2  O   UNL     1     -42.792 -53.927  14.709  1.00  0.00    -0.273 OA
HETATM    3  N   UNL     1     -43.660 -53.831  12.597  1.00  0.00    -0.360 N 
HETATM    4  H   UNL     1     -43.475 -53.901  11.602  1.00  0.00     0.162 HD
ENDROOT
BRANCH   3   5
HETATM    5  C   UNL     1     -45.037 -53.686  13.021  1.00  0.00     0.128 C 
BRANCH   5   6
HETATM    6  C   UNL     1     -45.547 -52.247  12.892  1.00  0.00     0.068 C 
BRANCH   6   7
HETATM    7  C   UNL     1     -45.599 -51.591  14.237  1.00  0.00     0.008 A 
HETATM    8  S   UNL     1     -46.964 -51.794  15.255  1.00  0.00    -0.080 SA
HETATM    9  C   UNL     1     -46.159 -50.930  16.496  1.00  0.00     0.047 A 
HETATM   10  C   UNL     1     -46.777 -50.782  17.841  1.00  0.00     0.076 C 
HETATM   11  N   UNL     1     -44.980 -50.447  16.172  1.00  0.00    -0.357 N 
HETATM   12  C   UNL     1     -44.647 -50.817  14.878  1.00  0.00     0.019 A 
ATOM     13  HN  UNL     1     -44.393 -49.880  16.785  1.00  0.00     0.166 HD
HETATM   14  C   UNL     1     -43.327 -50.392  14.340  1.00  0.00     0.069 C 
ENDBRANCH   6   7
ENDBRANCH   5   6
ENDBRANCH   3   5
BRANCH   1  15
HETATM   15  C   UNL     1     -41.235 -54.129  12.887  1.00  0.00     0.097 C 
HETATM   16  C   UNL     1     -40.137 -54.166  13.952  1.00  0.00     0.035 C 
HETATM   17  C   UNL     1     -39.630 -52.729  14.058  1.00  0.00     0.126 C 
HETATM   18  N   UNL     1     -40.208 -52.027  12.924  1.00  0.00    -0.352 N 
HETATM   19  C   UNL     1     -40.101 -50.658  12.809  1.00  0.00     0.215 C 
HETATM   20  C   UNL     1     -40.849 -52.952  12.002  1.00  0.00     0.139 C 
HETATM   21  C   UNL     1     -40.659 -50.028  11.561  1.00  0.00     0.117 C 
HETATM   22  O   UNL     1     -39.583 -49.972  13.688  1.00  0.00    -0.274 OA
ENDBRANCH   1  15
TORSDOF 4
ENDMDL
MODEL 9
REMARK VINA RESULT:      -5.4      1.868      2.821
REMARK  4 active torsions:
REMARK  status: ('A' for Active; 'I' for Inactive)
REMARK       I    between atoms: C_2  and  N_4 
REMARK    1  A    between atoms: C_7  and  C_9 
REMARK       I    between atoms: C_9  and  N_11 
REMARK    2  A    between atoms: N_11  and  C_12 
REMARK    3  A    between atoms: C_12  and  C_13 
REMARK    4  A    between atoms: C_13  and  C_14 
ROOT
HETATM    1  C   UNL     1     -44.586 -53.172  13.440  1.00  0.00     0.223 C 
HETATM    2  O   UNL     1     -43.921 -54.139  13.810  1.00  0.00    -0.273 OA
HETATM    3  N   UNL     1     -44.032 -52.103  12.778  1.00  0.00    -0.360 N 
HETATM    4  H   UNL     1     -44.615 -51.313  12.525  1.00  0.00     0.162 HD
ENDROOT
BRANCH   3   5
HETATM    5  C   UNL     1     -42.613 -52.012  12.501  1.00  0.00     0.128 C 
BRANCH   5   6
HETATM    6  C   UNL     1     -41.917 -50.927  13.329  1.00  0.00     0.068 C 
BRANCH   6   7
HETATM    7  C   UNL     1     -40.775 -50.338  12.562  1.00  0.00     0.008 A 
HETATM    8  S   UNL     1     -39.178 -50.921  12.789  1.00  0.00    -0.080 SA
HETATM    9  C   UNL     1     -38.633 -49.900  11.526  1.00  0.00     0.047 A 
HETATM   10  C   UNL     1     -37.219 -49.953  11.066  1.00  0.00     0.076 C 
HETATM   11  N   UNL     1     -39.547 -49.112  11.004  1.00  0.00    -0.357 N 
HETATM   12  C   UNL     1     -40.780 -49.351  11.591  1.00  0.00     0.019 A 
ATOM     13  HN  UNL     1     -39.373 -48.423  10.272  1.00  0.00     0.166 HD
HETATM   14  C   UNL     1     -41.954 -48.577  11.106  1.00  0.00     0.069 C 
ENDBRANCH   6   7
ENDBRANCH   5   6
ENDBRANCH   3   5
BRANCH   1  15
HETATM   15  C   UNL     1     -46.089 -53.108  13.677  1.00  0.00     0.097 C 
HETATM   16  C   UNL     1     -46.599 -51.670  13.798  1.00  0.00     0.035 C 
HETATM   17  C   UNL     1     -46.615 -51.373  15.296  1.00  0.00     0.126 C 
HETATM   18  N   UNL     1     -46.411 -52.655  15.950  1.00  0.00    -0.352 N 
HETATM   19  C   UNL     1     -46.192 -52.731  17.308  1.00  0.00     0.215 C 
HETATM   20  C   UNL     1     -46.489 -53.752  14.997  1.00  0.00     0.139 C 
HETATM   21  C   UNL     1     -46.071 -54.106  17.910  1.00  0.00     0.117 C 
HETATM   22  O   UNL     1     -46.087 -51.723  18.005  1.00  0.00    -0.274 OA
ENDBRANCH   1  15
TORSDOF 4
ENDMDL
