MODEL 1
REMARK VINA RESULT:      -5.7      0.000      0.000
REMARK  7 active torsions:
REMARK  status: ('A' for Active; 'I' for Inactive)
REMARK    1  A    between atoms: C_2  and  N_3 
REMARK    2  A    between atoms: N_3  and  C_4 
REMARK    3  A    between atoms: N_3  and  C_6 
REMARK    4  A    between atoms: C_6  and  C_8 
REMARK    5  A    between atoms: C_8  and  N_9 
REMARK       I    between atoms: N_9  and  C_10 
REMARK    6  A    between atoms: C_10  and  C_12 
REMARK    7  A    between atoms: C_18  and  N_19 
ROOT
HETATM    1  C   UNL     1     -40.267 -50.076  12.714  1.00  0.00     0.070 A 
HETATM    2  C   UNL     1     -39.200 -50.940  13.037  1.00  0.00     0.022 A 
HETATM    3  C   UNL     1     -37.961 -50.795  12.429  1.00  0.00     0.018 A 
HETATM    4  C   UNL     1     -37.834 -49.792  11.501  1.00  0.00     0.089 A 
HETATM    5  N   UNL     1     -38.818 -48.919  11.208  1.00  0.00    -0.356 N 
ATOM      6  HN  UNL     1     -38.658 -48.188  10.515  1.00  0.00     0.166 HD
HETATM    7  C   UNL     1     -40.030 -49.007  11.835  1.00  0.00     0.098 A 
ENDROOT
BRANCH   1   8
HETATM    8  C   UNL     1     -41.548 -50.398  13.399  1.00  0.00     0.254 C 
HETATM    9  N   UNL     1     -42.713 -50.459  12.644  1.00  0.00    -0.355 N 
HETATM   10  H   UNL     1     -42.655 -50.078  11.704  1.00  0.00     0.162 HD
HETATM   11  O   UNL     1     -41.524 -50.610  14.609  1.00  0.00    -0.268 OA
BRANCH   9  12
HETATM   12  C   UNL     1     -44.007 -50.505  13.337  1.00  0.00     0.158 C 
BRANCH  12  13
HETATM   13  C   UNL     1     -44.834 -51.818  13.154  1.00  0.00     0.236 C 
HETATM   14  C   UNL     1     -46.261 -51.551  13.677  1.00  0.00     0.044 C 
BRANCH  13  15
HETATM   15  N   UNL     1     -44.239 -53.020  13.838  1.00  0.00     0.093 N 
BRANCH  15  16
HETATM   16  C   UNL     1     -45.275 -53.860  14.487  1.00  0.00     0.268 C 
HETATM   17  C   UNL     1     -45.549 -55.220  13.842  1.00  0.00     0.037 C 
ENDBRANCH  15  16
BRANCH  15  18
HETATM   18  C   UNL     1     -43.341 -53.817  12.978  1.00  0.00     0.268 C 
HETATM   19  C   UNL     1     -41.963 -54.131  13.555  1.00  0.00     0.037 C 
ENDBRANCH  15  18
ENDBRANCH  13  15
ENDBRANCH  12  13
ENDBRANCH   9  12
ENDBRANCH   1   8
BRANCH   7  20
HETATM   20  N   UNL     1     -40.965 -48.000  11.507  1.00  0.00    -0.265 NA
HETATM   21  C   UNL     1     -40.431 -46.621  11.380  1.00  0.00     0.123 C 
HETATM   22  C   UNL     1     -41.612 -45.657  11.172  1.00  0.00     0.182 C 
HETATM   23  O   UNL     1     -42.322 -45.966   9.964  1.00  0.00    -0.389 OA
HETATM   24  C   UNL     1     -42.839 -47.305  10.021  1.00  0.00     0.182 C 
HETATM   25  C   UNL     1     -41.730 -48.338  10.264  1.00  0.00     0.123 C 
ENDBRANCH   7  20
TORSDOF 7
ENDMDL
MODEL 2
REMARK VINA RESULT:      -5.6      3.627      5.807
REMARK  7 active torsions:
REMARK  status: ('A' for Active; 'I' for Inactive)
REMARK    1  A    between atoms: C_2  and  N_3 
REMARK    2  A    between atoms: N_3  and  C_4 
REMARK    3  A    between atoms: N_3  and  C_6 
REMARK    4  A    between atoms: C_6  and  C_8 
REMARK    5  A    between atoms: C_8  and  N_9 
REMARK       I    between atoms: N_9  and  C_10 
REMARK    6  A    between atoms: C_10  and  C_12 
REMARK    7  A    between atoms: C_18  and  N_19 
ROOT
HETATM    1  C   UNL     1     -42.153 -55.190  15.701  1.00  0.00     0.070 A 
HETATM    2  C   UNL     1     -42.128 -56.231  16.652  1.00  0.00     0.022 A 
HETATM    3  C   UNL     1     -40.922 -56.743  17.110  1.00  0.00     0.018 A 
HETATM    4  C   UNL     1     -39.774 -56.203  16.587  1.00  0.00     0.089 A 
HETATM    5  N   UNL     1     -39.765 -55.174  15.717  1.00  0.00    -0.356 N 
ATOM      6  HN  UNL     1     -38.877 -54.810  15.372  1.00  0.00     0.166 HD
HETATM    7  C   UNL     1     -40.938 -54.615  15.293  1.00  0.00     0.098 A 
ENDROOT
BRANCH   1   8
HETATM    8  C   UNL     1     -43.518 -54.792  15.262  1.00  0.00     0.254 C 
HETATM    9  N   UNL     1     -43.960 -53.503  15.538  1.00  0.00    -0.355 N 
HETATM   10  H   UNL     1     -43.404 -52.975  16.203  1.00  0.00     0.162 HD
HETATM   11  O   UNL     1     -44.200 -55.617  14.659  1.00  0.00    -0.268 OA
BRANCH   9  12
HETATM   12  C   UNL     1     -45.381 -53.186  15.356  1.00  0.00     0.158 C 
BRANCH  12  13
HETATM   13  C   UNL     1     -45.721 -51.681  15.107  1.00  0.00     0.236 C 
HETATM   14  C   UNL     1     -47.133 -51.418  15.671  1.00  0.00     0.044 C 
BRANCH  13  15
HETATM   15  N   UNL     1     -45.645 -51.264  13.662  1.00  0.00     0.093 N 
BRANCH  15  16
HETATM   16  C   UNL     1     -44.288 -50.798  13.288  1.00  0.00     0.268 C 
HETATM   17  C   UNL     1     -43.510 -50.038  14.365  1.00  0.00     0.037 C 
ENDBRANCH  15  16
BRANCH  15  18
HETATM   18  C   UNL     1     -46.162 -52.275  12.717  1.00  0.00     0.268 C 
HETATM   19  C   UNL     1     -47.042 -51.749  11.586  1.00  0.00     0.037 C 
ENDBRANCH  15  18
ENDBRANCH  13  15
ENDBRANCH  12  13
ENDBRANCH   9  12
ENDBRANCH   1   8
BRANCH   7  20
HETATM   20  N   UNL     1     -40.813 -53.498  14.438  1.00  0.00    -0.265 NA
HETATM   21  C   UNL     1     -39.589 -52.675  14.604  1.00  0.00     0.123 C 
HETATM   22  C   UNL     1     -39.708 -51.435  13.701  1.00  0.00     0.182 C 
HETATM   23  O   UNL     1     -39.799 -51.811  12.320  1.00  0.00    -0.389 OA
HETATM   24  C   UNL     1     -40.955 -52.636  12.106  1.00  0.00     0.182 C 
HETATM   25  C   UNL     1     -40.942 -53.886  12.997  1.00  0.00     0.123 C 
ENDBRANCH   7  20
TORSDOF 7
ENDMDL
MODEL 3
REMARK VINA RESULT:      -5.6      1.579      4.009
REMARK  7 active torsions:
REMARK  status: ('A' for Active; 'I' for Inactive)
REMARK    1  A    between atoms: C_2  and  N_3 
REMARK    2  A    between atoms: N_3  and  C_4 
REMARK    3  A    between atoms: N_3  and  C_6 
REMARK    4  A    between atoms: C_6  and  C_8 
REMARK    5  A    between atoms: C_8  and  N_9 
REMARK       I    between atoms: N_9  and  C_10 
REMARK    6  A    between atoms: C_10  and  C_12 
REMARK    7  A    between atoms: C_18  and  N_19 
ROOT
HETATM    1  C   UNL     1     -41.676 -48.769  11.697  1.00  0.00     0.070 A 
HETATM    2  C   UNL     1     -42.441 -47.760  11.075  1.00  0.00     0.022 A 
HETATM    3  C   UNL     1     -41.835 -46.607  10.594  1.00  0.00     0.018 A 
HETATM    4  C   UNL     1     -40.478 -46.496  10.765  1.00  0.00     0.089 A 
HETATM    5  N   UNL     1     -39.714 -47.464  11.309  1.00  0.00    -0.356 N 
ATOM      6  HN  UNL     1     -38.707 -47.325  11.399  1.00  0.00     0.166 HD
HETATM    7  C   UNL     1     -40.279 -48.632  11.739  1.00  0.00     0.098 A 
ENDROOT
BRANCH   1   8
HETATM    8  C   UNL     1     -42.475 -49.912  12.217  1.00  0.00     0.254 C 
HETATM    9  N   UNL     1     -41.994 -51.203  12.029  1.00  0.00    -0.355 N 
HETATM   10  H   UNL     1     -41.229 -51.302  11.368  1.00  0.00     0.162 HD
HETATM   11  O   UNL     1     -43.526 -49.670  12.804  1.00  0.00    -0.268 OA
BRANCH   9  12
HETATM   12  C   UNL     1     -42.888 -52.338  12.290  1.00  0.00     0.158 C 
BRANCH  12  13
HETATM   13  C   UNL     1     -42.937 -52.845  13.767  1.00  0.00     0.236 C 
HETATM   14  C   UNL     1     -42.064 -54.113  13.859  1.00  0.00     0.044 C 
BRANCH  13  15
HETATM   15  N   UNL     1     -44.327 -53.125  14.275  1.00  0.00     0.093 N 
BRANCH  15  16
HETATM   16  C   UNL     1     -45.370 -52.621  13.349  1.00  0.00     0.268 C 
HETATM   17  C   UNL     1     -46.338 -51.580  13.918  1.00  0.00     0.037 C 
ENDBRANCH  15  16
BRANCH  15  18
HETATM   18  C   UNL     1     -44.556 -54.536  14.650  1.00  0.00     0.268 C 
HETATM   19  C   UNL     1     -45.601 -55.287  13.829  1.00  0.00     0.037 C 
ENDBRANCH  15  18
ENDBRANCH  13  15
ENDBRANCH  12  13
ENDBRANCH   9  12
ENDBRANCH   1   8
BRANCH   7  20
HETATM   20  N   UNL     1     -39.380 -49.607  12.225  1.00  0.00    -0.265 NA
HETATM   21  C   UNL     1     -38.048 -49.660  11.572  1.00  0.00     0.123 C 
HETATM   22  C   UNL     1     -37.278 -50.869  12.130  1.00  0.00     0.182 C 
HETATM   23  O   UNL     1     -37.068 -50.739  13.543  1.00  0.00    -0.389 OA
HETATM   24  C   UNL     1     -38.329 -50.655  14.226  1.00  0.00     0.182 C 
HETATM   25  C   UNL     1     -39.187 -49.492  13.706  1.00  0.00     0.123 C 
ENDBRANCH   7  20
TORSDOF 7
ENDMDL
MODEL 4
REMARK VINA RESULT:      -5.4      1.952      3.959
REMARK  7 active torsions:
REMARK  status: ('A' for Active; 'I' for Inactive)
REMARK    1  A    between atoms: C_2  and  N_3 
REMARK    2  A    between atoms: N_3  and  C_4 
REMARK    3  A    between atoms: N_3  and  C_6 
REMARK    4  A    between atoms: C_6  and  C_8 
REMARK    5  A    between atoms: C_8  and  N_9 
REMARK       I    between atoms: N_9  and  C_10 
REMARK    6  A    between atoms: C_10  and  C_12 
REMARK    7  A    between atoms: C_18  and  N_19 
ROOT
HETATM    1  C   UNL     1     -42.820 -48.528  11.872  1.00  0.00     0.070 A 
HETATM    2  C   UNL     1     -43.833 -47.955  11.075  1.00  0.00     0.022 A 
HETATM    3  C   UNL     1     -43.512 -47.131  10.006  1.00  0.00     0.018 A 
HETATM    4  C   UNL     1     -42.180 -46.894   9.776  1.00  0.00     0.089 A 
HETATM    5  N   UNL     1     -41.188 -47.467  10.487  1.00  0.00    -0.356 N 
ATOM      6  HN  UNL     1     -40.216 -47.259  10.261  1.00  0.00     0.166 HD
HETATM    7  C   UNL     1     -41.478 -48.326  11.511  1.00  0.00     0.098 A 
ENDROOT
BRANCH   1   8
HETATM    8  C   UNL     1     -43.322 -49.334  13.018  1.00  0.00     0.254 C 
HETATM    9  N   UNL     1     -43.950 -50.546  12.757  1.00  0.00    -0.355 N 
HETATM   10  H   UNL     1     -44.212 -50.713  11.791  1.00  0.00     0.162 HD
HETATM   11  O   UNL     1     -43.150 -48.901  14.155  1.00  0.00    -0.268 OA
BRANCH   9  12
HETATM   12  C   UNL     1     -44.682 -51.214  13.841  1.00  0.00     0.158 C 
BRANCH  12  13
HETATM   13  C   UNL     1     -45.700 -52.314  13.402  1.00  0.00     0.236 C 
HETATM   14  C   UNL     1     -46.626 -51.699  12.332  1.00  0.00     0.044 C 
BRANCH  13  15
HETATM   15  N   UNL     1     -46.513 -52.887  14.533  1.00  0.00     0.093 N 
BRANCH  15  16
HETATM   16  C   UNL     1     -46.341 -54.355  14.653  1.00  0.00     0.268 C 
HETATM   17  C   UNL     1     -45.266 -54.988  13.766  1.00  0.00     0.037 C 
ENDBRANCH  15  16
BRANCH  15  18
HETATM   18  C   UNL     1     -46.312 -52.199  15.825  1.00  0.00     0.268 C 
HETATM   19  C   UNL     1     -47.495 -51.385  16.343  1.00  0.00     0.037 C 
ENDBRANCH  15  18
ENDBRANCH  13  15
ENDBRANCH  12  13
ENDBRANCH   9  12
ENDBRANCH   1   8
BRANCH   7  20
HETATM   20  N   UNL     1     -40.366 -48.926  12.143  1.00  0.00    -0.265 NA
HETATM   21  C   UNL     1     -39.650 -49.969  11.366  1.00  0.00     0.123 C 
HETATM   22  C   UNL     1     -38.577 -50.601  12.270  1.00  0.00     0.182 C 
HETATM   23  O   UNL     1     -37.612 -49.623  12.685  1.00  0.00    -0.389 OA
HETATM   24  C   UNL     1     -38.257 -48.570  13.419  1.00  0.00     0.182 C 
HETATM   25  C   UNL     1     -39.374 -47.903  12.605  1.00  0.00     0.123 C 
ENDBRANCH   7  20
TORSDOF 7
ENDMDL
MODEL 5
REMARK VINA RESULT:      -5.4      2.407      5.791
REMARK  7 active torsions:
REMARK  status: ('A' for Active; 'I' for Inactive)
REMARK    1  A    between atoms: C_2  and  N_3 
REMARK    2  A    between atoms: N_3  and  C_4 
REMARK    3  A    between atoms: N_3  and  C_6 
REMARK    4  A    between atoms: C_6  and  C_8 
REMARK    5  A    between atoms: C_8  and  N_9 
REMARK       I    between atoms: N_9  and  C_10 
REMARK    6  A    between atoms: C_10  and  C_12 
REMARK    7  A    between atoms: C_18  and  N_19 
ROOT
HETATM    1  C   UNL     1     -42.118 -51.758  13.029  1.00  0.00     0.070 A 
HETATM    2  C   UNL     1     -42.826 -52.977  13.100  1.00  0.00     0.022 A 
HETATM    3  C   UNL     1     -42.158 -54.172  13.329  1.00  0.00     0.018 A 
HETATM    4  C   UNL     1     -40.795 -54.110  13.467  1.00  0.00     0.089 A 
HETATM    5  N   UNL     1     -40.097 -52.957  13.455  1.00  0.00    -0.356 N 
ATOM      6  HN  UNL     1     -39.084 -52.976  13.573  1.00  0.00     0.166 HD
HETATM    7  C   UNL     1     -40.738 -51.761  13.287  1.00  0.00     0.098 A 
ENDROOT
BRANCH   1   8
HETATM    8  C   UNL     1     -42.963 -50.575  12.714  1.00  0.00     0.254 C 
HETATM    9  N   UNL     1     -42.500 -49.653  11.782  1.00  0.00    -0.355 N 
HETATM   10  H   UNL     1     -41.522 -49.734  11.524  1.00  0.00     0.162 HD
HETATM   11  O   UNL     1     -44.046 -50.463  13.283  1.00  0.00    -0.268 OA
BRANCH   9  12
HETATM   12  C   UNL     1     -43.185 -48.359  11.663  1.00  0.00     0.158 C 
BRANCH  12  13
HETATM   13  C   UNL     1     -42.741 -47.458  10.467  1.00  0.00     0.236 C 
HETATM   14  C   UNL     1     -41.895 -46.300  11.038  1.00  0.00     0.044 C 
BRANCH  13  15
HETATM   15  N   UNL     1     -43.883 -46.919   9.646  1.00  0.00     0.093 N 
BRANCH  15  16
HETATM   16  C   UNL     1     -43.508 -46.741   8.222  1.00  0.00     0.268 C 
HETATM   17  C   UNL     1     -43.328 -48.020   7.401  1.00  0.00     0.037 C 
ENDBRANCH  15  16
BRANCH  15  18
HETATM   18  C   UNL     1     -45.141 -47.679   9.796  1.00  0.00     0.268 C 
HETATM   19  C   UNL     1     -46.388 -47.037   9.194  1.00  0.00     0.037 C 
ENDBRANCH  15  18
ENDBRANCH  13  15
ENDBRANCH  12  13
ENDBRANCH   9  12
ENDBRANCH   1   8
BRANCH   7  20
HETATM   20  N   UNL     1     -39.922 -50.610  13.363  1.00  0.00    -0.265 NA
HETATM   21  C   UNL     1     -39.218 -50.386  14.650  1.00  0.00     0.123 C 
HETATM   22  C   UNL     1     -38.510 -49.021  14.588  1.00  0.00     0.182 C 
HETATM   23  O   UNL     1     -37.529 -48.997  13.542  1.00  0.00    -0.389 OA
HETATM   24  C   UNL     1     -38.153 -49.238  12.271  1.00  0.00     0.182 C 
HETATM   25  C   UNL     1     -38.920 -50.569  12.251  1.00  0.00     0.123 C 
ENDBRANCH   7  20
TORSDOF 7
ENDMDL
MODEL 6
REMARK VINA RESULT:      -5.4      3.640      5.436
REMARK  7 active torsions:
REMARK  status: ('A' for Active; 'I' for Inactive)
REMARK    1  A    between atoms: C_2  and  N_3 
REMARK    2  A    between atoms: N_3  and  C_4 
REMARK    3  A    between atoms: N_3  and  C_6 
REMARK    4  A    between atoms: C_6  and  C_8 
REMARK    5  A    between atoms: C_8  and  N_9 
REMARK       I    between atoms: N_9  and  C_10 
REMARK    6  A    between atoms: C_10  and  C_12 
REMARK    7  A    between atoms: C_18  and  N_19 
ROOT
HETATM    1  C   UNL     1     -41.147 -55.117  16.035  1.00  0.00     0.070 A 
HETATM    2  C   UNL     1     -40.411 -56.003  16.850  1.00  0.00     0.022 A 
HETATM    3  C   UNL     1     -39.041 -56.149  16.681  1.00  0.00     0.018 A 
HETATM    4  C   UNL     1     -38.452 -55.409  15.686  1.00  0.00     0.089 A 
HETATM    5  N   UNL     1     -39.119 -54.518  14.926  1.00  0.00    -0.356 N 
ATOM      6  HN  UNL     1     -38.621 -53.991  14.209  1.00  0.00     0.166 HD
HETATM    7  C   UNL     1     -40.458 -54.316  15.111  1.00  0.00     0.098 A 
ENDROOT
BRANCH   1   8
HETATM    8  C   UNL     1     -42.612 -55.119  16.294  1.00  0.00     0.254 C 
HETATM    9  N   UNL     1     -43.417 -54.238  15.581  1.00  0.00    -0.355 N 
HETATM   10  H   UNL     1     -42.934 -53.503  15.075  1.00  0.00     0.162 HD
HETATM   11  O   UNL     1     -43.057 -55.909  17.123  1.00  0.00    -0.268 OA
BRANCH   9  12
HETATM   12  C   UNL     1     -44.806 -54.038  16.012  1.00  0.00     0.158 C 
BRANCH  12  13
HETATM   13  C   UNL     1     -45.891 -54.128  14.891  1.00  0.00     0.236 C 
HETATM   14  C   UNL     1     -45.300 -54.955  13.730  1.00  0.00     0.044 C 
BRANCH  13  15
HETATM   15  N   UNL     1     -46.373 -52.791  14.393  1.00  0.00     0.093 N 
BRANCH  15  16
HETATM   16  C   UNL     1     -46.270 -51.740  15.433  1.00  0.00     0.268 C 
HETATM   17  C   UNL     1     -47.555 -51.412  16.198  1.00  0.00     0.037 C 
ENDBRANCH  15  16
BRANCH  15  18
HETATM   18  C   UNL     1     -45.759 -52.369  13.117  1.00  0.00     0.268 C 
HETATM   19  C   UNL     1     -46.714 -51.806  12.067  1.00  0.00     0.037 C 
ENDBRANCH  15  18
ENDBRANCH  13  15
ENDBRANCH  12  13
ENDBRANCH   9  12
ENDBRANCH   1   8
BRANCH   7  20
HETATM   20  N   UNL     1     -41.043 -53.309  14.312  1.00  0.00    -0.265 NA
HETATM   21  C   UNL     1     -40.615 -51.915  14.590  1.00  0.00     0.123 C 
HETATM   22  C   UNL     1     -41.465 -50.963  13.731  1.00  0.00     0.182 C 
HETATM   23  O   UNL     1     -41.264 -51.212  12.333  1.00  0.00    -0.389 OA
HETATM   24  C   UNL     1     -41.636 -52.562  12.011  1.00  0.00     0.182 C 
HETATM   25  C   UNL     1     -40.861 -53.587  12.851  1.00  0.00     0.123 C 
ENDBRANCH   7  20
TORSDOF 7
ENDMDL
MODEL 7
REMARK VINA RESULT:      -5.3      1.679      2.468
REMARK  7 active torsions:
REMARK  status: ('A' for Active; 'I' for Inactive)
REMARK    1  A    between atoms: C_2  and  N_3 
REMARK    2  A    between atoms: N_3  and  C_4 
REMARK    3  A    between atoms: N_3  and  C_6 
REMARK    4  A    between atoms: C_6  and  C_8 
REMARK    5  A    between atoms: C_8  and  N_9 
REMARK       I    between atoms: N_9  and  C_10 
REMARK    6  A    between atoms: C_10  and  C_12 
REMARK    7  A    between atoms: C_18  and  N_19 
ROOT
HETATM    1  C   UNL     1     -39.887 -50.750  12.687  1.00  0.00     0.070 A 
HETATM    2  C   UNL     1     -38.658 -51.213  13.203  1.00  0.00     0.022 A 
HETATM    3  C   UNL     1     -37.615 -50.330  13.449  1.00  0.00     0.018 A 
HETATM    4  C   UNL     1     -37.833 -49.008  13.154  1.00  0.00     0.089 A 
HETATM    5  N   UNL     1     -39.011 -48.528  12.709  1.00  0.00    -0.356 N 
ATOM      6  HN  UNL     1     -39.113 -47.531  12.517  1.00  0.00     0.166 HD
HETATM    7  C   UNL     1     -40.071 -49.369  12.512  1.00  0.00     0.098 A 
ENDROOT
BRANCH   1   8
HETATM    8  C   UNL     1     -40.882 -51.822  12.417  1.00  0.00     0.254 C 
HETATM    9  N   UNL     1     -42.232 -51.543  12.604  1.00  0.00    -0.355 N 
HETATM   10  H   UNL     1     -42.444 -50.689  13.110  1.00  0.00     0.162 HD
HETATM   11  O   UNL     1     -40.474 -52.913  12.027  1.00  0.00    -0.268 OA
BRANCH   9  12
HETATM   12  C   UNL     1     -43.192 -52.653  12.605  1.00  0.00     0.158 C 
BRANCH  12  13
HETATM   13  C   UNL     1     -43.983 -52.872  13.935  1.00  0.00     0.236 C 
HETATM   14  C   UNL     1     -43.969 -54.383  14.247  1.00  0.00     0.044 C 
BRANCH  13  15
HETATM   15  N   UNL     1     -45.398 -52.356  13.902  1.00  0.00     0.093 N 
BRANCH  15  16
HETATM   16  C   UNL     1     -46.091 -52.713  12.641  1.00  0.00     0.268 C 
HETATM   17  C   UNL     1     -46.849 -51.584  11.938  1.00  0.00     0.037 C 
ENDBRANCH  15  16
BRANCH  15  18
HETATM   18  C   UNL     1     -46.195 -52.713  15.092  1.00  0.00     0.268 C 
HETATM   19  C   UNL     1     -47.128 -51.628  15.626  1.00  0.00     0.037 C 
ENDBRANCH  15  18
ENDBRANCH  13  15
ENDBRANCH  12  13
ENDBRANCH   9  12
ENDBRANCH   1   8
BRANCH   7  20
HETATM   20  N   UNL     1     -41.278 -48.753  12.113  1.00  0.00    -0.265 NA
HETATM   21  C   UNL     1     -41.699 -47.561  12.892  1.00  0.00     0.123 C 
HETATM   22  C   UNL     1     -43.094 -47.130  12.409  1.00  0.00     0.182 C 
HETATM   23  O   UNL     1     -43.068 -46.761  11.023  1.00  0.00    -0.389 OA
HETATM   24  C   UNL     1     -42.639 -47.873  10.221  1.00  0.00     0.182 C 
HETATM   25  C   UNL     1     -41.263 -48.398  10.658  1.00  0.00     0.123 C 
ENDBRANCH   7  20
TORSDOF 7
ENDMDL
MODEL 8
REMARK VINA RESULT:      -5.2      2.157      7.101
REMARK  7 active torsions:
REMARK  status: ('A' for Active; 'I' for Inactive)
REMARK    1  A    between atoms: C_2  and  N_3 
REMARK    2  A    between atoms: N_3  and  C_4 
REMARK    3  A    between atoms: N_3  and  C_6 
REMARK    4  A    between atoms: C_6  and  C_8 
REMARK    5  A    between atoms: C_8  and  N_9 
REMARK       I    between atoms: N_9  and  C_10 
REMARK    6  A    between atoms: C_10  and  C_12 
REMARK    7  A    between atoms: C_18  and  N_19 
ROOT
HETATM    1  C   UNL     1     -44.591 -51.499  14.036  1.00  0.00     0.070 A 
HETATM    2  C   UNL     1     -45.983 -51.419  14.251  1.00  0.00     0.022 A 
HETATM    3  C   UNL     1     -46.744 -52.570  14.400  1.00  0.00     0.018 A 
HETATM    4  C   UNL     1     -46.085 -53.771  14.315  1.00  0.00     0.089 A 
HETATM    5  N   UNL     1     -44.751 -53.879  14.162  1.00  0.00    -0.356 N 
ATOM      6  HN  UNL     1     -44.319 -54.802  14.115  1.00  0.00     0.166 HD
HETATM    7  C   UNL     1     -43.972 -52.759  14.068  1.00  0.00     0.098 A 
ENDROOT
BRANCH   1   8
HETATM    8  C   UNL     1     -43.924 -50.185  13.831  1.00  0.00     0.254 C 
HETATM    9  N   UNL     1     -43.772 -49.708  12.534  1.00  0.00    -0.355 N 
HETATM   10  H   UNL     1     -43.939 -50.379  11.791  1.00  0.00     0.162 HD
HETATM   11  O   UNL     1     -43.543 -49.563  14.820  1.00  0.00    -0.268 OA
BRANCH   9  12
HETATM   12  C   UNL     1     -42.887 -48.560  12.299  1.00  0.00     0.158 C 
BRANCH  12  13
HETATM   13  C   UNL     1     -41.884 -48.701  11.110  1.00  0.00     0.236 C 
HETATM   14  C   UNL     1     -40.475 -48.903  11.704  1.00  0.00     0.044 C 
BRANCH  13  15
HETATM   15  N   UNL     1     -41.891 -47.534  10.158  1.00  0.00     0.093 N 
BRANCH  15  16
HETATM   16  C   UNL     1     -43.076 -47.550   9.267  1.00  0.00     0.268 C 
HETATM   17  C   UNL     1     -43.666 -46.187   8.895  1.00  0.00     0.037 C 
ENDBRANCH  15  16
BRANCH  15  18
HETATM   18  C   UNL     1     -41.710 -46.223  10.814  1.00  0.00     0.268 C 
HETATM   19  C   UNL     1     -40.416 -45.481  10.486  1.00  0.00     0.037 C 
ENDBRANCH  15  18
ENDBRANCH  13  15
ENDBRANCH  12  13
ENDBRANCH   9  12
ENDBRANCH   1   8
BRANCH   7  20
HETATM   20  N   UNL     1     -42.580 -52.985  13.982  1.00  0.00    -0.265 NA
HETATM   21  C   UNL     1     -42.086 -54.273  14.530  1.00  0.00     0.123 C 
HETATM   22  C   UNL     1     -40.548 -54.266  14.482  1.00  0.00     0.182 C 
HETATM   23  O   UNL     1     -40.075 -54.154  13.132  1.00  0.00    -0.389 OA
HETATM   24  C   UNL     1     -40.549 -52.934  12.541  1.00  0.00     0.182 C 
HETATM   25  C   UNL     1     -42.081 -52.834  12.578  1.00  0.00     0.123 C 
ENDBRANCH   7  20
TORSDOF 7
ENDMDL
MODEL 9
REMARK VINA RESULT:      -5.0      1.934      2.638
REMARK  7 active torsions:
REMARK  status: ('A' for Active; 'I' for Inactive)
REMARK    1  A    between atoms: C_2  and  N_3 
REMARK    2  A    between atoms: N_3  and  C_4 
REMARK    3  A    between atoms: N_3  and  C_6 
REMARK    4  A    between atoms: C_6  and  C_8 
REMARK    5  A    between atoms: C_8  and  N_9 
REMARK       I    between atoms: N_9  and  C_10 
REMARK    6  A    between atoms: C_10  and  C_12 
REMARK    7  A    between atoms: C_18  and  N_19 
ROOT
HETATM    1  C   UNL     1     -38.987 -49.521  13.378  1.00  0.00     0.070 A 
HETATM    2  C   UNL     1     -37.901 -49.807  14.232  1.00  0.00     0.022 A 
HETATM    3  C   UNL     1     -37.200 -48.783  14.854  1.00  0.00     0.018 A 
HETATM    4  C   UNL     1     -37.602 -47.498  14.588  1.00  0.00     0.089 A 
HETATM    5  N   UNL     1     -38.667 -47.196  13.819  1.00  0.00    -0.356 N 
ATOM      6  HN  UNL     1     -38.921 -46.220  13.667  1.00  0.00     0.166 HD
HETATM    7  C   UNL     1     -39.407 -48.188  13.240  1.00  0.00     0.098 A 
ENDROOT
BRANCH   1   8
HETATM    8  C   UNL     1     -39.595 -50.717  12.736  1.00  0.00     0.254 C 
HETATM    9  N   UNL     1     -40.962 -50.718  12.483  1.00  0.00    -0.355 N 
HETATM   10  H   UNL     1     -41.499 -49.985  12.937  1.00  0.00     0.162 HD
HETATM   11  O   UNL     1     -38.861 -51.658  12.443  1.00  0.00    -0.268 OA
BRANCH   9  12
HETATM   12  C   UNL     1     -41.614 -51.978  12.106  1.00  0.00     0.158 C 
BRANCH  12  13
HETATM   13  C   UNL     1     -42.186 -52.831  13.283  1.00  0.00     0.236 C 
HETATM   14  C   UNL     1     -41.356 -54.129  13.370  1.00  0.00     0.044 C 
BRANCH  13  15
HETATM   15  N   UNL     1     -43.652 -53.152  13.154  1.00  0.00     0.093 N 
BRANCH  15  16
HETATM   16  C   UNL     1     -44.091 -54.154  14.154  1.00  0.00     0.268 C 
HETATM   17  C   UNL     1     -45.271 -55.043  13.752  1.00  0.00     0.037 C 
ENDBRANCH  15  16
BRANCH  15  18
HETATM   18  C   UNL     1     -44.528 -51.963  13.141  1.00  0.00     0.268 C 
HETATM   19  C   UNL     1     -44.419 -51.036  14.349  1.00  0.00     0.037 C 
ENDBRANCH  15  18
ENDBRANCH  13  15
ENDBRANCH  12  13
ENDBRANCH   9  12
ENDBRANCH   1   8
BRANCH   7  20
HETATM   20  N   UNL     1     -40.542 -47.764  12.513  1.00  0.00    -0.265 NA
HETATM   21  C   UNL     1     -41.663 -47.205  13.309  1.00  0.00     0.123 C 
HETATM   22  C   UNL     1     -42.849 -46.944  12.366  1.00  0.00     0.182 C 
HETATM   23  O   UNL     1     -42.505 -45.983  11.358  1.00  0.00    -0.389 OA
HETATM   24  C   UNL     1     -41.402 -46.462  10.572  1.00  0.00     0.182 C 
HETATM   25  C   UNL     1     -40.177 -46.786  11.439  1.00  0.00     0.123 C 
ENDBRANCH   7  20
TORSDOF 7
ENDMDL
