MODEL 1
REMARK VINA RESULT:      -5.7      0.000      0.000
REMARK  8 active torsions:
REMARK  status: ('A' for Active; 'I' for Inactive)
REMARK    1  A    between atoms: O_1  and  C_2 
REMARK    2  A    between atoms: C_2  and  C_3 
REMARK    3  A    between atoms: C_2  and  C_13 
REMARK    4  A    between atoms: C_3  and  N_4 
REMARK    5  A    between atoms: N_4  and  C_5 
REMARK    6  A    between atoms: C_5  and  C_6 
REMARK    7  A    between atoms: C_6  and  N_7 
REMARK    8  A    between atoms: C_13  and  N_14 
ROOT
HETATM    1  C   UNL     1     -40.676 -51.142  12.275  1.00  0.00     0.302 C 
ENDROOT
BRANCH   1   2
HETATM    2  C   UNL     1     -41.184 -52.594  12.441  1.00  0.00     0.174 C 
BRANCH   2   3
HETATM    3  O   UNL     1     -40.608 -53.336  11.352  1.00  0.00    -0.392 OA
HETATM    4  H   UNL     1     -40.236 -52.691  10.728  1.00  0.00     0.210 HD
ENDBRANCH   2   3
BRANCH   2   5
HETATM    5  C   UNL     1     -42.734 -52.676  12.393  1.00  0.00     0.305 C 
BRANCH   5   6
HETATM    6  N   UNL     1     -43.413 -52.565  13.709  1.00  0.00     0.095 N 
HETATM    7  C   UNL     1     -42.751 -53.334  14.790  1.00  0.00     0.298 C 
HETATM    8  C   UNL     1     -42.925 -54.861  14.687  1.00  0.00     0.198 C 
HETATM    9  O   UNL     1     -44.311 -55.225  14.632  1.00  0.00    -0.388 OA
HETATM   10  C   UNL     1     -44.965 -54.569  13.541  1.00  0.00     0.198 C 
HETATM   11  C   UNL     1     -44.816 -53.039  13.630  1.00  0.00     0.298 C 
ENDBRANCH   5   6
ENDBRANCH   2   5
ENDBRANCH   1   2
BRANCH   1  12
HETATM   12  N   UNL     1     -40.792 -50.563  10.931  1.00  0.00     0.087 N 
HETATM   13  H   UNL     1     -41.666 -50.881  10.505  1.00  0.00     0.316 HD
BRANCH  12  14
HETATM   14  C   UNL     1     -40.813 -49.081  10.988  1.00  0.00     0.291 C 
BRANCH  14  15
HETATM   15  C   UNL     1     -42.210 -48.489  11.198  1.00  0.00     0.178 C 
BRANCH  15  16
HETATM   16  N   UNL     1     -42.673 -47.682  10.086  1.00  0.00    -0.302 N 
HETATM   17  C   UNL     1     -43.217 -46.432  10.158  1.00  0.00     0.111 A 
HETATM   18  C   UNL     1     -43.689 -46.149   8.898  1.00  0.00     0.037 A 
HETATM   19  C   UNL     1     -43.376 -47.289   8.137  1.00  0.00     0.108 A 
HETATM   20  N   UNL     1     -42.752 -48.225   8.854  1.00  0.00    -0.310 N 
ATOM     21  HN  UNL     1     -42.415 -49.136   8.544  1.00  0.00     0.186 HD
ENDBRANCH  15  16
ENDBRANCH  14  15
ENDBRANCH  12  14
ENDBRANCH   1  12
TORSDOF 8
ENDMDL
MODEL 2
REMARK VINA RESULT:      -5.5      2.242      3.515
REMARK  8 active torsions:
REMARK  status: ('A' for Active; 'I' for Inactive)
REMARK    1  A    between atoms: O_1  and  C_2 
REMARK    2  A    between atoms: C_2  and  C_3 
REMARK    3  A    between atoms: C_2  and  C_13 
REMARK    4  A    between atoms: C_3  and  N_4 
REMARK    5  A    between atoms: N_4  and  C_5 
REMARK    6  A    between atoms: C_5  and  C_6 
REMARK    7  A    between atoms: C_6  and  N_7 
REMARK    8  A    between atoms: C_13  and  N_14 
ROOT
HETATM    1  C   UNL     1     -42.042 -48.494  11.025  1.00  0.00     0.302 C 
ENDROOT
BRANCH   1   2
HETATM    2  C   UNL     1     -40.925 -49.459  11.489  1.00  0.00     0.174 C 
BRANCH   2   3
HETATM    3  O   UNL     1     -40.357 -50.006  10.288  1.00  0.00    -0.392 OA
HETATM    4  H   UNL     1     -40.243 -49.271   9.661  1.00  0.00     0.210 HD
ENDBRANCH   2   3
BRANCH   2   5
HETATM    5  C   UNL     1     -41.479 -50.594  12.393  1.00  0.00     0.305 C 
BRANCH   5   6
HETATM    6  N   UNL     1     -40.712 -51.865  12.351  1.00  0.00     0.095 N 
HETATM    7  C   UNL     1     -41.539 -53.070  12.606  1.00  0.00     0.298 C 
HETATM    8  C   UNL     1     -41.985 -53.241  14.070  1.00  0.00     0.198 C 
HETATM    9  O   UNL     1     -40.861 -53.245  14.961  1.00  0.00    -0.388 OA
HETATM   10  C   UNL     1     -40.087 -52.051  14.806  1.00  0.00     0.198 C 
HETATM   11  C   UNL     1     -39.618 -51.866  13.351  1.00  0.00     0.298 C 
ENDBRANCH   5   6
ENDBRANCH   2   5
ENDBRANCH   1   2
BRANCH   1  12
HETATM   12  N   UNL     1     -41.685 -47.551   9.958  1.00  0.00     0.087 N 
HETATM   13  H   UNL     1     -41.304 -48.073   9.166  1.00  0.00     0.316 HD
BRANCH  12  14
HETATM   14  C   UNL     1     -42.873 -46.796   9.493  1.00  0.00     0.291 C 
BRANCH  14  15
HETATM   15  C   UNL     1     -43.461 -47.315   8.177  1.00  0.00     0.178 C 
BRANCH  15  16
HETATM   16  N   UNL     1     -44.832 -47.772   8.293  1.00  0.00    -0.302 N 
HETATM   17  C   UNL     1     -45.639 -47.654   9.388  1.00  0.00     0.111 A 
HETATM   18  C   UNL     1     -46.762 -48.400   9.116  1.00  0.00     0.037 A 
HETATM   19  C   UNL     1     -46.538 -48.923   7.830  1.00  0.00     0.108 A 
HETATM   20  N   UNL     1     -45.365 -48.540   7.322  1.00  0.00    -0.310 N 
ATOM     21  HN  UNL     1     -44.966 -48.774   6.413  1.00  0.00     0.186 HD
ENDBRANCH  15  16
ENDBRANCH  14  15
ENDBRANCH  12  14
ENDBRANCH   1  12
TORSDOF 8
ENDMDL
MODEL 3
REMARK VINA RESULT:      -5.4      1.564      1.861
REMARK  8 active torsions:
REMARK  status: ('A' for Active; 'I' for Inactive)
REMARK    1  A    between atoms: O_1  and  C_2 
REMARK    2  A    between atoms: C_2  and  C_3 
REMARK    3  A    between atoms: C_2  and  C_13 
REMARK    4  A    between atoms: C_3  and  N_4 
REMARK    5  A    between atoms: N_4  and  C_5 
REMARK    6  A    between atoms: C_5  and  C_6 
REMARK    7  A    between atoms: C_6  and  N_7 
REMARK    8  A    between atoms: C_13  and  N_14 
ROOT
HETATM    1  C   UNL     1     -41.527 -51.483  12.250  1.00  0.00     0.302 C 
ENDROOT
BRANCH   1   2
HETATM    2  C   UNL     1     -41.067 -52.917  12.605  1.00  0.00     0.174 C 
BRANCH   2   3
HETATM    3  O   UNL     1     -40.566 -53.481  11.381  1.00  0.00    -0.392 OA
HETATM    4  H   UNL     1     -41.324 -53.587  10.781  1.00  0.00     0.210 HD
ENDBRANCH   2   3
BRANCH   2   5
HETATM    5  C   UNL     1     -42.233 -53.778  13.162  1.00  0.00     0.305 C 
BRANCH   5   6
HETATM    6  N   UNL     1     -43.445 -53.019  13.561  1.00  0.00     0.095 N 
HETATM    7  C   UNL     1     -43.635 -52.926  15.028  1.00  0.00     0.298 C 
HETATM    8  C   UNL     1     -44.082 -54.238  15.700  1.00  0.00     0.198 C 
HETATM    9  O   UNL     1     -45.282 -54.747  15.103  1.00  0.00    -0.388 OA
HETATM   10  C   UNL     1     -45.106 -54.936  13.694  1.00  0.00     0.198 C 
HETATM   11  C   UNL     1     -44.672 -53.633  12.999  1.00  0.00     0.298 C 
ENDBRANCH   5   6
ENDBRANCH   2   5
ENDBRANCH   1   2
BRANCH   1  12
HETATM   12  N   UNL     1     -40.866 -50.853  11.100  1.00  0.00     0.087 N 
HETATM   13  H   UNL     1     -41.485 -50.909  10.288  1.00  0.00     0.316 HD
BRANCH  12  14
HETATM   14  C   UNL     1     -40.575 -49.424  11.369  1.00  0.00     0.291 C 
BRANCH  14  15
HETATM   15  C   UNL     1     -41.532 -48.455  10.668  1.00  0.00     0.178 C 
BRANCH  15  16
HETATM   16  N   UNL     1     -41.190 -47.059  10.861  1.00  0.00    -0.302 N 
HETATM   17  C   UNL     1     -42.027 -46.068  11.287  1.00  0.00     0.111 A 
HETATM   18  C   UNL     1     -41.336 -44.891  11.125  1.00  0.00     0.037 A 
HETATM   19  C   UNL     1     -40.090 -45.278  10.602  1.00  0.00     0.108 A 
HETATM   20  N   UNL     1     -39.994 -46.600  10.442  1.00  0.00    -0.310 N 
ATOM     21  HN  UNL     1     -39.202 -47.135  10.088  1.00  0.00     0.186 HD
ENDBRANCH  15  16
ENDBRANCH  14  15
ENDBRANCH  12  14
ENDBRANCH   1  12
TORSDOF 8
ENDMDL
MODEL 4
REMARK VINA RESULT:      -5.1      1.825      2.659
REMARK  8 active torsions:
REMARK  status: ('A' for Active; 'I' for Inactive)
REMARK    1  A    between atoms: O_1  and  C_2 
REMARK    2  A    between atoms: C_2  and  C_3 
REMARK    3  A    between atoms: C_2  and  C_13 
REMARK    4  A    between atoms: C_3  and  N_4 
REMARK    5  A    between atoms: N_4  and  C_5 
REMARK    6  A    between atoms: C_5  and  C_6 
REMARK    7  A    between atoms: C_6  and  N_7 
REMARK    8  A    between atoms: C_13  and  N_14 
ROOT
HETATM    1  C   UNL     1     -39.643 -48.784  12.168  1.00  0.00     0.302 C 
ENDROOT
BRANCH   1   2
HETATM    2  C   UNL     1     -40.118 -50.141  11.597  1.00  0.00     0.174 C 
BRANCH   2   3
HETATM    3  O   UNL     1     -40.349 -49.915  10.196  1.00  0.00    -0.392 OA
HETATM    4  H   UNL     1     -41.118 -50.452   9.940  1.00  0.00     0.210 HD
ENDBRANCH   2   3
BRANCH   2   5
HETATM    5  C   UNL     1     -41.418 -50.637  12.287  1.00  0.00     0.305 C 
BRANCH   5   6
HETATM    6  N   UNL     1     -41.809 -52.034  11.968  1.00  0.00     0.095 N 
HETATM    7  C   UNL     1     -43.063 -52.469  12.629  1.00  0.00     0.298 C 
HETATM    8  C   UNL     1     -42.935 -52.718  14.143  1.00  0.00     0.198 C 
HETATM    9  O   UNL     1     -41.899 -53.667  14.430  1.00  0.00    -0.388 OA
HETATM   10  C   UNL     1     -40.649 -53.234  13.883  1.00  0.00     0.198 C 
HETATM   11  C   UNL     1     -40.750 -52.992  12.366  1.00  0.00     0.298 C 
ENDBRANCH   5   6
ENDBRANCH   2   5
ENDBRANCH   1   2
BRANCH   1  12
HETATM   12  N   UNL     1     -39.692 -47.638  11.251  1.00  0.00     0.087 N 
HETATM   13  H   UNL     1     -39.820 -47.982  10.296  1.00  0.00     0.316 HD
BRANCH  12  14
HETATM   14  C   UNL     1     -40.824 -46.739  11.580  1.00  0.00     0.291 C 
BRANCH  14  15
HETATM   15  C   UNL     1     -41.198 -45.775  10.449  1.00  0.00     0.178 C 
BRANCH  15  16
HETATM   16  N   UNL     1     -42.356 -46.198   9.684  1.00  0.00    -0.302 N 
HETATM   17  C   UNL     1     -43.484 -45.468   9.446  1.00  0.00     0.111 A 
HETATM   18  C   UNL     1     -44.381 -46.332   8.863  1.00  0.00     0.037 A 
HETATM   19  C   UNL     1     -43.696 -47.557   8.788  1.00  0.00     0.108 A 
HETATM   20  N   UNL     1     -42.459 -47.481   9.283  1.00  0.00    -0.310 N 
ATOM     21  HN  UNL     1     -41.758 -48.219   9.343  1.00  0.00     0.186 HD
ENDBRANCH  15  16
ENDBRANCH  14  15
ENDBRANCH  12  14
ENDBRANCH   1  12
TORSDOF 8
ENDMDL
MODEL 5
REMARK VINA RESULT:      -5.1      3.846      5.112
REMARK  8 active torsions:
REMARK  status: ('A' for Active; 'I' for Inactive)
REMARK    1  A    between atoms: O_1  and  C_2 
REMARK    2  A    between atoms: C_2  and  C_3 
REMARK    3  A    between atoms: C_2  and  C_13 
REMARK    4  A    between atoms: C_3  and  N_4 
REMARK    5  A    between atoms: N_4  and  C_5 
REMARK    6  A    between atoms: C_5  and  C_6 
REMARK    7  A    between atoms: C_6  and  N_7 
REMARK    8  A    between atoms: C_13  and  N_14 
ROOT
HETATM    1  C   UNL     1     -41.335 -48.647  11.176  1.00  0.00     0.302 C 
ENDROOT
BRANCH   1   2
HETATM    2  C   UNL     1     -40.246 -49.737  11.032  1.00  0.00     0.174 C 
BRANCH   2   3
HETATM    3  O   UNL     1     -40.937 -50.994  11.124  1.00  0.00    -0.392 OA
HETATM    4  H   UNL     1     -41.384 -51.140  10.273  1.00  0.00     0.210 HD
ENDBRANCH   2   3
BRANCH   2   5
HETATM    5  C   UNL     1     -39.167 -49.628  12.144  1.00  0.00     0.305 C 
BRANCH   5   6
HETATM    6  N   UNL     1     -39.628 -49.007  13.412  1.00  0.00     0.095 N 
HETATM    7  C   UNL     1     -38.899 -47.766  13.769  1.00  0.00     0.298 C 
HETATM    8  C   UNL     1     -37.455 -47.989  14.256  1.00  0.00     0.198 C 
HETATM    9  O   UNL     1     -37.414 -48.894  15.367  1.00  0.00    -0.388 OA
HETATM   10  C   UNL     1     -38.031 -50.141  15.030  1.00  0.00     0.198 C 
HETATM   11  C   UNL     1     -39.481 -49.943  14.553  1.00  0.00     0.298 C 
ENDBRANCH   5   6
ENDBRANCH   2   5
ENDBRANCH   1   2
BRANCH   1  12
HETATM   12  N   UNL     1     -42.323 -48.568  10.093  1.00  0.00     0.087 N 
HETATM   13  H   UNL     1     -43.104 -49.192  10.309  1.00  0.00     0.316 HD
BRANCH  12  14
HETATM   14  C   UNL     1     -42.851 -47.190   9.952  1.00  0.00     0.291 C 
BRANCH  14  15
HETATM   15  C   UNL     1     -43.535 -46.923   8.607  1.00  0.00     0.178 C 
BRANCH  15  16
HETATM   16  N   UNL     1     -44.881 -47.454   8.523  1.00  0.00    -0.302 N 
HETATM   17  C   UNL     1     -45.922 -47.168   9.359  1.00  0.00     0.111 A 
HETATM   18  C   UNL     1     -46.928 -48.044   9.027  1.00  0.00     0.037 A 
HETATM   19  C   UNL     1     -46.399 -48.812   7.976  1.00  0.00     0.108 A 
HETATM   20  N   UNL     1     -45.153 -48.454   7.661  1.00  0.00    -0.310 N 
ATOM     21  HN  UNL     1     -44.548 -48.845   6.938  1.00  0.00     0.186 HD
ENDBRANCH  15  16
ENDBRANCH  14  15
ENDBRANCH  12  14
ENDBRANCH   1  12
TORSDOF 8
ENDMDL
MODEL 6
REMARK VINA RESULT:      -4.9      3.203      7.797
REMARK  8 active torsions:
REMARK  status: ('A' for Active; 'I' for Inactive)
REMARK    1  A    between atoms: O_1  and  C_2 
REMARK    2  A    between atoms: C_2  and  C_3 
REMARK    3  A    between atoms: C_2  and  C_13 
REMARK    4  A    between atoms: C_3  and  N_4 
REMARK    5  A    between atoms: N_4  and  C_5 
REMARK    6  A    between atoms: C_5  and  C_6 
REMARK    7  A    between atoms: C_6  and  N_7 
REMARK    8  A    between atoms: C_13  and  N_14 
ROOT
HETATM    1  C   UNL     1     -40.383 -49.620  11.389  1.00  0.00     0.302 C 
ENDROOT
BRANCH   1   2
HETATM    2  C   UNL     1     -41.445 -48.550  11.041  1.00  0.00     0.174 C 
BRANCH   2   3
HETATM    3  O   UNL     1     -41.607 -48.611   9.614  1.00  0.00    -0.392 OA
HETATM    4  H   UNL     1     -41.999 -49.476   9.404  1.00  0.00     0.210 HD
ENDBRANCH   2   3
BRANCH   2   5
HETATM    5  C   UNL     1     -40.998 -47.127  11.475  1.00  0.00     0.305 C 
BRANCH   5   6
HETATM    6  N   UNL     1     -41.158 -46.072  10.443  1.00  0.00     0.095 N 
HETATM    7  C   UNL     1     -40.028 -45.114  10.388  1.00  0.00     0.298 C 
HETATM    8  C   UNL     1     -39.968 -44.126  11.568  1.00  0.00     0.198 C 
HETATM    9  O   UNL     1     -41.196 -43.398  11.701  1.00  0.00    -0.388 OA
HETATM   10  C   UNL     1     -42.304 -44.292  11.848  1.00  0.00     0.198 C 
HETATM   11  C   UNL     1     -42.392 -45.281  10.671  1.00  0.00     0.298 C 
ENDBRANCH   5   6
ENDBRANCH   2   5
ENDBRANCH   1   2
BRANCH   1  12
HETATM   12  N   UNL     1     -40.770 -51.018  11.162  1.00  0.00     0.087 N 
HETATM   13  H   UNL     1     -39.931 -51.603  11.184  1.00  0.00     0.316 HD
BRANCH  12  14
HETATM   14  C   UNL     1     -41.698 -51.494  12.217  1.00  0.00     0.291 C 
BRANCH  14  15
HETATM   15  C   UNL     1     -41.550 -52.983  12.547  1.00  0.00     0.178 C 
BRANCH  15  16
HETATM   16  N   UNL     1     -42.749 -53.575  13.107  1.00  0.00    -0.302 N 
HETATM   17  C   UNL     1     -42.854 -54.217  14.307  1.00  0.00     0.111 A 
HETATM   18  C   UNL     1     -44.107 -54.783  14.327  1.00  0.00     0.037 A 
HETATM   19  C   UNL     1     -44.682 -54.420  13.097  1.00  0.00     0.108 A 
HETATM   20  N   UNL     1     -43.860 -53.679  12.350  1.00  0.00    -0.310 N 
ATOM     21  HN  UNL     1     -44.032 -53.285  11.425  1.00  0.00     0.186 HD
ENDBRANCH  15  16
ENDBRANCH  14  15
ENDBRANCH  12  14
ENDBRANCH   1  12
TORSDOF 8
ENDMDL
MODEL 7
REMARK VINA RESULT:      -4.9      2.062      2.473
REMARK  8 active torsions:
REMARK  status: ('A' for Active; 'I' for Inactive)
REMARK    1  A    between atoms: O_1  and  C_2 
REMARK    2  A    between atoms: C_2  and  C_3 
REMARK    3  A    between atoms: C_2  and  C_13 
REMARK    4  A    between atoms: C_3  and  N_4 
REMARK    5  A    between atoms: N_4  and  C_5 
REMARK    6  A    between atoms: C_5  and  C_6 
REMARK    7  A    between atoms: C_6  and  N_7 
REMARK    8  A    between atoms: C_13  and  N_14 
ROOT
HETATM    1  C   UNL     1     -41.190 -51.212  12.042  1.00  0.00     0.302 C 
ENDROOT
BRANCH   1   2
HETATM    2  C   UNL     1     -41.497 -52.700  11.749  1.00  0.00     0.174 C 
BRANCH   2   3
HETATM    3  O   UNL     1     -42.929 -52.818  11.785  1.00  0.00    -0.392 OA
HETATM    4  H   UNL     1     -43.237 -52.889  10.866  1.00  0.00     0.210 HD
ENDBRANCH   2   3
BRANCH   2   5
HETATM    5  C   UNL     1     -40.849 -53.643  12.799  1.00  0.00     0.305 C 
BRANCH   5   6
HETATM    6  N   UNL     1     -40.418 -52.985  14.059  1.00  0.00     0.095 N 
HETATM    7  C   UNL     1     -39.062 -53.383  14.507  1.00  0.00     0.298 C 
HETATM    8  C   UNL     1     -38.969 -54.811  15.074  1.00  0.00     0.198 C 
HETATM    9  O   UNL     1     -39.895 -55.005  16.151  1.00  0.00    -0.388 OA
HETATM   10  C   UNL     1     -41.232 -54.717  15.729  1.00  0.00     0.198 C 
HETATM   11  C   UNL     1     -41.352 -53.287  15.170  1.00  0.00     0.298 C 
ENDBRANCH   5   6
ENDBRANCH   2   5
ENDBRANCH   1   2
BRANCH   1  12
HETATM   12  N   UNL     1     -40.755 -50.401  10.898  1.00  0.00     0.087 N 
HETATM   13  H   UNL     1     -41.334 -50.632  10.087  1.00  0.00     0.316 HD
BRANCH  12  14
HETATM   14  C   UNL     1     -40.907 -48.953  11.182  1.00  0.00     0.291 C 
BRANCH  14  15
HETATM   15  C   UNL     1     -42.350 -48.526  11.468  1.00  0.00     0.178 C 
BRANCH  15  16
HETATM   16  N   UNL     1     -43.023 -47.947  10.321  1.00  0.00    -0.302 N 
HETATM   17  C   UNL     1     -44.300 -47.465  10.285  1.00  0.00     0.111 A 
HETATM   18  C   UNL     1     -44.573 -47.211   8.962  1.00  0.00     0.037 A 
HETATM   19  C   UNL     1     -43.396 -47.567   8.281  1.00  0.00     0.108 A 
HETATM   20  N   UNL     1     -42.445 -48.012   9.105  1.00  0.00    -0.310 N 
ATOM     21  HN  UNL     1     -41.505 -48.327   8.869  1.00  0.00     0.186 HD
ENDBRANCH  15  16
ENDBRANCH  14  15
ENDBRANCH  12  14
ENDBRANCH   1  12
TORSDOF 8
ENDMDL
MODEL 8
REMARK VINA RESULT:      -4.9      1.650      2.180
REMARK  8 active torsions:
REMARK  status: ('A' for Active; 'I' for Inactive)
REMARK    1  A    between atoms: O_1  and  C_2 
REMARK    2  A    between atoms: C_2  and  C_3 
REMARK    3  A    between atoms: C_2  and  C_13 
REMARK    4  A    between atoms: C_3  and  N_4 
REMARK    5  A    between atoms: N_4  and  C_5 
REMARK    6  A    between atoms: C_5  and  C_6 
REMARK    7  A    between atoms: C_6  and  N_7 
REMARK    8  A    between atoms: C_13  and  N_14 
ROOT
HETATM    1  C   UNL     1     -42.510 -50.532  12.720  1.00  0.00     0.302 C 
ENDROOT
BRANCH   1   2
HETATM    2  C   UNL     1     -42.429 -52.073  12.831  1.00  0.00     0.174 C 
BRANCH   2   3
HETATM    3  O   UNL     1     -42.504 -52.566  11.483  1.00  0.00    -0.392 OA
HETATM    4  H   UNL     1     -43.189 -52.051  11.024  1.00  0.00     0.210 HD
ENDBRANCH   2   3
BRANCH   2   5
HETATM    5  C   UNL     1     -43.588 -52.654  13.686  1.00  0.00     0.305 C 
BRANCH   5   6
HETATM    6  N   UNL     1     -44.785 -53.084  12.919  1.00  0.00     0.095 N 
HETATM    7  C   UNL     1     -45.871 -52.074  12.892  1.00  0.00     0.298 C 
HETATM    8  C   UNL     1     -46.627 -51.912  14.224  1.00  0.00     0.198 C 
HETATM    9  O   UNL     1     -47.160 -53.163  14.676  1.00  0.00    -0.388 OA
HETATM   10  C   UNL     1     -46.122 -54.141  14.802  1.00  0.00     0.198 C 
HETATM   11  C   UNL     1     -45.361 -54.331  13.477  1.00  0.00     0.298 C 
ENDBRANCH   5   6
ENDBRANCH   2   5
ENDBRANCH   1   2
BRANCH   1  12
HETATM   12  N   UNL     1     -41.321 -49.854  12.189  1.00  0.00     0.087 N 
HETATM   13  H   UNL     1     -40.742 -50.537  11.694  1.00  0.00     0.316 HD
BRANCH  12  14
HETATM   14  C   UNL     1     -41.697 -48.782  11.237  1.00  0.00     0.291 C 
BRANCH  14  15
HETATM   15  C   UNL     1     -43.050 -48.130  11.540  1.00  0.00     0.178 C 
BRANCH  15  16
HETATM   16  N   UNL     1     -43.639 -47.455  10.400  1.00  0.00    -0.302 N 
HETATM   17  C   UNL     1     -43.214 -46.286   9.838  1.00  0.00     0.111 A 
HETATM   18  C   UNL     1     -44.181 -45.928   8.928  1.00  0.00     0.037 A 
HETATM   19  C   UNL     1     -45.144 -46.948   9.012  1.00  0.00     0.108 A 
HETATM   20  N   UNL     1     -44.817 -47.885   9.905  1.00  0.00    -0.310 N 
ATOM     21  HN  UNL     1     -45.336 -48.727  10.154  1.00  0.00     0.186 HD
ENDBRANCH  15  16
ENDBRANCH  14  15
ENDBRANCH  12  14
ENDBRANCH   1  12
TORSDOF 8
ENDMDL
MODEL 9
REMARK VINA RESULT:      -4.9      2.645      4.327
REMARK  8 active torsions:
REMARK  status: ('A' for Active; 'I' for Inactive)
REMARK    1  A    between atoms: O_1  and  C_2 
REMARK    2  A    between atoms: C_2  and  C_3 
REMARK    3  A    between atoms: C_2  and  C_13 
REMARK    4  A    between atoms: C_3  and  N_4 
REMARK    5  A    between atoms: N_4  and  C_5 
REMARK    6  A    between atoms: C_5  and  C_6 
REMARK    7  A    between atoms: C_6  and  N_7 
REMARK    8  A    between atoms: C_13  and  N_14 
ROOT
HETATM    1  C   UNL     1     -41.636 -51.477  12.186  1.00  0.00     0.302 C 
ENDROOT
BRANCH   1   2
HETATM    2  C   UNL     1     -41.205 -52.889  12.648  1.00  0.00     0.174 C 
BRANCH   2   3
HETATM    3  O   UNL     1     -40.518 -53.474  11.529  1.00  0.00    -0.392 OA
HETATM    4  H   UNL     1     -40.618 -52.865  10.778  1.00  0.00     0.210 HD
ENDBRANCH   2   3
BRANCH   2   5
HETATM    5  C   UNL     1     -42.424 -53.763  13.053  1.00  0.00     0.305 C 
BRANCH   5   6
HETATM    6  N   UNL     1     -43.605 -53.010  13.546  1.00  0.00     0.095 N 
HETATM    7  C   UNL     1     -43.686 -52.927  15.025  1.00  0.00     0.298 C 
HETATM    8  C   UNL     1     -44.078 -54.245  15.719  1.00  0.00     0.198 C 
HETATM    9  O   UNL     1     -45.318 -54.753  15.209  1.00  0.00    -0.388 OA
HETATM   10  C   UNL     1     -45.247 -54.933  13.790  1.00  0.00     0.198 C 
HETATM   11  C   UNL     1     -44.869 -53.624  13.073  1.00  0.00     0.298 C 
ENDBRANCH   5   6
ENDBRANCH   2   5
ENDBRANCH   1   2
BRANCH   1  12
HETATM   12  N   UNL     1     -40.894 -50.909  11.053  1.00  0.00     0.087 N 
HETATM   13  H   UNL     1     -41.553 -50.671  10.309  1.00  0.00     0.316 HD
BRANCH  12  14
HETATM   14  C   UNL     1     -40.175 -49.675  11.452  1.00  0.00     0.291 C 
BRANCH  14  15
HETATM   15  C   UNL     1     -38.702 -49.902  11.805  1.00  0.00     0.178 C 
BRANCH  15  16
HETATM   16  N   UNL     1     -38.462 -50.051  13.228  1.00  0.00    -0.302 N 
HETATM   17  C   UNL     1     -38.098 -51.196  13.876  1.00  0.00     0.111 A 
HETATM   18  C   UNL     1     -38.185 -50.917  15.219  1.00  0.00     0.037 A 
HETATM   19  C   UNL     1     -38.602 -49.576  15.278  1.00  0.00     0.108 A 
HETATM   20  N   UNL     1     -38.769 -49.041  14.066  1.00  0.00    -0.310 N 
ATOM     21  HN  UNL     1     -39.060 -48.093  13.831  1.00  0.00     0.186 HD
ENDBRANCH  15  16
ENDBRANCH  14  15
ENDBRANCH  12  14
ENDBRANCH   1  12
TORSDOF 8
ENDMDL
