MODEL 1
REMARK VINA RESULT:      -5.6      0.000      0.000
REMARK  5 active torsions:
REMARK  status: ('A' for Active; 'I' for Inactive)
REMARK    1  A    between atoms: O_2  and  C_3 
REMARK    2  A    between atoms: C_3  and  C_4 
REMARK    3  A    between atoms: C_4  and  N_5 
REMARK    4  A    between atoms: C_7  and  N_8 
REMARK       I    between atoms: N_8  and  C_9 
REMARK       I    between atoms: C_9  and  N_11 
REMARK    5  A    between atoms: N_11  and  C_12 
ROOT
HETATM    1  N   UNL     1     -42.493 -46.679   9.920  1.00  0.00    -0.320 N 
HETATM    2  C   UNL     1     -42.195 -48.027  10.024  1.00  0.00     0.123 A 
HETATM    3  C   UNL     1     -41.138 -48.492  10.713  1.00  0.00     0.052 A 
HETATM    4  C   UNL     1     -40.249 -47.519  11.322  1.00  0.00     0.036 A 
HETATM    5  C   UNL     1     -40.491 -46.201  11.221  1.00  0.00     0.077 A 
HETATM    6  C   UNL     1     -41.696 -45.701  10.503  1.00  0.00     0.247 A 
HETATM    7  O   UNL     1     -41.921 -44.497  10.466  1.00  0.00    -0.268 OA
ENDROOT
BRANCH   3   8
HETATM    8  N   UNL     1     -40.862 -49.834  10.909  1.00  0.00    -0.308 N 
HETATM    9  C   UNL     1     -41.212 -50.577  12.020  1.00  0.00     0.321 C 
HETATM   10  O   UNL     1     -41.886 -50.174  12.963  1.00  0.00    -0.247 OA
HETATM   11  N   UNL     1     -40.732 -51.871  12.006  1.00  0.00    -0.338 N 
HETATM   12  H   UNL     1     -40.240 -52.235  11.206  1.00  0.00     0.164 HD
HETATM   13  H   UNL     1     -40.351 -50.313  10.184  1.00  0.00     0.170 HD
BRANCH  11  14
HETATM   14  C   UNL     1     -41.071 -52.747  13.089  1.00  0.00     0.086 A 
HETATM   15  C   UNL     1     -40.862 -54.230  12.937  1.00  0.00     0.027 A 
HETATM   16  C   UNL     1     -42.249 -53.673  13.072  1.00  0.00     0.027 A 
ENDBRANCH  11  14
ENDBRANCH   3   8
BRANCH   1  17
HETATM   17  C   UNL     1     -43.758 -46.296   9.288  1.00  0.00     0.158 C 
BRANCH  17  18
HETATM   18  C   UNL     1     -44.512 -47.461   8.652  1.00  0.00     0.187 C 
BRANCH  18  19
HETATM   19  O   UNL     1     -45.626 -47.788   9.489  1.00  0.00    -0.394 OA
HETATM   20  C   UNL     1     -46.803 -47.103   9.081  1.00  0.00     0.201 C 
ENDBRANCH  18  19
ENDBRANCH  17  18
ENDBRANCH   1  17
TORSDOF 5
ENDMDL
MODEL 2
REMARK VINA RESULT:      -5.4      4.747      6.857
REMARK  5 active torsions:
REMARK  status: ('A' for Active; 'I' for Inactive)
REMARK    1  A    between atoms: O_2  and  C_3 
REMARK    2  A    between atoms: C_3  and  C_4 
REMARK    3  A    between atoms: C_4  and  N_5 
REMARK    4  A    between atoms: C_7  and  N_8 
REMARK       I    between atoms: N_8  and  C_9 
REMARK       I    between atoms: C_9  and  N_11 
REMARK    5  A    between atoms: N_11  and  C_12 
ROOT
HETATM    1  N   UNL     1     -44.932 -53.074  13.599  1.00  0.00    -0.320 N 
HETATM    2  C   UNL     1     -43.897 -52.439  12.934  1.00  0.00     0.123 A 
HETATM    3  C   UNL     1     -42.644 -52.924  12.898  1.00  0.00     0.052 A 
HETATM    4  C   UNL     1     -42.370 -54.141  13.641  1.00  0.00     0.036 A 
HETATM    5  C   UNL     1     -43.343 -54.773  14.319  1.00  0.00     0.077 A 
HETATM    6  C   UNL     1     -44.739 -54.256  14.305  1.00  0.00     0.247 A 
HETATM    7  O   UNL     1     -45.619 -54.875  14.892  1.00  0.00    -0.268 OA
ENDROOT
BRANCH   3   8
HETATM    8  N   UNL     1     -41.608 -52.361  12.171  1.00  0.00    -0.308 N 
HETATM    9  C   UNL     1     -40.590 -51.582  12.685  1.00  0.00     0.321 C 
HETATM   10  O   UNL     1     -40.412 -51.337  13.874  1.00  0.00    -0.247 OA
HETATM   11  N   UNL     1     -39.739 -51.066  11.730  1.00  0.00    -0.338 N 
HETATM   12  H   UNL     1     -39.832 -51.318  10.759  1.00  0.00     0.164 HD
HETATM   13  H   UNL     1     -41.599 -52.523  11.176  1.00  0.00     0.170 HD
BRANCH  11  14
HETATM   14  C   UNL     1     -38.619 -50.277  12.154  1.00  0.00     0.086 A 
HETATM   15  C   UNL     1     -37.493 -50.010  11.191  1.00  0.00     0.027 A 
HETATM   16  C   UNL     1     -37.257 -50.841  12.418  1.00  0.00     0.027 A 
ENDBRANCH  11  14
ENDBRANCH   3   8
BRANCH   1  17
HETATM   17  C   UNL     1     -46.289 -52.547  13.434  1.00  0.00     0.158 C 
BRANCH  17  18
HETATM   18  C   UNL     1     -46.678 -51.497  14.473  1.00  0.00     0.187 C 
BRANCH  18  19
HETATM   19  O   UNL     1     -47.377 -52.153  15.536  1.00  0.00    -0.394 OA
HETATM   20  C   UNL     1     -47.664 -51.256  16.601  1.00  0.00     0.201 C 
ENDBRANCH  18  19
ENDBRANCH  17  18
ENDBRANCH   1  17
TORSDOF 5
ENDMDL
MODEL 3
REMARK VINA RESULT:      -5.4      4.250      6.500
REMARK  5 active torsions:
REMARK  status: ('A' for Active; 'I' for Inactive)
REMARK    1  A    between atoms: O_2  and  C_3 
REMARK    2  A    between atoms: C_3  and  C_4 
REMARK    3  A    between atoms: C_4  and  N_5 
REMARK    4  A    between atoms: C_7  and  N_8 
REMARK       I    between atoms: N_8  and  C_9 
REMARK       I    between atoms: C_9  and  N_11 
REMARK    5  A    between atoms: N_11  and  C_12 
ROOT
HETATM    1  N   UNL     1     -44.704 -53.170  13.887  1.00  0.00    -0.320 N 
HETATM    2  C   UNL     1     -43.721 -52.521  13.160  1.00  0.00     0.123 A 
HETATM    3  C   UNL     1     -42.462 -52.981  13.057  1.00  0.00     0.052 A 
HETATM    4  C   UNL     1     -42.122 -54.186  13.793  1.00  0.00     0.036 A 
HETATM    5  C   UNL     1     -43.043 -54.831  14.529  1.00  0.00     0.077 A 
HETATM    6  C   UNL     1     -44.448 -54.342  14.590  1.00  0.00     0.247 A 
HETATM    7  O   UNL     1     -45.281 -54.973  15.230  1.00  0.00    -0.268 OA
ENDROOT
BRANCH   3   8
HETATM    8  N   UNL     1     -41.481 -52.404  12.269  1.00  0.00    -0.308 N 
HETATM    9  C   UNL     1     -40.470 -51.575  12.715  1.00  0.00     0.321 C 
HETATM   10  O   UNL     1     -40.249 -51.289  13.888  1.00  0.00    -0.247 OA
HETATM   11  N   UNL     1     -39.680 -51.058  11.709  1.00  0.00    -0.338 N 
HETATM   12  H   UNL     1     -39.807 -51.342  10.750  1.00  0.00     0.164 HD
HETATM   13  H   UNL     1     -41.509 -52.595  11.280  1.00  0.00     0.170 HD
BRANCH  11  14
HETATM   14  C   UNL     1     -38.572 -50.218  12.059  1.00  0.00     0.086 A 
HETATM   15  C   UNL     1     -37.430 -50.055  11.093  1.00  0.00     0.027 A 
HETATM   16  C   UNL     1     -37.213 -50.739  12.411  1.00  0.00     0.027 A 
ENDBRANCH  11  14
ENDBRANCH   3   8
BRANCH   1  17
HETATM   17  C   UNL     1     -46.078 -52.672  13.794  1.00  0.00     0.158 C 
BRANCH  17  18
HETATM   18  C   UNL     1     -46.287 -51.627  12.699  1.00  0.00     0.187 C 
BRANCH  18  19
HETATM   19  O   UNL     1     -46.816 -52.285  11.543  1.00  0.00    -0.394 OA
HETATM   20  C   UNL     1     -47.628 -51.410  10.772  1.00  0.00     0.201 C 
ENDBRANCH  18  19
ENDBRANCH  17  18
ENDBRANCH   1  17
TORSDOF 5
ENDMDL
MODEL 4
REMARK VINA RESULT:      -5.4      1.568      3.510
REMARK  5 active torsions:
REMARK  status: ('A' for Active; 'I' for Inactive)
REMARK    1  A    between atoms: O_2  and  C_3 
REMARK    2  A    between atoms: C_3  and  C_4 
REMARK    3  A    between atoms: C_4  and  N_5 
REMARK    4  A    between atoms: C_7  and  N_8 
REMARK       I    between atoms: N_8  and  C_9 
REMARK       I    between atoms: C_9  and  N_11 
REMARK    5  A    between atoms: N_11  and  C_12 
ROOT
HETATM    1  N   UNL     1     -41.802 -45.607  10.607  1.00  0.00    -0.320 N 
HETATM    2  C   UNL     1     -41.359 -46.894  10.860  1.00  0.00     0.123 A 
HETATM    3  C   UNL     1     -42.018 -47.990  10.446  1.00  0.00     0.052 A 
HETATM    4  C   UNL     1     -43.279 -47.796   9.753  1.00  0.00     0.036 A 
HETATM    5  C   UNL     1     -43.754 -46.563   9.511  1.00  0.00     0.077 A 
HETATM    6  C   UNL     1     -42.987 -45.356   9.925  1.00  0.00     0.247 A 
HETATM    7  O   UNL     1     -43.418 -44.242   9.652  1.00  0.00    -0.268 OA
ENDROOT
BRANCH   3   8
HETATM    8  N   UNL     1     -41.558 -49.286  10.605  1.00  0.00    -0.308 N 
HETATM    9  C   UNL     1     -41.678 -50.051  11.749  1.00  0.00     0.321 C 
HETATM   10  O   UNL     1     -42.278 -49.721  12.767  1.00  0.00    -0.247 OA
HETATM   11  N   UNL     1     -41.048 -51.277  11.675  1.00  0.00    -0.338 N 
HETATM   12  H   UNL     1     -40.614 -51.588  10.821  1.00  0.00     0.164 HD
HETATM   13  H   UNL     1     -41.083 -49.708   9.823  1.00  0.00     0.170 HD
BRANCH  11  14
HETATM   14  C   UNL     1     -41.144 -52.173  12.790  1.00  0.00     0.086 A 
HETATM   15  C   UNL     1     -40.806 -53.628  12.603  1.00  0.00     0.027 A 
HETATM   16  C   UNL     1     -42.211 -53.215  12.929  1.00  0.00     0.027 A 
ENDBRANCH  11  14
ENDBRANCH   3   8
BRANCH   1  17
HETATM   17  C   UNL     1     -40.922 -44.489  10.957  1.00  0.00     0.158 C 
BRANCH  17  18
HETATM   18  C   UNL     1     -39.490 -44.643  10.448  1.00  0.00     0.187 C 
BRANCH  18  19
HETATM   19  O   UNL     1     -39.442 -44.184   9.092  1.00  0.00    -0.394 OA
HETATM   20  C   UNL     1     -38.242 -44.590   8.448  1.00  0.00     0.201 C 
ENDBRANCH  18  19
ENDBRANCH  17  18
ENDBRANCH   1  17
TORSDOF 5
ENDMDL
MODEL 5
REMARK VINA RESULT:      -5.3      2.037      6.558
REMARK  5 active torsions:
REMARK  status: ('A' for Active; 'I' for Inactive)
REMARK    1  A    between atoms: O_2  and  C_3 
REMARK    2  A    between atoms: C_3  and  C_4 
REMARK    3  A    between atoms: C_4  and  N_5 
REMARK    4  A    between atoms: C_7  and  N_8 
REMARK       I    between atoms: N_8  and  C_9 
REMARK       I    between atoms: C_9  and  N_11 
REMARK    5  A    between atoms: N_11  and  C_12 
ROOT
HETATM    1  N   UNL     1     -40.463 -52.722  12.939  1.00  0.00    -0.320 N 
HETATM    2  C   UNL     1     -40.918 -51.822  11.990  1.00  0.00     0.123 A 
HETATM    3  C   UNL     1     -40.317 -50.643  11.752  1.00  0.00     0.052 A 
HETATM    4  C   UNL     1     -39.174 -50.290  12.574  1.00  0.00     0.036 A 
HETATM    5  C   UNL     1     -38.718 -51.126  13.522  1.00  0.00     0.077 A 
HETATM    6  C   UNL     1     -39.358 -52.453  13.738  1.00  0.00     0.247 A 
HETATM    7  O   UNL     1     -38.895 -53.218  14.576  1.00  0.00    -0.268 OA
ENDROOT
BRANCH   3   8
HETATM    8  N   UNL     1     -40.694 -49.762  10.752  1.00  0.00    -0.308 N 
HETATM    9  C   UNL     1     -41.717 -48.838  10.833  1.00  0.00     0.321 C 
HETATM   10  O   UNL     1     -42.393 -48.610  11.831  1.00  0.00    -0.247 OA
HETATM   11  N   UNL     1     -41.947 -48.148   9.661  1.00  0.00    -0.338 N 
HETATM   12  H   UNL     1     -41.352 -48.275   8.857  1.00  0.00     0.164 HD
HETATM   13  H   UNL     1     -40.186 -49.803   9.882  1.00  0.00     0.170 HD
BRANCH  11  14
HETATM   14  C   UNL     1     -42.958 -47.131   9.641  1.00  0.00     0.086 A 
HETATM   15  C   UNL     1     -44.282 -47.415   8.984  1.00  0.00     0.027 A 
HETATM   16  C   UNL     1     -43.359 -46.381   8.408  1.00  0.00     0.027 A 
ENDBRANCH  11  14
ENDBRANCH   3   8
BRANCH   1  17
HETATM   17  C   UNL     1     -41.092 -54.043  12.999  1.00  0.00     0.158 C 
BRANCH  17  18
HETATM   18  C   UNL     1     -42.440 -54.058  13.715  1.00  0.00     0.187 C 
BRANCH  18  19
HETATM   19  O   UNL     1     -43.475 -54.102  12.727  1.00  0.00    -0.394 OA
HETATM   20  C   UNL     1     -44.401 -53.038  12.895  1.00  0.00     0.201 C 
ENDBRANCH  18  19
ENDBRANCH  17  18
ENDBRANCH   1  17
TORSDOF 5
ENDMDL
MODEL 6
REMARK VINA RESULT:      -5.3      2.469      6.879
REMARK  5 active torsions:
REMARK  status: ('A' for Active; 'I' for Inactive)
REMARK    1  A    between atoms: O_2  and  C_3 
REMARK    2  A    between atoms: C_3  and  C_4 
REMARK    3  A    between atoms: C_4  and  N_5 
REMARK    4  A    between atoms: C_7  and  N_8 
REMARK       I    between atoms: N_8  and  C_9 
REMARK       I    between atoms: C_9  and  N_11 
REMARK    5  A    between atoms: N_11  and  C_12 
ROOT
HETATM    1  N   UNL     1     -39.285 -51.014  13.377  1.00  0.00    -0.320 N 
HETATM    2  C   UNL     1     -40.259 -50.584  12.492  1.00  0.00     0.123 A 
HETATM    3  C   UNL     1     -40.054 -49.598  11.601  1.00  0.00     0.052 A 
HETATM    4  C   UNL     1     -38.766 -48.928  11.621  1.00  0.00     0.036 A 
HETATM    5  C   UNL     1     -37.805 -49.301  12.483  1.00  0.00     0.077 A 
HETATM    6  C   UNL     1     -38.025 -50.432  13.426  1.00  0.00     0.247 A 
HETATM    7  O   UNL     1     -37.116 -50.784  14.169  1.00  0.00    -0.268 OA
ENDROOT
BRANCH   3   8
HETATM    8  N   UNL     1     -40.975 -49.205  10.645  1.00  0.00    -0.308 N 
HETATM    9  C   UNL     1     -42.027 -48.333  10.847  1.00  0.00     0.321 C 
HETATM   10  O   UNL     1     -42.255 -47.720  11.885  1.00  0.00    -0.247 OA
HETATM   11  N   UNL     1     -42.853 -48.184   9.752  1.00  0.00    -0.338 N 
HETATM   12  H   UNL     1     -42.637 -48.625   8.873  1.00  0.00     0.164 HD
HETATM   13  H   UNL     1     -40.879 -49.596   9.721  1.00  0.00     0.170 HD
BRANCH  11  14
HETATM   14  C   UNL     1     -43.955 -47.269   9.834  1.00  0.00     0.086 A 
HETATM   15  C   UNL     1     -45.126 -47.433   8.903  1.00  0.00     0.027 A 
HETATM   16  C   UNL     1     -44.244 -46.222   8.803  1.00  0.00     0.027 A 
ENDBRANCH  11  14
ENDBRANCH   3   8
BRANCH   1  17
HETATM   17  C   UNL     1     -39.561 -52.204  14.186  1.00  0.00     0.158 C 
BRANCH  17  18
HETATM   18  C   UNL     1     -40.272 -53.321  13.425  1.00  0.00     0.187 C 
BRANCH  18  19
HETATM   19  O   UNL     1     -39.448 -54.491  13.467  1.00  0.00    -0.394 OA
HETATM   20  C   UNL     1     -39.089 -54.827  14.800  1.00  0.00     0.201 C 
ENDBRANCH  18  19
ENDBRANCH  17  18
ENDBRANCH   1  17
TORSDOF 5
ENDMDL
MODEL 7
REMARK VINA RESULT:      -5.1      2.885      8.326
REMARK  5 active torsions:
REMARK  status: ('A' for Active; 'I' for Inactive)
REMARK    1  A    between atoms: O_2  and  C_3 
REMARK    2  A    between atoms: C_3  and  C_4 
REMARK    3  A    between atoms: C_4  and  N_5 
REMARK    4  A    between atoms: C_7  and  N_8 
REMARK       I    between atoms: N_8  and  C_9 
REMARK       I    between atoms: C_9  and  N_11 
REMARK    5  A    between atoms: N_11  and  C_12 
ROOT
HETATM    1  N   UNL     1     -41.769 -54.271  14.338  1.00  0.00    -0.320 N 
HETATM    2  C   UNL     1     -41.432 -53.247  13.470  1.00  0.00     0.123 A 
HETATM    3  C   UNL     1     -42.320 -52.664  12.645  1.00  0.00     0.052 A 
HETATM    4  C   UNL     1     -43.676 -53.183  12.639  1.00  0.00     0.036 A 
HETATM    5  C   UNL     1     -44.034 -54.193  13.449  1.00  0.00     0.077 A 
HETATM    6  C   UNL     1     -43.056 -54.793  14.398  1.00  0.00     0.247 A 
HETATM    7  O   UNL     1     -43.419 -55.681  15.160  1.00  0.00    -0.268 OA
ENDROOT
BRANCH   3   8
HETATM    8  N   UNL     1     -42.036 -51.581  11.830  1.00  0.00    -0.308 N 
HETATM    9  C   UNL     1     -42.079 -50.253  12.207  1.00  0.00     0.321 C 
HETATM   10  O   UNL     1     -42.301 -49.842  13.341  1.00  0.00    -0.247 OA
HETATM   11  N   UNL     1     -41.844 -49.368  11.175  1.00  0.00    -0.338 N 
HETATM   12  H   UNL     1     -41.591 -49.694  10.256  1.00  0.00     0.164 HD
HETATM   13  H   UNL     1     -41.787 -51.775  10.873  1.00  0.00     0.170 HD
BRANCH  11  14
HETATM   14  C   UNL     1     -41.822 -47.962  11.460  1.00  0.00     0.086 A 
HETATM   15  C   UNL     1     -41.965 -46.975  10.333  1.00  0.00     0.027 A 
HETATM   16  C   UNL     1     -40.680 -47.061  11.103  1.00  0.00     0.027 A 
ENDBRANCH  11  14
ENDBRANCH   3   8
BRANCH   1  17
HETATM   17  C   UNL     1     -40.765 -54.717  15.307  1.00  0.00     0.158 C 
BRANCH  17  18
HETATM   18  C   UNL     1     -39.334 -54.697  14.773  1.00  0.00     0.187 C 
BRANCH  18  19
HETATM   19  O   UNL     1     -38.639 -55.830  15.304  1.00  0.00    -0.394 OA
HETATM   20  C   UNL     1     -38.782 -55.914  16.715  1.00  0.00     0.201 C 
ENDBRANCH  18  19
ENDBRANCH  17  18
ENDBRANCH   1  17
TORSDOF 5
ENDMDL
MODEL 8
REMARK VINA RESULT:      -5.1      4.777      7.961
REMARK  5 active torsions:
REMARK  status: ('A' for Active; 'I' for Inactive)
REMARK    1  A    between atoms: O_2  and  C_3 
REMARK    2  A    between atoms: C_3  and  C_4 
REMARK    3  A    between atoms: C_4  and  N_5 
REMARK    4  A    between atoms: C_7  and  N_8 
REMARK       I    between atoms: N_8  and  C_9 
REMARK       I    between atoms: C_9  and  N_11 
REMARK    5  A    between atoms: N_11  and  C_12 
ROOT
HETATM    1  N   UNL     1     -43.202 -54.811  14.436  1.00  0.00    -0.320 N 
HETATM    2  C   UNL     1     -42.191 -54.204  13.711  1.00  0.00     0.123 A 
HETATM    3  C   UNL     1     -42.426 -53.354  12.696  1.00  0.00     0.052 A 
HETATM    4  C   UNL     1     -43.809 -53.118  12.321  1.00  0.00     0.036 A 
HETATM    5  C   UNL     1     -44.816 -53.708  12.985  1.00  0.00     0.077 A 
HETATM    6  C   UNL     1     -44.545 -54.603  14.144  1.00  0.00     0.247 A 
HETATM    7  O   UNL     1     -45.483 -55.092  14.763  1.00  0.00    -0.268 OA
ENDROOT
BRANCH   3   8
HETATM    8  N   UNL     1     -41.441 -52.665  12.009  1.00  0.00    -0.308 N 
HETATM    9  C   UNL     1     -40.550 -51.765  12.561  1.00  0.00     0.321 C 
HETATM   10  O   UNL     1     -40.451 -51.503  13.756  1.00  0.00    -0.247 OA
HETATM   11  N   UNL     1     -39.732 -51.145  11.639  1.00  0.00    -0.338 N 
HETATM   12  H   UNL     1     -39.754 -51.404  10.666  1.00  0.00     0.164 HD
HETATM   13  H   UNL     1     -41.372 -52.822  11.016  1.00  0.00     0.170 HD
BRANCH  11  14
HETATM   14  C   UNL     1     -38.737 -50.223  12.105  1.00  0.00     0.086 A 
HETATM   15  C   UNL     1     -37.565 -49.888  11.223  1.00  0.00     0.027 A 
HETATM   16  C   UNL     1     -37.354 -50.628  12.511  1.00  0.00     0.027 A 
ENDBRANCH  11  14
ENDBRANCH   3   8
BRANCH   1  17
HETATM   17  C   UNL     1     -42.835 -55.584  15.624  1.00  0.00     0.158 C 
BRANCH  17  18
HETATM   18  C   UNL     1     -42.763 -54.757  16.906  1.00  0.00     0.187 C 
BRANCH  18  19
HETATM   19  O   UNL     1     -43.865 -55.124  17.743  1.00  0.00    -0.394 OA
HETATM   20  C   UNL     1     -44.702 -54.009  18.019  1.00  0.00     0.201 C 
ENDBRANCH  18  19
ENDBRANCH  17  18
ENDBRANCH   1  17
TORSDOF 5
ENDMDL
MODEL 9
REMARK VINA RESULT:      -5.0      1.732      3.742
REMARK  5 active torsions:
REMARK  status: ('A' for Active; 'I' for Inactive)
REMARK    1  A    between atoms: O_2  and  C_3 
REMARK    2  A    between atoms: C_3  and  C_4 
REMARK    3  A    between atoms: C_4  and  N_5 
REMARK    4  A    between atoms: C_7  and  N_8 
REMARK       I    between atoms: N_8  and  C_9 
REMARK       I    between atoms: C_9  and  N_11 
REMARK    5  A    between atoms: N_11  and  C_12 
ROOT
HETATM    1  N   UNL     1     -40.840 -45.961  11.065  1.00  0.00    -0.320 N 
HETATM    2  C   UNL     1     -40.613 -47.317  11.230  1.00  0.00     0.123 A 
HETATM    3  C   UNL     1     -41.453 -48.261  10.772  1.00  0.00     0.052 A 
HETATM    4  C   UNL     1     -42.677 -47.819  10.127  1.00  0.00     0.036 A 
HETATM    5  C   UNL     1     -42.944 -46.511   9.971  1.00  0.00     0.077 A 
HETATM    6  C   UNL     1     -41.978 -45.476  10.432  1.00  0.00     0.247 A 
HETATM    7  O   UNL     1     -42.222 -44.291  10.235  1.00  0.00    -0.268 OA
ENDROOT
BRANCH   3   8
HETATM    8  N   UNL     1     -41.213 -49.622  10.843  1.00  0.00    -0.308 N 
HETATM    9  C   UNL     1     -41.338 -50.407  11.973  1.00  0.00     0.321 C 
HETATM   10  O   UNL     1     -41.754 -50.026  13.063  1.00  0.00    -0.247 OA
HETATM   11  N   UNL     1     -40.946 -51.718  11.794  1.00  0.00    -0.338 N 
HETATM   12  H   UNL     1     -40.671 -52.060  10.888  1.00  0.00     0.164 HD
HETATM   13  H   UNL     1     -40.909 -50.084  10.000  1.00  0.00     0.170 HD
BRANCH  11  14
HETATM   14  C   UNL     1     -41.073 -52.635  12.890  1.00  0.00     0.086 A 
HETATM   15  C   UNL     1     -40.788 -54.096  12.670  1.00  0.00     0.027 A 
HETATM   16  C   UNL     1     -42.178 -53.639  13.008  1.00  0.00     0.027 A 
ENDBRANCH  11  14
ENDBRANCH   3   8
BRANCH   1  17
HETATM   17  C   UNL     1     -39.779 -45.028  11.453  1.00  0.00     0.158 C 
BRANCH  17  18
HETATM   18  C   UNL     1     -39.386 -45.113  12.927  1.00  0.00     0.187 C 
BRANCH  18  19
HETATM   19  O   UNL     1     -39.041 -43.799  13.378  1.00  0.00    -0.394 OA
HETATM   20  C   UNL     1     -39.843 -42.807  12.752  1.00  0.00     0.201 C 
ENDBRANCH  18  19
ENDBRANCH  17  18
ENDBRANCH   1  17
TORSDOF 5
ENDMDL
