MODEL 1
REMARK VINA RESULT:      -7.1      0.000      0.000
REMARK  6 active torsions:
REMARK  status: ('A' for Active; 'I' for Inactive)
REMARK    1  A    between atoms: N_5  and  C_6 
REMARK    2  A    between atoms: C_6  and  C_7 
REMARK    3  A    between atoms: C_7  and  O_8 
REMARK    4  A    between atoms: C_7  and  C_9 
REMARK    5  A    between atoms: C_9  and  N_10 
REMARK       I    between atoms: N_10  and  C_11 
REMARK       I    between atoms: C_11  and  N_13 
REMARK    6  A    between atoms: N_13  and  C_14 
ROOT
HETATM    1  N   UNL     1     -40.670 -50.651  11.309  1.00  0.00    -0.340 N 
HETATM    2  C   UNL     1     -41.449 -49.528  11.411  1.00  0.00     0.320 C 
HETATM    3  O   UNL     1     -41.881 -49.157  12.494  1.00  0.00    -0.247 OA
HETATM    4  N   UNL     1     -41.640 -48.897  10.207  1.00  0.00    -0.309 N 
HETATM    5  H   UNL     1     -40.549 -51.111  10.417  1.00  0.00     0.164 HD
HETATM    6  H   UNL     1     -41.439 -49.433   9.378  1.00  0.00     0.170 HD
ENDROOT
BRANCH   1   7
HETATM    7  C   UNL     1     -40.428 -51.459  12.492  1.00  0.00     0.157 C 
BRANCH   7   8
HETATM    8  C   UNL     1     -41.102 -52.827  12.379  1.00  0.00     0.164 C 
BRANCH   8   9
HETATM    9  C   UNL     1     -42.637 -52.634  12.293  1.00  0.00     0.305 C 
BRANCH   9  10
HETATM   10  N   UNL     1     -43.394 -53.020  13.500  1.00  0.00     0.091 N 
HETATM   11  C   UNL     1     -44.694 -53.623  13.150  1.00  0.00     0.273 C 
HETATM   12  C   UNL     1     -45.718 -52.625  12.592  1.00  0.00     0.034 C 
HETATM   13  C   UNL     1     -45.920 -51.412  13.511  1.00  0.00    -0.015 C 
HETATM   14  C   UNL     1     -46.783 -51.770  14.724  1.00  0.00     0.010 C 
HETATM   15  C   UNL     1     -44.563 -50.834  13.938  1.00  0.00     0.034 C 
HETATM   16  C   UNL     1     -43.601 -51.912  14.448  1.00  0.00     0.273 C 
ENDBRANCH   9  10
ENDBRANCH   8   9
BRANCH   8  17
HETATM   17  O   UNL     1     -40.566 -53.494  11.227  1.00  0.00    -0.392 OA
HETATM   18  H   UNL     1     -40.019 -54.232  11.552  1.00  0.00     0.210 HD
ENDBRANCH   8  17
ENDBRANCH   7   8
ENDBRANCH   1   7
BRANCH   4  19
HETATM   19  C   UNL     1     -42.269 -47.644  10.044  1.00  0.00     0.038 A 
HETATM   20  C   UNL     1     -41.819 -46.486  10.677  1.00  0.00     0.046 A 
HETATM   21  C   UNL     1     -42.515 -45.308  10.485  1.00  0.00     0.090 A 
HETATM   22  N   UNL     1     -43.609 -45.205   9.703  1.00  0.00    -0.375 N 
HETATM   23  C   UNL     1     -44.014 -46.334   9.083  1.00  0.00     0.090 A 
ATOM     24  HN  UNL     1     -44.105 -44.321   9.587  1.00  0.00     0.164 HD
HETATM   25  C   UNL     1     -43.378 -47.561   9.212  1.00  0.00     0.046 A 
ENDBRANCH   4  19
TORSDOF 6
ENDMDL
MODEL 2
REMARK VINA RESULT:      -6.2      2.174      7.514
REMARK  6 active torsions:
REMARK  status: ('A' for Active; 'I' for Inactive)
REMARK    1  A    between atoms: N_5  and  C_6 
REMARK    2  A    between atoms: C_6  and  C_7 
REMARK    3  A    between atoms: C_7  and  O_8 
REMARK    4  A    between atoms: C_7  and  C_9 
REMARK    5  A    between atoms: C_9  and  N_10 
REMARK       I    between atoms: N_10  and  C_11 
REMARK       I    between atoms: C_11  and  N_13 
REMARK    6  A    between atoms: N_13  and  C_14 
ROOT
HETATM    1  N   UNL     1     -40.856 -50.997  11.150  1.00  0.00    -0.340 N 
HETATM    2  C   UNL     1     -41.564 -51.523  12.199  1.00  0.00     0.320 C 
HETATM    3  O   UNL     1     -41.812 -50.852  13.192  1.00  0.00    -0.247 OA
HETATM    4  N   UNL     1     -41.960 -52.819  11.982  1.00  0.00    -0.309 N 
HETATM    5  H   UNL     1     -40.415 -51.605  10.473  1.00  0.00     0.164 HD
HETATM    6  H   UNL     1     -41.488 -53.319  11.245  1.00  0.00     0.170 HD
ENDROOT
BRANCH   1   7
HETATM    7  C   UNL     1     -40.318 -49.652  11.258  1.00  0.00     0.157 C 
BRANCH   7   8
HETATM    8  C   UNL     1     -41.388 -48.599  10.968  1.00  0.00     0.164 C 
BRANCH   8   9
HETATM    9  C   UNL     1     -40.909 -47.224  11.500  1.00  0.00     0.305 C 
BRANCH   9  10
HETATM   10  N   UNL     1     -41.137 -46.079  10.598  1.00  0.00     0.091 N 
HETATM   11  C   UNL     1     -39.931 -45.235  10.485  1.00  0.00     0.273 C 
HETATM   12  C   UNL     1     -39.615 -44.424  11.748  1.00  0.00     0.034 C 
HETATM   13  C   UNL     1     -40.810 -43.589  12.228  1.00  0.00    -0.015 C 
HETATM   14  C   UNL     1     -41.006 -42.344  11.358  1.00  0.00     0.010 C 
HETATM   15  C   UNL     1     -42.081 -44.451  12.269  1.00  0.00     0.034 C 
HETATM   16  C   UNL     1     -42.291 -45.246  10.976  1.00  0.00     0.273 C 
ENDBRANCH   9  10
ENDBRANCH   8   9
BRANCH   8  17
HETATM   17  O   UNL     1     -41.631 -48.587   9.555  1.00  0.00    -0.392 OA
HETATM   18  H   UNL     1     -41.808 -47.663   9.301  1.00  0.00     0.210 HD
ENDBRANCH   8  17
ENDBRANCH   7   8
ENDBRANCH   1   7
BRANCH   4  19
HETATM   19  C   UNL     1     -42.826 -53.549  12.824  1.00  0.00     0.038 A 
HETATM   20  C   UNL     1     -42.377 -54.256  13.939  1.00  0.00     0.046 A 
HETATM   21  C   UNL     1     -43.291 -54.969  14.689  1.00  0.00     0.090 A 
HETATM   22  N   UNL     1     -44.611 -55.015  14.414  1.00  0.00    -0.375 N 
HETATM   23  C   UNL     1     -45.027 -54.305  13.344  1.00  0.00     0.090 A 
ATOM     24  HN  UNL     1     -45.260 -55.557  14.985  1.00  0.00     0.164 HD
HETATM   25  C   UNL     1     -44.185 -53.557  12.533  1.00  0.00     0.046 A 
ENDBRANCH   4  19
TORSDOF 6
ENDMDL
MODEL 3
REMARK VINA RESULT:      -6.2      1.417      1.878
REMARK  6 active torsions:
REMARK  status: ('A' for Active; 'I' for Inactive)
REMARK    1  A    between atoms: N_5  and  C_6 
REMARK    2  A    between atoms: C_6  and  C_7 
REMARK    3  A    between atoms: C_7  and  O_8 
REMARK    4  A    between atoms: C_7  and  C_9 
REMARK    5  A    between atoms: C_9  and  N_10 
REMARK       I    between atoms: N_10  and  C_11 
REMARK       I    between atoms: C_11  and  N_13 
REMARK    6  A    between atoms: N_13  and  C_14 
ROOT
HETATM    1  N   UNL     1     -40.912 -50.908  13.460  1.00  0.00    -0.340 N 
HETATM    2  C   UNL     1     -40.602 -49.998  12.483  1.00  0.00     0.320 C 
HETATM    3  O   UNL     1     -39.909 -50.313  11.525  1.00  0.00    -0.247 OA
HETATM    4  N   UNL     1     -41.169 -48.767  12.699  1.00  0.00    -0.309 N 
HETATM    5  H   UNL     1     -41.233 -50.597  14.367  1.00  0.00     0.164 HD
HETATM    6  H   UNL     1     -41.505 -48.579  13.631  1.00  0.00     0.170 HD
ENDROOT
BRANCH   1   7
HETATM    7  C   UNL     1     -40.335 -52.240  13.400  1.00  0.00     0.157 C 
BRANCH   7   8
HETATM    8  C   UNL     1     -41.244 -53.207  12.641  1.00  0.00     0.164 C 
BRANCH   8   9
HETATM    9  C   UNL     1     -42.691 -52.652  12.638  1.00  0.00     0.305 C 
BRANCH   9  10
HETATM   10  N   UNL     1     -43.602 -53.249  13.634  1.00  0.00     0.091 N 
HETATM   11  C   UNL     1     -44.918 -53.558  13.043  1.00  0.00     0.273 C 
HETATM   12  C   UNL     1     -45.767 -52.321  12.723  1.00  0.00     0.034 C 
HETATM   13  C   UNL     1     -45.929 -51.389  13.931  1.00  0.00    -0.015 C 
HETATM   14  C   UNL     1     -46.943 -51.946  14.934  1.00  0.00     0.010 C 
HETATM   15  C   UNL     1     -44.567 -51.130  14.593  1.00  0.00     0.034 C 
HETATM   16  C   UNL     1     -43.783 -52.423  14.840  1.00  0.00     0.273 C 
ENDBRANCH   9  10
ENDBRANCH   8   9
BRANCH   8  17
HETATM   17  O   UNL     1     -40.715 -53.370  11.317  1.00  0.00    -0.392 OA
HETATM   18  H   UNL     1     -40.567 -54.323  11.183  1.00  0.00     0.210 HD
ENDBRANCH   8  17
ENDBRANCH   7   8
ENDBRANCH   1   7
BRANCH   4  19
HETATM   19  C   UNL     1     -41.142 -47.695  11.781  1.00  0.00     0.038 A 
HETATM   20  C   UNL     1     -42.233 -47.360  10.979  1.00  0.00     0.046 A 
HETATM   21  C   UNL     1     -42.108 -46.314  10.085  1.00  0.00     0.090 A 
HETATM   22  N   UNL     1     -40.985 -45.579   9.948  1.00  0.00    -0.375 N 
HETATM   23  C   UNL     1     -39.950 -45.906  10.750  1.00  0.00     0.090 A 
ATOM     24  HN  UNL     1     -40.922 -44.816   9.273  1.00  0.00     0.164 HD
HETATM   25  C   UNL     1     -39.983 -46.936  11.679  1.00  0.00     0.046 A 
ENDBRANCH   4  19
TORSDOF 6
ENDMDL
MODEL 4
REMARK VINA RESULT:      -6.2      3.233      4.436
REMARK  6 active torsions:
REMARK  status: ('A' for Active; 'I' for Inactive)
REMARK    1  A    between atoms: N_5  and  C_6 
REMARK    2  A    between atoms: C_6  and  C_7 
REMARK    3  A    between atoms: C_7  and  O_8 
REMARK    4  A    between atoms: C_7  and  C_9 
REMARK    5  A    between atoms: C_9  and  N_10 
REMARK       I    between atoms: N_10  and  C_11 
REMARK       I    between atoms: C_11  and  N_13 
REMARK    6  A    between atoms: N_13  and  C_14 
ROOT
HETATM    1  N   UNL     1     -43.118 -53.034  11.890  1.00  0.00    -0.340 N 
HETATM    2  C   UNL     1     -42.358 -51.979  12.325  1.00  0.00     0.320 C 
HETATM    3  O   UNL     1     -42.763 -51.233  13.206  1.00  0.00    -0.247 OA
HETATM    4  N   UNL     1     -41.141 -51.900  11.696  1.00  0.00    -0.309 N 
HETATM    5  H   UNL     1     -42.925 -53.471  10.999  1.00  0.00     0.164 HD
HETATM    6  H   UNL     1     -41.040 -52.418  10.837  1.00  0.00     0.170 HD
ENDROOT
BRANCH   1   7
HETATM    7  C   UNL     1     -44.458 -53.214  12.422  1.00  0.00     0.157 C 
BRANCH   7   8
HETATM    8  C   UNL     1     -44.485 -54.282  13.515  1.00  0.00     0.164 C 
BRANCH   8   9
HETATM    9  C   UNL     1     -44.643 -53.596  14.895  1.00  0.00     0.305 C 
BRANCH   9  10
HETATM   10  N   UNL     1     -45.972 -53.732  15.524  1.00  0.00     0.091 N 
HETATM   11  C   UNL     1     -46.979 -52.898  14.840  1.00  0.00     0.273 C 
HETATM   12  C   UNL     1     -46.808 -51.392  15.077  1.00  0.00     0.034 C 
HETATM   13  C   UNL     1     -46.738 -51.033  16.568  1.00  0.00    -0.015 C 
HETATM   14  C   UNL     1     -48.124 -51.078  17.218  1.00  0.00     0.010 C 
HETATM   15  C   UNL     1     -45.747 -51.956  17.293  1.00  0.00     0.034 C 
HETATM   16  C   UNL     1     -45.978 -53.435  16.966  1.00  0.00     0.273 C 
ENDBRANCH   9  10
ENDBRANCH   8   9
BRANCH   8  17
HETATM   17  O   UNL     1     -45.557 -55.190  13.225  1.00  0.00    -0.392 OA
HETATM   18  H   UNL     1     -45.322 -55.659  12.405  1.00  0.00     0.210 HD
ENDBRANCH   8  17
ENDBRANCH   7   8
ENDBRANCH   1   7
BRANCH   4  19
HETATM   19  C   UNL     1     -40.105 -51.010  12.053  1.00  0.00     0.038 A 
HETATM   20  C   UNL     1     -39.148 -51.316  13.019  1.00  0.00     0.046 A 
HETATM   21  C   UNL     1     -38.188 -50.371  13.329  1.00  0.00     0.090 A 
HETATM   22  N   UNL     1     -38.110 -49.162  12.736  1.00  0.00    -0.375 N 
HETATM   23  C   UNL     1     -39.034 -48.897  11.788  1.00  0.00     0.090 A 
ATOM     24  HN  UNL     1     -37.392 -48.483  12.992  1.00  0.00     0.164 HD
HETATM   25  C   UNL     1     -40.033 -49.781  11.408  1.00  0.00     0.046 A 
ENDBRANCH   4  19
TORSDOF 6
ENDMDL
MODEL 5
REMARK VINA RESULT:      -5.6      4.907      8.745
REMARK  6 active torsions:
REMARK  status: ('A' for Active; 'I' for Inactive)
REMARK    1  A    between atoms: N_5  and  C_6 
REMARK    2  A    between atoms: C_6  and  C_7 
REMARK    3  A    between atoms: C_7  and  O_8 
REMARK    4  A    between atoms: C_7  and  C_9 
REMARK    5  A    between atoms: C_9  and  N_10 
REMARK       I    between atoms: N_10  and  C_11 
REMARK       I    between atoms: C_11  and  N_13 
REMARK    6  A    between atoms: N_13  and  C_14 
ROOT
HETATM    1  N   UNL     1     -40.325 -54.219  15.261  1.00  0.00    -0.340 N 
HETATM    2  C   UNL     1     -39.531 -55.270  15.643  1.00  0.00     0.320 C 
HETATM    3  O   UNL     1     -38.551 -55.590  14.986  1.00  0.00    -0.247 OA
HETATM    4  N   UNL     1     -39.947 -55.858  16.811  1.00  0.00    -0.309 N 
HETATM    5  H   UNL     1     -41.265 -54.129  15.624  1.00  0.00     0.164 HD
HETATM    6  H   UNL     1     -40.889 -55.658  17.109  1.00  0.00     0.170 HD
ENDROOT
BRANCH   1   7
HETATM    7  C   UNL     1     -40.045 -53.533  14.012  1.00  0.00     0.157 C 
BRANCH   7   8
HETATM    8  C   UNL     1     -41.141 -53.793  12.977  1.00  0.00     0.164 C 
BRANCH   8   9
HETATM    9  C   UNL     1     -42.242 -52.712  13.118  1.00  0.00     0.305 C 
BRANCH   9  10
HETATM   10  N   UNL     1     -43.274 -52.985  14.137  1.00  0.00     0.091 N 
HETATM   11  C   UNL     1     -44.475 -53.597  13.537  1.00  0.00     0.273 C 
HETATM   12  C   UNL     1     -45.305 -52.634  12.678  1.00  0.00     0.034 C 
HETATM   13  C   UNL     1     -45.677 -51.346  13.426  1.00  0.00    -0.015 C 
HETATM   14  C   UNL     1     -46.812 -51.590  14.425  1.00  0.00     0.010 C 
HETATM   15  C   UNL     1     -44.439 -50.753  14.116  1.00  0.00     0.034 C 
HETATM   16  C   UNL     1     -43.661 -51.800  14.921  1.00  0.00     0.273 C 
ENDBRANCH   9  10
ENDBRANCH   8   9
BRANCH   8  17
HETATM   17  O   UNL     1     -40.535 -53.794  11.677  1.00  0.00    -0.392 OA
HETATM   18  H   UNL     1     -40.433 -52.864  11.407  1.00  0.00     0.210 HD
ENDBRANCH   8  17
ENDBRANCH   7   8
ENDBRANCH   1   7
BRANCH   4  19
HETATM   19  C   UNL     1     -39.234 -56.856  17.510  1.00  0.00     0.038 A 
HETATM   20  C   UNL     1     -39.640 -58.190  17.545  1.00  0.00     0.046 A 
HETATM   21  C   UNL     1     -38.897 -59.094  18.280  1.00  0.00     0.090 A 
HETATM   22  N   UNL     1     -37.782 -58.764  18.964  1.00  0.00    -0.375 N 
HETATM   23  C   UNL     1     -37.395 -57.473  18.897  1.00  0.00     0.090 A 
ATOM     24  HN  UNL     1     -37.259 -59.455  19.503  1.00  0.00     0.164 HD
HETATM   25  C   UNL     1     -38.073 -56.495  18.183  1.00  0.00     0.046 A 
ENDBRANCH   4  19
TORSDOF 6
ENDMDL
MODEL 6
REMARK VINA RESULT:      -5.5      2.725      3.350
REMARK  6 active torsions:
REMARK  status: ('A' for Active; 'I' for Inactive)
REMARK    1  A    between atoms: N_5  and  C_6 
REMARK    2  A    between atoms: C_6  and  C_7 
REMARK    3  A    between atoms: C_7  and  O_8 
REMARK    4  A    between atoms: C_7  and  C_9 
REMARK    5  A    between atoms: C_9  and  N_10 
REMARK       I    between atoms: N_10  and  C_11 
REMARK       I    between atoms: C_11  and  N_13 
REMARK    6  A    between atoms: N_13  and  C_14 
ROOT
HETATM    1  N   UNL     1     -39.354 -51.903  13.127  1.00  0.00    -0.340 N 
HETATM    2  C   UNL     1     -39.676 -50.645  13.567  1.00  0.00     0.320 C 
HETATM    3  O   UNL     1     -40.326 -50.483  14.591  1.00  0.00    -0.247 OA
HETATM    4  N   UNL     1     -39.173 -49.652  12.765  1.00  0.00    -0.309 N 
HETATM    5  H   UNL     1     -39.075 -52.054  12.167  1.00  0.00     0.164 HD
HETATM    6  H   UNL     1     -38.875 -49.923  11.841  1.00  0.00     0.170 HD
ENDROOT
BRANCH   1   7
HETATM    7  C   UNL     1     -39.866 -53.059  13.841  1.00  0.00     0.157 C 
BRANCH   7   8
HETATM    8  C   UNL     1     -40.759 -53.917  12.944  1.00  0.00     0.164 C 
BRANCH   8   9
HETATM    9  C   UNL     1     -42.220 -53.843  13.457  1.00  0.00     0.305 C 
BRANCH   9  10
HETATM   10  N   UNL     1     -43.149 -53.062  12.619  1.00  0.00     0.091 N 
HETATM   11  C   UNL     1     -43.311 -51.688  13.132  1.00  0.00     0.273 C 
HETATM   12  C   UNL     1     -44.111 -51.598  14.438  1.00  0.00     0.034 C 
HETATM   13  C   UNL     1     -45.472 -52.299  14.346  1.00  0.00    -0.015 C 
HETATM   14  C   UNL     1     -46.481 -51.459  13.557  1.00  0.00     0.010 C 
HETATM   15  C   UNL     1     -45.311 -53.701  13.738  1.00  0.00     0.034 C 
HETATM   16  C   UNL     1     -44.471 -53.689  12.456  1.00  0.00     0.273 C 
ENDBRANCH   9  10
ENDBRANCH   8   9
BRANCH   8  17
HETATM   17  O   UNL     1     -40.625 -53.444  11.597  1.00  0.00    -0.392 OA
HETATM   18  H   UNL     1     -41.368 -53.812  11.088  1.00  0.00     0.210 HD
ENDBRANCH   8  17
ENDBRANCH   7   8
ENDBRANCH   1   7
BRANCH   4  19
HETATM   19  C   UNL     1     -39.223 -48.273  13.062  1.00  0.00     0.038 A 
HETATM   20  C   UNL     1     -38.409 -47.679  14.026  1.00  0.00     0.046 A 
HETATM   21  C   UNL     1     -38.547 -46.327  14.274  1.00  0.00     0.090 A 
HETATM   22  N   UNL     1     -39.421 -45.533  13.623  1.00  0.00    -0.375 N 
HETATM   23  C   UNL     1     -40.182 -46.124  12.677  1.00  0.00     0.090 A 
ATOM     24  HN  UNL     1     -39.503 -44.538  13.833  1.00  0.00     0.164 HD
HETATM   25  C   UNL     1     -40.113 -47.472  12.356  1.00  0.00     0.046 A 
ENDBRANCH   4  19
TORSDOF 6
ENDMDL
MODEL 7
REMARK VINA RESULT:      -5.5      4.449      5.998
REMARK  6 active torsions:
REMARK  status: ('A' for Active; 'I' for Inactive)
REMARK    1  A    between atoms: N_5  and  C_6 
REMARK    2  A    between atoms: C_6  and  C_7 
REMARK    3  A    between atoms: C_7  and  O_8 
REMARK    4  A    between atoms: C_7  and  C_9 
REMARK    5  A    between atoms: C_9  and  N_10 
REMARK       I    between atoms: N_10  and  C_11 
REMARK       I    between atoms: C_11  and  N_13 
REMARK    6  A    between atoms: N_13  and  C_14 
ROOT
HETATM    1  N   UNL     1     -42.229 -45.331  12.250  1.00  0.00    -0.340 N 
HETATM    2  C   UNL     1     -42.555 -45.678  10.964  1.00  0.00     0.320 C 
HETATM    3  O   UNL     1     -41.910 -45.255  10.014  1.00  0.00    -0.247 OA
HETATM    4  N   UNL     1     -43.623 -46.537  10.896  1.00  0.00    -0.309 N 
HETATM    5  H   UNL     1     -42.902 -45.438  12.996  1.00  0.00     0.164 HD
HETATM    6  H   UNL     1     -44.201 -46.607  11.719  1.00  0.00     0.170 HD
ENDROOT
BRANCH   1   7
HETATM    7  C   UNL     1     -41.156 -44.378  12.479  1.00  0.00     0.157 C 
BRANCH   7   8
HETATM    8  C   UNL     1     -40.311 -44.772  13.691  1.00  0.00     0.164 C 
BRANCH   8   9
HETATM    9  C   UNL     1     -40.267 -46.317  13.802  1.00  0.00     0.305 C 
BRANCH   9  10
HETATM   10  N   UNL     1     -39.139 -46.973  13.114  1.00  0.00     0.091 N 
HETATM   11  C   UNL     1     -39.608 -47.845  12.021  1.00  0.00     0.273 C 
HETATM   12  C   UNL     1     -40.309 -49.124  12.498  1.00  0.00     0.034 C 
HETATM   13  C   UNL     1     -39.461 -49.924  13.496  1.00  0.00    -0.015 C 
HETATM   14  C   UNL     1     -38.338 -50.688  12.787  1.00  0.00     0.010 C 
HETATM   15  C   UNL     1     -38.908 -48.999  14.590  1.00  0.00     0.034 C 
HETATM   16  C   UNL     1     -38.258 -47.736  14.014  1.00  0.00     0.273 C 
ENDBRANCH   9  10
ENDBRANCH   8   9
BRANCH   8  17
HETATM   17  O   UNL     1     -39.008 -44.195  13.533  1.00  0.00    -0.392 OA
HETATM   18  H   UNL     1     -39.065 -43.270  13.833  1.00  0.00     0.210 HD
ENDBRANCH   8  17
ENDBRANCH   7   8
ENDBRANCH   1   7
BRANCH   4  19
HETATM   19  C   UNL     1     -44.073 -47.172   9.718  1.00  0.00     0.038 A 
HETATM   20  C   UNL     1     -43.215 -47.538   8.683  1.00  0.00     0.046 A 
HETATM   21  C   UNL     1     -43.747 -48.127   7.552  1.00  0.00     0.090 A 
HETATM   22  N   UNL     1     -45.061 -48.385   7.392  1.00  0.00    -0.375 N 
HETATM   23  C   UNL     1     -45.871 -48.043   8.416  1.00  0.00     0.090 A 
ATOM     24  HN  UNL     1     -45.424 -48.815   6.541  1.00  0.00     0.164 HD
HETATM   25  C   UNL     1     -45.429 -47.451   9.591  1.00  0.00     0.046 A 
ENDBRANCH   4  19
TORSDOF 6
ENDMDL
MODEL 8
REMARK VINA RESULT:      -5.4      1.879      2.718
REMARK  6 active torsions:
REMARK  status: ('A' for Active; 'I' for Inactive)
REMARK    1  A    between atoms: N_5  and  C_6 
REMARK    2  A    between atoms: C_6  and  C_7 
REMARK    3  A    between atoms: C_7  and  O_8 
REMARK    4  A    between atoms: C_7  and  C_9 
REMARK    5  A    between atoms: C_9  and  N_10 
REMARK       I    between atoms: N_10  and  C_11 
REMARK       I    between atoms: C_11  and  N_13 
REMARK    6  A    between atoms: N_13  and  C_14 
ROOT
HETATM    1  N   UNL     1     -40.726 -51.554  11.309  1.00  0.00    -0.340 N 
HETATM    2  C   UNL     1     -41.318 -50.330  11.488  1.00  0.00     0.320 C 
HETATM    3  O   UNL     1     -42.181 -50.167  12.339  1.00  0.00    -0.247 OA
HETATM    4  N   UNL     1     -40.816 -49.365  10.651  1.00  0.00    -0.309 N 
HETATM    5  H   UNL     1     -40.236 -51.764  10.450  1.00  0.00     0.164 HD
HETATM    6  H   UNL     1     -40.296 -49.686   9.850  1.00  0.00     0.170 HD
ENDROOT
BRANCH   1   7
HETATM    7  C   UNL     1     -41.194 -52.691  12.082  1.00  0.00     0.157 C 
BRANCH   7   8
HETATM    8  C   UNL     1     -40.301 -52.944  13.296  1.00  0.00     0.164 C 
BRANCH   8   9
HETATM    9  C   UNL     1     -41.172 -52.954  14.578  1.00  0.00     0.305 C 
BRANCH   9  10
HETATM   10  N   UNL     1     -42.621 -53.124  14.361  1.00  0.00     0.091 N 
HETATM   11  C   UNL     1     -43.400 -52.116  15.105  1.00  0.00     0.273 C 
HETATM   12  C   UNL     1     -43.408 -52.328  16.624  1.00  0.00     0.034 C 
HETATM   13  C   UNL     1     -43.849 -53.743  17.020  1.00  0.00    -0.015 C 
HETATM   14  C   UNL     1     -45.365 -53.912  16.890  1.00  0.00     0.010 C 
HETATM   15  C   UNL     1     -43.094 -54.790  16.188  1.00  0.00     0.034 C 
HETATM   16  C   UNL     1     -43.115 -54.472  14.689  1.00  0.00     0.273 C 
ENDBRANCH   9  10
ENDBRANCH   8   9
BRANCH   8  17
HETATM   17  O   UNL     1     -39.611 -54.185  13.091  1.00  0.00    -0.392 OA
HETATM   18  H   UNL     1     -39.615 -54.361  12.134  1.00  0.00     0.210 HD
ENDBRANCH   8  17
ENDBRANCH   7   8
ENDBRANCH   1   7
BRANCH   4  19
HETATM   19  C   UNL     1     -41.132 -47.991  10.724  1.00  0.00     0.038 A 
HETATM   20  C   UNL     1     -42.319 -47.463  10.218  1.00  0.00     0.046 A 
HETATM   21  C   UNL     1     -42.533 -46.100  10.305  1.00  0.00     0.090 A 
HETATM   22  N   UNL     1     -41.658 -45.241  10.867  1.00  0.00    -0.375 N 
HETATM   23  C   UNL     1     -40.526 -45.777  11.370  1.00  0.00     0.090 A 
ATOM     24  HN  UNL     1     -41.842 -44.238  10.909  1.00  0.00     0.164 HD
HETATM   25  C   UNL     1     -40.226 -47.132  11.333  1.00  0.00     0.046 A 
ENDBRANCH   4  19
TORSDOF 6
ENDMDL
MODEL 9
REMARK VINA RESULT:      -5.4      2.462      7.859
REMARK  6 active torsions:
REMARK  status: ('A' for Active; 'I' for Inactive)
REMARK    1  A    between atoms: N_5  and  C_6 
REMARK    2  A    between atoms: C_6  and  C_7 
REMARK    3  A    between atoms: C_7  and  O_8 
REMARK    4  A    between atoms: C_7  and  C_9 
REMARK    5  A    between atoms: C_9  and  N_10 
REMARK       I    between atoms: N_10  and  C_11 
REMARK       I    between atoms: C_11  and  N_13 
REMARK    6  A    between atoms: N_13  and  C_14 
ROOT
HETATM    1  N   UNL     1     -43.320 -49.642  12.090  1.00  0.00    -0.340 N 
HETATM    2  C   UNL     1     -43.829 -50.428  13.091  1.00  0.00     0.320 C 
HETATM    3  O   UNL     1     -43.823 -50.050  14.254  1.00  0.00    -0.247 OA
HETATM    4  N   UNL     1     -44.344 -51.615  12.631  1.00  0.00    -0.309 N 
HETATM    5  H   UNL     1     -43.069 -50.047  11.198  1.00  0.00     0.164 HD
HETATM    6  H   UNL     1     -44.067 -51.900  11.704  1.00  0.00     0.170 HD
ENDROOT
BRANCH   1   7
HETATM    7  C   UNL     1     -42.686 -48.380  12.429  1.00  0.00     0.157 C 
BRANCH   7   8
HETATM    8  C   UNL     1     -42.580 -47.465  11.209  1.00  0.00     0.164 C 
BRANCH   8   9
HETATM    9  C   UNL     1     -41.176 -46.810  11.183  1.00  0.00     0.305 C 
BRANCH   9  10
HETATM   10  N   UNL     1     -41.104 -45.485  10.537  1.00  0.00     0.091 N 
HETATM   11  C   UNL     1     -39.757 -44.896  10.663  1.00  0.00     0.273 C 
HETATM   12  C   UNL     1     -39.407 -44.434  12.084  1.00  0.00     0.034 C 
HETATM   13  C   UNL     1     -40.462 -43.489  12.674  1.00  0.00    -0.015 C 
HETATM   14  C   UNL     1     -40.344 -42.082  12.082  1.00  0.00     0.010 C 
HETATM   15  C   UNL     1     -41.871 -44.067  12.470  1.00  0.00     0.034 C 
HETATM   16  C   UNL     1     -42.110 -44.530  11.029  1.00  0.00     0.273 C 
ENDBRANCH   9  10
ENDBRANCH   8   9
BRANCH   8  17
HETATM   17  O   UNL     1     -42.841 -48.250  10.037  1.00  0.00    -0.392 OA
HETATM   18  H   UNL     1     -43.774 -48.526  10.078  1.00  0.00     0.210 HD
ENDBRANCH   8  17
ENDBRANCH   7   8
ENDBRANCH   1   7
BRANCH   4  19
HETATM   19  C   UNL     1     -45.063 -52.541  13.417  1.00  0.00     0.038 A 
HETATM   20  C   UNL     1     -46.334 -52.273  13.924  1.00  0.00     0.046 A 
HETATM   21  C   UNL     1     -46.952 -53.226  14.712  1.00  0.00     0.090 A 
HETATM   22  N   UNL     1     -46.400 -54.419  15.013  1.00  0.00    -0.375 N 
HETATM   23  C   UNL     1     -45.179 -54.666  14.492  1.00  0.00     0.090 A 
ATOM     24  HN  UNL     1     -46.880 -55.100  15.603  1.00  0.00     0.164 HD
HETATM   25  C   UNL     1     -44.483 -53.773  13.689  1.00  0.00     0.046 A 
ENDBRANCH   4  19
TORSDOF 6
ENDMDL
