MODEL 1
REMARK VINA RESULT:      -5.8      0.000      0.000
REMARK  2 active torsions:
REMARK  status: ('A' for Active; 'I' for Inactive)
REMARK    1  A    between atoms: C_5  and  C_7 
REMARK       I    between atoms: C_7  and  N_9 
REMARK    2  A    between atoms: N_9  and  C_10 
ROOT
HETATM    1  C   UNL     1     -41.947 -54.272  13.831  1.00  0.00     0.251 C 
HETATM    2  O   UNL     1     -41.986 -54.571  15.022  1.00  0.00    -0.270 OA
HETATM    3  N   UNL     1     -43.068 -53.998  13.067  1.00  0.00    -0.322 N 
HETATM    4  H   UNL     1     -42.983 -54.100  12.059  1.00  0.00     0.169 HD
ENDROOT
BRANCH   3   5
HETATM    5  C   UNL     1     -44.368 -53.915  13.610  1.00  0.00     0.074 A 
HETATM    6  C   UNL     1     -45.191 -55.037  13.723  1.00  0.00     0.119 A 
HETATM    7  N   UNL     1     -46.441 -55.012  14.230  1.00  0.00    -0.371 N 
HETATM    8  C   UNL     1     -46.917 -53.809  14.620  1.00  0.00     0.113 A 
ATOM      9  HN  UNL     1     -47.000 -55.861  14.316  1.00  0.00     0.164 HD
HETATM   10  C   UNL     1     -46.190 -52.630  14.555  1.00  0.00     0.073 A 
HETATM   11 CL   UNL     1     -46.949 -51.162  15.044  1.00  0.00    -0.081 Cl
HETATM   12  C   UNL     1     -44.881 -52.695  14.066  1.00  0.00     0.085 A 
HETATM   13 CL   UNL     1     -43.904 -51.264  13.932  1.00  0.00    -0.080 Cl
ENDBRANCH   3   5
BRANCH   1  14
HETATM   14  C   UNL     1     -40.638 -54.222  13.026  1.00  0.00     0.214 C 
HETATM   15  C   UNL     1     -39.407 -54.277  13.917  1.00  0.00     0.044 C 
HETATM   16  C   UNL     1     -39.043 -52.822  14.148  1.00  0.00     0.034 C 
HETATM   17  C   UNL     1     -40.016 -52.036  13.280  1.00  0.00     0.118 C 
HETATM   18  C   UNL     1     -39.388 -50.856  12.568  1.00  0.00     0.039 C 
HETATM   19  O   UNL     1     -40.537 -52.976  12.325  1.00  0.00    -0.372 OA
ENDBRANCH   1  14
TORSDOF 2
ENDMDL
MODEL 2
REMARK VINA RESULT:      -5.4      2.894      6.156
REMARK  2 active torsions:
REMARK  status: ('A' for Active; 'I' for Inactive)
REMARK    1  A    between atoms: C_5  and  C_7 
REMARK       I    between atoms: C_7  and  N_9 
REMARK    2  A    between atoms: N_9  and  C_10 
ROOT
HETATM    1  C   UNL     1     -43.290 -52.070  13.752  1.00  0.00     0.251 C 
HETATM    2  O   UNL     1     -42.679 -51.743  14.766  1.00  0.00    -0.270 OA
HETATM    3  N   UNL     1     -42.931 -51.679  12.473  1.00  0.00    -0.322 N 
HETATM    4  H   UNL     1     -43.654 -51.698  11.759  1.00  0.00     0.169 HD
ENDROOT
BRANCH   3   5
HETATM    5  C   UNL     1     -41.749 -50.961  12.193  1.00  0.00     0.074 A 
HETATM    6  C   UNL     1     -40.509 -51.595  12.095  1.00  0.00     0.119 A 
HETATM    7  N   UNL     1     -39.349 -50.956  11.833  1.00  0.00    -0.371 N 
HETATM    8  C   UNL     1     -39.412 -49.614  11.691  1.00  0.00     0.113 A 
ATOM      9  HN  UNL     1     -38.468 -51.462  11.747  1.00  0.00     0.164 HD
HETATM   10  C   UNL     1     -40.587 -48.880  11.767  1.00  0.00     0.073 A 
HETATM   11 CL   UNL     1     -40.502 -47.165  11.613  1.00  0.00    -0.081 Cl
HETATM   12  C   UNL     1     -41.779 -49.576  11.995  1.00  0.00     0.085 A 
HETATM   13 CL   UNL     1     -43.294 -48.735  12.124  1.00  0.00    -0.080 Cl
ENDBRANCH   3   5
BRANCH   1  14
HETATM   14  C   UNL     1     -44.575 -52.914  13.789  1.00  0.00     0.214 C 
HETATM   15  C   UNL     1     -45.548 -52.539  12.682  1.00  0.00     0.044 C 
HETATM   16  C   UNL     1     -46.477 -51.525  13.323  1.00  0.00     0.034 C 
HETATM   17  C   UNL     1     -46.050 -51.477  14.784  1.00  0.00     0.118 C 
HETATM   18  C   UNL     1     -47.207 -51.397  15.759  1.00  0.00     0.039 C 
HETATM   19  O   UNL     1     -45.288 -52.674  15.009  1.00  0.00    -0.372 OA
ENDBRANCH   1  14
TORSDOF 2
ENDMDL
MODEL 3
REMARK VINA RESULT:      -5.3      1.688      2.396
REMARK  2 active torsions:
REMARK  status: ('A' for Active; 'I' for Inactive)
REMARK    1  A    between atoms: C_5  and  C_7 
REMARK       I    between atoms: C_7  and  N_9 
REMARK    2  A    between atoms: N_9  and  C_10 
ROOT
HETATM    1  C   UNL     1     -40.542 -52.649  13.261  1.00  0.00     0.251 C 
HETATM    2  O   UNL     1     -40.659 -53.192  12.165  1.00  0.00    -0.270 OA
HETATM    3  N   UNL     1     -41.599 -52.410  14.122  1.00  0.00    -0.322 N 
HETATM    4  H   UNL     1     -41.479 -51.678  14.817  1.00  0.00     0.169 HD
ENDROOT
BRANCH   3   5
HETATM    5  C   UNL     1     -42.909 -52.876  13.879  1.00  0.00     0.074 A 
HETATM    6  C   UNL     1     -43.259 -54.215  14.063  1.00  0.00     0.119 A 
HETATM    7  N   UNL     1     -44.494 -54.713  13.841  1.00  0.00    -0.371 N 
HETATM    8  C   UNL     1     -45.426 -53.849  13.383  1.00  0.00     0.113 A 
ATOM      9  HN  UNL     1     -44.712 -55.695  14.011  1.00  0.00     0.164 HD
HETATM   10  C   UNL     1     -45.192 -52.499  13.165  1.00  0.00     0.073 A 
HETATM   11 CL   UNL     1     -46.468 -51.530  12.531  1.00  0.00    -0.081 Cl
HETATM   12  C   UNL     1     -43.914 -52.004  13.447  1.00  0.00     0.085 A 
HETATM   13 CL   UNL     1     -43.526 -50.330  13.184  1.00  0.00    -0.080 Cl
ENDBRANCH   3   5
BRANCH   1  14
HETATM   14  C   UNL     1     -39.199 -52.114  13.787  1.00  0.00     0.214 C 
HETATM   15  C   UNL     1     -39.355 -50.815  14.559  1.00  0.00     0.044 C 
HETATM   16  C   UNL     1     -39.113 -49.730  13.527  1.00  0.00     0.034 C 
HETATM   17  C   UNL     1     -38.718 -50.479  12.262  1.00  0.00     0.118 C 
HETATM   18  C   UNL     1     -37.592 -49.826  11.488  1.00  0.00     0.039 C 
HETATM   19  O   UNL     1     -38.332 -51.795  12.691  1.00  0.00    -0.372 OA
ENDBRANCH   1  14
TORSDOF 2
ENDMDL
MODEL 4
REMARK VINA RESULT:      -5.3      2.378      3.022
REMARK  2 active torsions:
REMARK  status: ('A' for Active; 'I' for Inactive)
REMARK    1  A    between atoms: C_5  and  C_7 
REMARK       I    between atoms: C_7  and  N_9 
REMARK    2  A    between atoms: N_9  and  C_10 
ROOT
HETATM    1  C   UNL     1     -40.632 -52.460  13.121  1.00  0.00     0.251 C 
HETATM    2  O   UNL     1     -40.739 -52.959  12.003  1.00  0.00    -0.270 OA
HETATM    3  N   UNL     1     -41.708 -52.120  13.922  1.00  0.00    -0.322 N 
HETATM    4  H   UNL     1     -41.551 -51.424  14.646  1.00  0.00     0.169 HD
ENDROOT
BRANCH   3   5
HETATM    5  C   UNL     1     -43.044 -52.426  13.584  1.00  0.00     0.074 A 
HETATM    6  C   UNL     1     -43.890 -51.481  12.999  1.00  0.00     0.119 A 
HETATM    7  N   UNL     1     -45.174 -51.720  12.661  1.00  0.00    -0.371 N 
HETATM    8  C   UNL     1     -45.660 -52.948  12.943  1.00  0.00     0.113 A 
ATOM      9  HN  UNL     1     -45.750 -51.007  12.213  1.00  0.00     0.164 HD
HETATM   10  C   UNL     1     -44.914 -53.964  13.522  1.00  0.00     0.073 A 
HETATM   11 CL   UNL     1     -45.686 -55.465  13.868  1.00  0.00    -0.081 Cl
HETATM   12  C   UNL     1     -43.572 -53.700  13.820  1.00  0.00     0.085 A 
HETATM   13 CL   UNL     1     -42.568 -54.908  14.564  1.00  0.00    -0.080 Cl
ENDBRANCH   3   5
BRANCH   1  14
HETATM   14  C   UNL     1     -39.274 -52.097  13.745  1.00  0.00     0.214 C 
HETATM   15  C   UNL     1     -39.338 -50.824  14.573  1.00  0.00     0.044 C 
HETATM   16  C   UNL     1     -38.921 -49.727  13.611  1.00  0.00     0.034 C 
HETATM   17  C   UNL     1     -38.533 -50.458  12.333  1.00  0.00     0.118 C 
HETATM   18  C   UNL     1     -37.300 -49.897  11.655  1.00  0.00     0.039 C 
HETATM   19  O   UNL     1     -38.314 -51.826  12.716  1.00  0.00    -0.372 OA
ENDBRANCH   1  14
TORSDOF 2
ENDMDL
MODEL 5
REMARK VINA RESULT:      -5.2      3.947      6.162
REMARK  2 active torsions:
REMARK  status: ('A' for Active; 'I' for Inactive)
REMARK    1  A    between atoms: C_5  and  C_7 
REMARK       I    between atoms: C_7  and  N_9 
REMARK    2  A    between atoms: N_9  and  C_10 
ROOT
HETATM    1  C   UNL     1     -41.713 -51.225  12.098  1.00  0.00     0.251 C 
HETATM    2  O   UNL     1     -42.612 -50.734  12.777  1.00  0.00    -0.270 OA
HETATM    3  N   UNL     1     -40.863 -50.487  11.291  1.00  0.00    -0.322 N 
HETATM    4  H   UNL     1     -40.400 -50.976  10.530  1.00  0.00     0.169 HD
ENDROOT
BRANCH   3   5
HETATM    5  C   UNL     1     -40.867 -49.076  11.259  1.00  0.00     0.074 A 
HETATM    6  C   UNL     1     -41.605 -48.363  10.313  1.00  0.00     0.119 A 
HETATM    7  N   UNL     1     -41.640 -47.016  10.237  1.00  0.00    -0.371 N 
HETATM    8  C   UNL     1     -40.879 -46.336  11.122  1.00  0.00     0.113 A 
ATOM      9  HN  UNL     1     -42.212 -46.535   9.543  1.00  0.00     0.164 HD
HETATM   10  C   UNL     1     -40.107 -46.938  12.105  1.00  0.00     0.073 A 
HETATM   11 CL   UNL     1     -39.150 -45.939  13.133  1.00  0.00    -0.081 Cl
HETATM   12  C   UNL     1     -40.127 -48.334  12.187  1.00  0.00     0.085 A 
HETATM   13 CL   UNL     1     -39.175 -49.173  13.375  1.00  0.00    -0.080 Cl
ENDBRANCH   3   5
BRANCH   1  14
HETATM   14  C   UNL     1     -41.459 -52.739  12.020  1.00  0.00     0.214 C 
HETATM   15  C   UNL     1     -42.357 -53.527  12.959  1.00  0.00     0.044 C 
HETATM   16  C   UNL     1     -41.531 -53.693  14.222  1.00  0.00     0.034 C 
HETATM   17  C   UNL     1     -40.174 -53.094  13.879  1.00  0.00     0.118 C 
HETATM   18  C   UNL     1     -39.000 -53.885  14.418  1.00  0.00     0.039 C 
HETATM   19  O   UNL     1     -40.122 -53.038  12.444  1.00  0.00    -0.372 OA
ENDBRANCH   1  14
TORSDOF 2
ENDMDL
MODEL 6
REMARK VINA RESULT:      -5.1      2.772      6.166
REMARK  2 active torsions:
REMARK  status: ('A' for Active; 'I' for Inactive)
REMARK    1  A    between atoms: C_5  and  C_7 
REMARK       I    between atoms: C_7  and  N_9 
REMARK    2  A    between atoms: N_9  and  C_10 
ROOT
HETATM    1  C   UNL     1     -44.256 -51.276  13.121  1.00  0.00     0.251 C 
HETATM    2  O   UNL     1     -44.026 -50.315  13.850  1.00  0.00    -0.270 OA
HETATM    3  N   UNL     1     -43.281 -51.969  12.424  1.00  0.00    -0.322 N 
HETATM    4  H   UNL     1     -43.577 -52.500  11.610  1.00  0.00     0.169 HD
ENDROOT
BRANCH   3   5
HETATM    5  C   UNL     1     -41.901 -51.715  12.578  1.00  0.00     0.074 A 
HETATM    6  C   UNL     1     -41.211 -50.855  11.721  1.00  0.00     0.119 A 
HETATM    7  N   UNL     1     -39.894 -50.582  11.821  1.00  0.00    -0.371 N 
HETATM    8  C   UNL     1     -39.212 -51.216  12.800  1.00  0.00     0.113 A 
ATOM      9  HN  UNL     1     -39.434 -49.928  11.188  1.00  0.00     0.164 HD
HETATM   10  C   UNL     1     -39.792 -52.090  13.708  1.00  0.00     0.073 A 
HETATM   11 CL   UNL     1     -38.784 -52.863  14.873  1.00  0.00    -0.081 Cl
HETATM   12  C   UNL     1     -41.169 -52.318  13.607  1.00  0.00     0.085 A 
HETATM   13 CL   UNL     1     -41.976 -53.413  14.690  1.00  0.00    -0.080 Cl
ENDBRANCH   3   5
BRANCH   1  14
HETATM   14  C   UNL     1     -45.679 -51.793  12.847  1.00  0.00     0.214 C 
HETATM   15  C   UNL     1     -46.651 -51.430  13.957  1.00  0.00     0.044 C 
HETATM   16  C   UNL     1     -46.644 -52.637  14.876  1.00  0.00     0.034 C 
HETATM   17  C   UNL     1     -45.761 -53.657  14.170  1.00  0.00     0.118 C 
HETATM   18  C   UNL     1     -46.282 -55.077  14.246  1.00  0.00     0.039 C 
HETATM   19  O   UNL     1     -45.682 -53.226  12.801  1.00  0.00    -0.372 OA
ENDBRANCH   1  14
TORSDOF 2
ENDMDL
MODEL 7
REMARK VINA RESULT:      -5.1      3.756      5.435
REMARK  2 active torsions:
REMARK  status: ('A' for Active; 'I' for Inactive)
REMARK    1  A    between atoms: C_5  and  C_7 
REMARK       I    between atoms: C_7  and  N_9 
REMARK    2  A    between atoms: N_9  and  C_10 
ROOT
HETATM    1  C   UNL     1     -41.993 -49.197  12.858  1.00  0.00     0.251 C 
HETATM    2  O   UNL     1     -41.010 -49.277  13.591  1.00  0.00    -0.270 OA
HETATM    3  N   UNL     1     -42.583 -50.283  12.235  1.00  0.00    -0.322 N 
HETATM    4  H   UNL     1     -43.145 -50.099  11.409  1.00  0.00     0.169 HD
ENDROOT
BRANCH   3   5
HETATM    5  C   UNL     1     -42.186 -51.616  12.476  1.00  0.00     0.074 A 
HETATM    6  C   UNL     1     -41.145 -52.214  11.763  1.00  0.00     0.119 A 
HETATM    7  N   UNL     1     -40.730 -53.484  11.950  1.00  0.00    -0.371 N 
HETATM    8  C   UNL     1     -41.398 -54.214  12.870  1.00  0.00     0.113 A 
ATOM      9  HN  UNL     1     -39.949 -53.874  11.423  1.00  0.00     0.164 HD
HETATM   10  C   UNL     1     -42.446 -53.725  13.636  1.00  0.00     0.073 A 
HETATM   11 CL   UNL     1     -43.234 -54.792  14.737  1.00  0.00    -0.081 Cl
HETATM   12  C   UNL     1     -42.824 -52.391  13.451  1.00  0.00     0.085 A 
HETATM   13 CL   UNL     1     -44.139 -51.701  14.354  1.00  0.00    -0.080 Cl
ENDBRANCH   3   5
BRANCH   1  14
HETATM   14  C   UNL     1     -42.657 -47.857  12.498  1.00  0.00     0.214 C 
HETATM   15  C   UNL     1     -43.359 -47.902  11.150  1.00  0.00     0.044 C 
HETATM   16  C   UNL     1     -42.326 -47.383  10.168  1.00  0.00     0.034 C 
HETATM   17  C   UNL     1     -41.144 -46.965  11.033  1.00  0.00     0.118 C 
HETATM   18  C   UNL     1     -40.489 -45.673  10.592  1.00  0.00     0.039 C 
HETATM   19  O   UNL     1     -41.663 -46.833  12.366  1.00  0.00    -0.372 OA
ENDBRANCH   1  14
TORSDOF 2
ENDMDL
MODEL 8
REMARK VINA RESULT:      -5.0      3.025      6.018
REMARK  2 active torsions:
REMARK  status: ('A' for Active; 'I' for Inactive)
REMARK    1  A    between atoms: C_5  and  C_7 
REMARK       I    between atoms: C_7  and  N_9 
REMARK    2  A    between atoms: N_9  and  C_10 
ROOT
HETATM    1  C   UNL     1     -42.448 -53.295  13.867  1.00  0.00     0.251 C 
HETATM    2  O   UNL     1     -42.088 -53.982  12.915  1.00  0.00    -0.270 OA
HETATM    3  N   UNL     1     -42.023 -51.996  14.088  1.00  0.00    -0.322 N 
HETATM    4  H   UNL     1     -42.087 -51.639  15.037  1.00  0.00     0.169 HD
ENDROOT
BRANCH   3   5
HETATM    5  C   UNL     1     -41.220 -51.284  13.171  1.00  0.00     0.074 A 
HETATM    6  C   UNL     1     -41.778 -50.494  12.164  1.00  0.00     0.119 A 
HETATM    7  N   UNL     1     -41.057 -49.798  11.260  1.00  0.00    -0.371 N 
HETATM    8  C   UNL     1     -39.713 -49.911  11.335  1.00  0.00     0.113 A 
ATOM      9  HN  UNL     1     -41.506 -49.214  10.555  1.00  0.00     0.164 HD
HETATM   10  C   UNL     1     -39.050 -50.666  12.292  1.00  0.00     0.073 A 
HETATM   11 CL   UNL     1     -37.330 -50.754  12.231  1.00  0.00    -0.081 Cl
HETATM   12  C   UNL     1     -39.824 -51.340  13.243  1.00  0.00     0.085 A 
HETATM   13 CL   UNL     1     -39.079 -52.325  14.466  1.00  0.00    -0.080 Cl
ENDBRANCH   3   5
BRANCH   1  14
HETATM   14  C   UNL     1     -43.382 -53.822  14.970  1.00  0.00     0.214 C 
HETATM   15  C   UNL     1     -44.036 -55.142  14.594  1.00  0.00     0.044 C 
HETATM   16  C   UNL     1     -45.367 -54.744  13.985  1.00  0.00     0.034 C 
HETATM   17  C   UNL     1     -45.439 -53.234  14.161  1.00  0.00     0.118 C 
HETATM   18  C   UNL     1     -46.808 -52.727  14.563  1.00  0.00     0.039 C 
HETATM   19  O   UNL     1     -44.470 -52.911  15.172  1.00  0.00    -0.372 OA
ENDBRANCH   1  14
TORSDOF 2
ENDMDL
MODEL 9
REMARK VINA RESULT:      -4.9      3.563      6.553
REMARK  2 active torsions:
REMARK  status: ('A' for Active; 'I' for Inactive)
REMARK    1  A    between atoms: C_5  and  C_7 
REMARK       I    between atoms: C_7  and  N_9 
REMARK    2  A    between atoms: N_9  and  C_10 
ROOT
HETATM    1  C   UNL     1     -43.366 -51.437  13.864  1.00  0.00     0.251 C 
HETATM    2  O   UNL     1     -42.824 -50.964  14.860  1.00  0.00    -0.270 OA
HETATM    3  N   UNL     1     -43.106 -51.020  12.570  1.00  0.00    -0.322 N 
HETATM    4  H   UNL     1     -43.817 -51.206  11.868  1.00  0.00     0.169 HD
ENDROOT
BRANCH   3   5
HETATM    5  C   UNL     1     -42.096 -50.087  12.252  1.00  0.00     0.074 A 
HETATM    6  C   UNL     1     -42.381 -48.735  12.048  1.00  0.00     0.119 A 
HETATM    7  N   UNL     1     -41.455 -47.804  11.739  1.00  0.00    -0.371 N 
HETATM    8  C   UNL     1     -40.183 -48.235  11.591  1.00  0.00     0.113 A 
ATOM      9  HN  UNL     1     -41.704 -46.822  11.621  1.00  0.00     0.164 HD
HETATM   10  C   UNL     1     -39.784 -49.551  11.769  1.00  0.00     0.073 A 
HETATM   11 CL   UNL     1     -38.132 -49.960  11.499  1.00  0.00    -0.081 Cl
HETATM   12  C   UNL     1     -40.760 -50.486  12.134  1.00  0.00     0.085 A 
HETATM   13 CL   UNL     1     -40.354 -52.160  12.359  1.00  0.00    -0.080 Cl
ENDBRANCH   3   5
BRANCH   1  14
HETATM   14  C   UNL     1     -44.454 -52.522  13.944  1.00  0.00     0.214 C 
HETATM   15  C   UNL     1     -45.491 -52.386  12.842  1.00  0.00     0.044 C 
HETATM   16  C   UNL     1     -46.601 -51.562  13.468  1.00  0.00     0.034 C 
HETATM   17  C   UNL     1     -46.180 -51.383  14.920  1.00  0.00     0.118 C 
HETATM   18  C   UNL     1     -47.320 -51.509  15.909  1.00  0.00     0.039 C 
HETATM   19  O   UNL     1     -45.190 -52.394  15.168  1.00  0.00    -0.372 OA
ENDBRANCH   1  14
TORSDOF 2
ENDMDL
