MODEL 1
REMARK VINA RESULT:      -5.0      0.000      0.000
REMARK  5 active torsions:
REMARK  status: ('A' for Active; 'I' for Inactive)
REMARK    1  A    between atoms: C_2  and  C_3 
REMARK    2  A    between atoms: C_2  and  N_10 
REMARK    3  A    between atoms: C_3  and  N_4 
REMARK       I    between atoms: N_10  and  C_11 
REMARK    4  A    between atoms: C_11  and  C_13 
REMARK    5  A    between atoms: C_13  and  N_14 
ROOT
HETATM    1  N   UNL     1     -41.350 -47.676  10.347  1.00  0.00    -0.354 N 
HETATM    2  C   UNL     1     -41.411 -48.821  11.123  1.00  0.00     0.235 C 
HETATM    3  O   UNL     1     -42.335 -49.042  11.901  1.00  0.00    -0.272 OA
HETATM    4  H   UNL     1     -40.638 -47.614   9.629  1.00  0.00     0.163 HD
ENDROOT
BRANCH   1   5
HETATM    5  C   UNL     1     -42.459 -46.714  10.309  1.00  0.00     0.098 C 
HETATM    6  C   UNL     1     -41.974 -45.364  10.839  1.00  0.00     0.034 C 
BRANCH   5   7
HETATM    7  C   UNL     1     -43.054 -46.599   8.889  1.00  0.00     0.153 C 
BRANCH   7   8
HETATM    8  N   UNL     1     -44.310 -47.302   8.714  1.00  0.00    -0.350 N 
HETATM    9  C   UNL     1     -45.413 -47.209   9.517  1.00  0.00     0.108 A 
HETATM   10  C   UNL     1     -46.341 -48.048   8.943  1.00  0.00     0.106 A 
HETATM   11  N   UNL     1     -45.831 -48.637   7.816  1.00  0.00    -0.361 N 
HETATM   12  C   UNL     1     -44.615 -48.154   7.691  1.00  0.00     0.182 A 
ATOM     13  HN  UNL     1     -46.296 -49.307   7.204  1.00  0.00     0.166 HD
ENDBRANCH   7   8
ENDBRANCH   5   7
ENDBRANCH   1   5
BRANCH   2  14
HETATM   14  C   UNL     1     -40.190 -49.743  10.973  1.00  0.00     0.229 C 
BRANCH  14  15
HETATM   15  N   UNL     1     -39.477 -49.905  12.230  1.00  0.00    -0.334 N 
HETATM   16  C   UNL     1     -38.822 -48.786  12.868  1.00  0.00     0.138 C 
HETATM   17  C   UNL     1     -38.400 -49.173  14.276  1.00  0.00     0.104 C 
HETATM   18  S   UNL     1     -38.578 -50.968  14.381  1.00  0.00    -0.068 SA
HETATM   19  C   UNL     1     -39.455 -51.108  12.877  1.00  0.00     0.282 C 
HETATM   20  O   UNL     1     -39.950 -52.151  12.479  1.00  0.00    -0.260 OA
ENDBRANCH  14  15
ENDBRANCH   2  14
TORSDOF 5
ENDMDL
MODEL 2
REMARK VINA RESULT:      -5.0      3.103      3.668
REMARK  5 active torsions:
REMARK  status: ('A' for Active; 'I' for Inactive)
REMARK    1  A    between atoms: C_2  and  C_3 
REMARK    2  A    between atoms: C_2  and  N_10 
REMARK    3  A    between atoms: C_3  and  N_4 
REMARK       I    between atoms: N_10  and  C_11 
REMARK    4  A    between atoms: C_11  and  C_13 
REMARK    5  A    between atoms: C_13  and  N_14 
ROOT
HETATM    1  N   UNL     1     -41.988 -49.629  11.312  1.00  0.00    -0.354 N 
HETATM    2  C   UNL     1     -42.274 -50.408  12.420  1.00  0.00     0.235 C 
HETATM    3  O   UNL     1     -42.826 -49.955  13.419  1.00  0.00    -0.272 OA
HETATM    4  H   UNL     1     -41.657 -50.086  10.471  1.00  0.00     0.163 HD
ENDROOT
BRANCH   1   5
HETATM    5  C   UNL     1     -42.449 -48.239  11.210  1.00  0.00     0.098 C 
HETATM    6  C   UNL     1     -41.467 -47.327  11.947  1.00  0.00     0.034 C 
BRANCH   5   7
HETATM    7  C   UNL     1     -42.637 -47.817   9.737  1.00  0.00     0.153 C 
BRANCH   7   8
HETATM    8  N   UNL     1     -43.938 -47.246   9.446  1.00  0.00    -0.350 N 
HETATM    9  C   UNL     1     -45.152 -47.841   9.651  1.00  0.00     0.108 A 
HETATM   10  C   UNL     1     -46.077 -46.912   9.231  1.00  0.00     0.106 A 
HETATM   11  N   UNL     1     -45.455 -45.775   8.786  1.00  0.00    -0.361 N 
HETATM   12  C   UNL     1     -44.170 -45.997   8.945  1.00  0.00     0.182 A 
ATOM     13  HN  UNL     1     -45.896 -44.936   8.410  1.00  0.00     0.166 HD
ENDBRANCH   7   8
ENDBRANCH   5   7
ENDBRANCH   1   5
BRANCH   2  14
HETATM   14  C   UNL     1     -41.775 -51.858  12.312  1.00  0.00     0.229 C 
BRANCH  14  15
HETATM   15  N   UNL     1     -42.673 -52.791  12.973  1.00  0.00    -0.334 N 
HETATM   16  C   UNL     1     -43.954 -53.132  12.397  1.00  0.00     0.138 C 
HETATM   17  C   UNL     1     -44.553 -54.314  13.142  1.00  0.00     0.104 C 
HETATM   18  S   UNL     1     -43.564 -54.520  14.641  1.00  0.00    -0.068 SA
HETATM   19  C   UNL     1     -42.307 -53.420  14.129  1.00  0.00     0.282 C 
HETATM   20  O   UNL     1     -41.269 -53.246  14.749  1.00  0.00    -0.260 OA
ENDBRANCH  14  15
ENDBRANCH   2  14
TORSDOF 5
ENDMDL
MODEL 3
REMARK VINA RESULT:      -5.0      2.374      3.035
REMARK  5 active torsions:
REMARK  status: ('A' for Active; 'I' for Inactive)
REMARK    1  A    between atoms: C_2  and  C_3 
REMARK    2  A    between atoms: C_2  and  N_10 
REMARK    3  A    between atoms: C_3  and  N_4 
REMARK       I    between atoms: N_10  and  C_11 
REMARK    4  A    between atoms: C_11  and  C_13 
REMARK    5  A    between atoms: C_13  and  N_14 
ROOT
HETATM    1  N   UNL     1     -41.717 -50.057  11.614  1.00  0.00    -0.354 N 
HETATM    2  C   UNL     1     -42.508 -50.858  12.419  1.00  0.00     0.235 C 
HETATM    3  O   UNL     1     -43.274 -50.395  13.260  1.00  0.00    -0.272 OA
HETATM    4  H   UNL     1     -41.208 -50.488  10.851  1.00  0.00     0.163 HD
ENDROOT
BRANCH   1   5
HETATM    5  C   UNL     1     -41.844 -48.594  11.623  1.00  0.00     0.098 C 
HETATM    6  C   UNL     1     -40.733 -47.998  12.490  1.00  0.00     0.034 C 
BRANCH   5   7
HETATM    7  C   UNL     1     -41.832 -48.020  10.190  1.00  0.00     0.153 C 
BRANCH   7   8
HETATM    8  N   UNL     1     -43.152 -47.776   9.640  1.00  0.00    -0.350 N 
HETATM    9  C   UNL     1     -44.306 -47.582  10.347  1.00  0.00     0.108 A 
HETATM   10  C   UNL     1     -45.278 -47.385   9.392  1.00  0.00     0.106 A 
HETATM   11  N   UNL     1     -44.740 -47.447   8.133  1.00  0.00    -0.361 N 
HETATM   12  C   UNL     1     -43.457 -47.663   8.313  1.00  0.00     0.182 A 
ATOM     13  HN  UNL     1     -45.232 -47.347   7.245  1.00  0.00     0.166 HD
ENDBRANCH   7   8
ENDBRANCH   5   7
ENDBRANCH   1   5
BRANCH   2  14
HETATM   14  C   UNL     1     -42.285 -52.366  12.214  1.00  0.00     0.229 C 
BRANCH  14  15
HETATM   15  N   UNL     1     -41.523 -52.953  13.304  1.00  0.00    -0.334 N 
HETATM   16  C   UNL     1     -42.165 -53.758  14.318  1.00  0.00     0.138 C 
HETATM   17  C   UNL     1     -41.111 -54.458  15.161  1.00  0.00     0.104 C 
HETATM   18  S   UNL     1     -39.534 -53.678  14.749  1.00  0.00    -0.068 SA
HETATM   19  C   UNL     1     -40.165 -52.811  13.370  1.00  0.00     0.282 C 
HETATM   20  O   UNL     1     -39.469 -52.165  12.602  1.00  0.00    -0.260 OA
ENDBRANCH  14  15
ENDBRANCH   2  14
TORSDOF 5
ENDMDL
MODEL 4
REMARK VINA RESULT:      -4.9      1.873      2.641
REMARK  5 active torsions:
REMARK  status: ('A' for Active; 'I' for Inactive)
REMARK    1  A    between atoms: C_2  and  C_3 
REMARK    2  A    between atoms: C_2  and  N_10 
REMARK    3  A    between atoms: C_3  and  N_4 
REMARK       I    between atoms: N_10  and  C_11 
REMARK    4  A    between atoms: C_11  and  C_13 
REMARK    5  A    between atoms: C_13  and  N_14 
ROOT
HETATM    1  N   UNL     1     -40.241 -47.312  10.779  1.00  0.00    -0.354 N 
HETATM    2  C   UNL     1     -39.934 -48.254  11.747  1.00  0.00     0.235 C 
HETATM    3  O   UNL     1     -39.641 -47.944  12.899  1.00  0.00    -0.272 OA
HETATM    4  H   UNL     1     -40.604 -47.632   9.890  1.00  0.00     0.163 HD
ENDROOT
BRANCH   1   5
HETATM    5  C   UNL     1     -40.364 -45.886  11.107  1.00  0.00     0.098 C 
HETATM    6  C   UNL     1     -39.636 -45.060  10.045  1.00  0.00     0.034 C 
BRANCH   5   7
HETATM    7  C   UNL     1     -41.844 -45.470  11.251  1.00  0.00     0.153 C 
BRANCH   7   8
HETATM    8  N   UNL     1     -42.770 -46.309  10.517  1.00  0.00    -0.350 N 
HETATM    9  C   UNL     1     -43.068 -46.221   9.185  1.00  0.00     0.108 A 
HETATM   10  C   UNL     1     -43.982 -47.225   8.959  1.00  0.00     0.106 A 
HETATM   11  N   UNL     1     -44.237 -47.917  10.114  1.00  0.00    -0.361 N 
HETATM   12  C   UNL     1     -43.479 -47.358  11.030  1.00  0.00     0.182 A 
ATOM     13  HN  UNL     1     -44.879 -48.701  10.237  1.00  0.00     0.166 HD
ENDBRANCH   7   8
ENDBRANCH   5   7
ENDBRANCH   1   5
BRANCH   2  14
HETATM   14  C   UNL     1     -39.924 -49.702  11.230  1.00  0.00     0.229 C 
BRANCH  14  15
HETATM   15  N   UNL     1     -40.572 -50.613  12.159  1.00  0.00    -0.334 N 
HETATM   16  C   UNL     1     -42.004 -50.595  12.350  1.00  0.00     0.138 C 
HETATM   17  C   UNL     1     -42.431 -51.813  13.153  1.00  0.00     0.104 C 
HETATM   18  S   UNL     1     -40.914 -52.534  13.820  1.00  0.00    -0.068 SA
HETATM   19  C   UNL     1     -39.852 -51.556  12.837  1.00  0.00     0.282 C 
HETATM   20  O   UNL     1     -38.640 -51.707  12.796  1.00  0.00    -0.260 OA
ENDBRANCH  14  15
ENDBRANCH   2  14
TORSDOF 5
ENDMDL
MODEL 5
REMARK VINA RESULT:      -4.8      5.234      7.861
REMARK  5 active torsions:
REMARK  status: ('A' for Active; 'I' for Inactive)
REMARK    1  A    between atoms: C_2  and  C_3 
REMARK    2  A    between atoms: C_2  and  N_10 
REMARK    3  A    between atoms: C_3  and  N_4 
REMARK       I    between atoms: N_10  and  C_11 
REMARK    4  A    between atoms: C_11  and  C_13 
REMARK    5  A    between atoms: C_13  and  N_14 
ROOT
HETATM    1  N   UNL     1     -41.890 -54.671  15.060  1.00  0.00    -0.354 N 
HETATM    2  C   UNL     1     -42.990 -53.883  15.352  1.00  0.00     0.235 C 
HETATM    3  O   UNL     1     -42.902 -52.843  15.999  1.00  0.00    -0.272 OA
HETATM    4  H   UNL     1     -42.004 -55.442  14.412  1.00  0.00     0.163 HD
ENDROOT
BRANCH   1   5
HETATM    5  C   UNL     1     -40.526 -54.241  15.393  1.00  0.00     0.098 C 
HETATM    6  C   UNL     1     -39.847 -55.323  16.235  1.00  0.00     0.034 C 
BRANCH   5   7
HETATM    7  C   UNL     1     -39.718 -53.904  14.121  1.00  0.00     0.153 C 
BRANCH   7   8
HETATM    8  N   UNL     1     -40.410 -53.029  13.195  1.00  0.00    -0.350 N 
HETATM    9  C   UNL     1     -40.613 -51.684  13.342  1.00  0.00     0.108 A 
HETATM   10  C   UNL     1     -41.303 -51.305  12.212  1.00  0.00     0.106 A 
HETATM   11  N   UNL     1     -41.514 -52.380  11.389  1.00  0.00    -0.361 N 
HETATM   12  C   UNL     1     -40.949 -53.399  11.996  1.00  0.00     0.182 A 
ATOM     13  HN  UNL     1     -42.006 -52.387  10.495  1.00  0.00     0.166 HD
ENDBRANCH   7   8
ENDBRANCH   5   7
ENDBRANCH   1   5
BRANCH   2  14
HETATM   14  C   UNL     1     -44.325 -54.465  14.860  1.00  0.00     0.229 C 
BRANCH  14  15
HETATM   15  N   UNL     1     -45.210 -53.432  14.348  1.00  0.00    -0.334 N 
HETATM   16  C   UNL     1     -46.129 -52.734  15.218  1.00  0.00     0.138 C 
HETATM   17  C   UNL     1     -46.721 -51.540  14.489  1.00  0.00     0.104 C 
HETATM   18  S   UNL     1     -46.291 -51.749  12.746  1.00  0.00    -0.068 SA
HETATM   19  C   UNL     1     -45.158 -53.046  13.038  1.00  0.00     0.282 C 
HETATM   20  O   UNL     1     -44.448 -53.530  12.170  1.00  0.00    -0.260 OA
ENDBRANCH  14  15
ENDBRANCH   2  14
TORSDOF 5
ENDMDL
MODEL 6
REMARK VINA RESULT:      -4.8      5.061      6.632
REMARK  5 active torsions:
REMARK  status: ('A' for Active; 'I' for Inactive)
REMARK    1  A    between atoms: C_2  and  C_3 
REMARK    2  A    between atoms: C_2  and  N_10 
REMARK    3  A    between atoms: C_3  and  N_4 
REMARK       I    between atoms: N_10  and  C_11 
REMARK    4  A    between atoms: C_11  and  C_13 
REMARK    5  A    between atoms: C_13  and  N_14 
ROOT
HETATM    1  N   UNL     1     -41.062 -53.222  14.497  1.00  0.00    -0.354 N 
HETATM    2  C   UNL     1     -39.756 -53.222  14.036  1.00  0.00     0.235 C 
HETATM    3  O   UNL     1     -39.291 -54.146  13.374  1.00  0.00    -0.272 OA
HETATM    4  H   UNL     1     -41.426 -52.376  14.919  1.00  0.00     0.163 HD
ENDROOT
BRANCH   1   5
HETATM    5  C   UNL     1     -42.014 -54.270  14.109  1.00  0.00     0.098 C 
HETATM    6  C   UNL     1     -42.486 -55.010  15.361  1.00  0.00     0.034 C 
BRANCH   5   7
HETATM    7  C   UNL     1     -43.193 -53.685  13.301  1.00  0.00     0.153 C 
BRANCH   7   8
HETATM    8  N   UNL     1     -44.494 -53.916  13.900  1.00  0.00    -0.350 N 
HETATM    9  C   UNL     1     -45.122 -53.117  14.815  1.00  0.00     0.108 A 
HETATM   10  C   UNL     1     -46.320 -53.746  15.070  1.00  0.00     0.106 A 
HETATM   11  N   UNL     1     -46.432 -54.895  14.331  1.00  0.00    -0.361 N 
HETATM   12  C   UNL     1     -45.328 -54.961  13.622  1.00  0.00     0.182 A 
ATOM     13  HN  UNL     1     -47.207 -55.558  14.332  1.00  0.00     0.166 HD
ENDBRANCH   7   8
ENDBRANCH   5   7
ENDBRANCH   1   5
BRANCH   2  14
HETATM   14  C   UNL     1     -38.933 -52.005  14.488  1.00  0.00     0.229 C 
BRANCH  14  15
HETATM   15  N   UNL     1     -38.834 -50.999  13.442  1.00  0.00    -0.334 N 
HETATM   16  C   UNL     1     -39.818 -49.947  13.320  1.00  0.00     0.138 C 
HETATM   17  C   UNL     1     -39.328 -48.898  12.335  1.00  0.00     0.104 C 
HETATM   18  S   UNL     1     -37.909 -49.627  11.486  1.00  0.00    -0.068 SA
HETATM   19  C   UNL     1     -37.776 -50.983  12.579  1.00  0.00     0.282 C 
HETATM   20  O   UNL     1     -36.864 -51.795  12.539  1.00  0.00    -0.260 OA
ENDBRANCH  14  15
ENDBRANCH   2  14
TORSDOF 5
ENDMDL
MODEL 7
REMARK VINA RESULT:      -4.7      4.410      5.547
REMARK  5 active torsions:
REMARK  status: ('A' for Active; 'I' for Inactive)
REMARK    1  A    between atoms: C_2  and  C_3 
REMARK    2  A    between atoms: C_2  and  N_10 
REMARK    3  A    between atoms: C_3  and  N_4 
REMARK       I    between atoms: N_10  and  C_11 
REMARK    4  A    between atoms: C_11  and  C_13 
REMARK    5  A    between atoms: C_13  and  N_14 
ROOT
HETATM    1  N   UNL     1     -42.792 -50.780  12.412  1.00  0.00    -0.354 N 
HETATM    2  C   UNL     1     -43.662 -50.588  13.472  1.00  0.00     0.235 C 
HETATM    3  O   UNL     1     -43.300 -50.107  14.543  1.00  0.00    -0.272 OA
HETATM    4  H   UNL     1     -43.175 -51.052  11.514  1.00  0.00     0.163 HD
ENDROOT
BRANCH   1   5
HETATM    5  C   UNL     1     -41.407 -50.295  12.457  1.00  0.00     0.098 C 
HETATM    6  C   UNL     1     -40.458 -51.491  12.544  1.00  0.00     0.034 C 
BRANCH   5   7
HETATM    7  C   UNL     1     -41.090 -49.390  11.248  1.00  0.00     0.153 C 
BRANCH   7   8
HETATM    8  N   UNL     1     -41.976 -48.250  11.112  1.00  0.00    -0.350 N 
HETATM    9  C   UNL     1     -42.654 -47.875   9.985  1.00  0.00     0.108 A 
HETATM   10  C   UNL     1     -43.358 -46.750  10.354  1.00  0.00     0.106 A 
HETATM   11  N   UNL     1     -43.128 -46.444  11.669  1.00  0.00    -0.361 N 
HETATM   12  C   UNL     1     -42.309 -47.374  12.106  1.00  0.00     0.182 A 
ATOM     13  HN  UNL     1     -43.512 -45.660  12.197  1.00  0.00     0.166 HD
ENDBRANCH   7   8
ENDBRANCH   5   7
ENDBRANCH   1   5
BRANCH   2  14
HETATM   14  C   UNL     1     -45.090 -51.095  13.210  1.00  0.00     0.229 C 
BRANCH  14  15
HETATM   15  N   UNL     1     -45.298 -52.430  13.748  1.00  0.00    -0.334 N 
HETATM   16  C   UNL     1     -45.935 -52.629  15.030  1.00  0.00     0.138 C 
HETATM   17  C   UNL     1     -46.266 -54.101  15.215  1.00  0.00     0.104 C 
HETATM   18  S   UNL     1     -45.380 -54.986  13.913  1.00  0.00    -0.068 SA
HETATM   19  C   UNL     1     -44.950 -53.540  13.032  1.00  0.00     0.282 C 
HETATM   20  O   UNL     1     -44.401 -53.552  11.940  1.00  0.00    -0.260 OA
ENDBRANCH  14  15
ENDBRANCH   2  14
TORSDOF 5
ENDMDL
MODEL 8
REMARK VINA RESULT:      -4.7      3.139      6.157
REMARK  5 active torsions:
REMARK  status: ('A' for Active; 'I' for Inactive)
REMARK    1  A    between atoms: C_2  and  C_3 
REMARK    2  A    between atoms: C_2  and  N_10 
REMARK    3  A    between atoms: C_3  and  N_4 
REMARK       I    between atoms: N_10  and  C_11 
REMARK    4  A    between atoms: C_11  and  C_13 
REMARK    5  A    between atoms: C_13  and  N_14 
ROOT
HETATM    1  N   UNL     1     -40.338 -48.379  13.650  1.00  0.00    -0.354 N 
HETATM    2  C   UNL     1     -40.399 -47.744  12.421  1.00  0.00     0.235 C 
HETATM    3  O   UNL     1     -39.642 -48.025  11.496  1.00  0.00    -0.272 OA
HETATM    4  H   UNL     1     -41.072 -48.200  14.325  1.00  0.00     0.163 HD
ENDROOT
BRANCH   1   5
HETATM    5  C   UNL     1     -39.449 -49.525  13.880  1.00  0.00     0.098 C 
HETATM    6  C   UNL     1     -38.334 -49.113  14.841  1.00  0.00     0.034 C 
BRANCH   5   7
HETATM    7  C   UNL     1     -40.235 -50.751  14.393  1.00  0.00     0.153 C 
BRANCH   7   8
HETATM    8  N   UNL     1     -40.949 -51.474  13.358  1.00  0.00    -0.350 N 
HETATM    9  C   UNL     1     -42.202 -52.011  13.457  1.00  0.00     0.108 A 
HETATM   10  C   UNL     1     -42.441 -52.582  12.227  1.00  0.00     0.106 A 
HETATM   11  N   UNL     1     -41.370 -52.398  11.391  1.00  0.00    -0.361 N 
HETATM   12  C   UNL     1     -40.496 -51.711  12.091  1.00  0.00     0.182 A 
ATOM     13  HN  UNL     1     -41.273 -52.724  10.430  1.00  0.00     0.166 HD
ENDBRANCH   7   8
ENDBRANCH   5   7
ENDBRANCH   1   5
BRANCH   2  14
HETATM   14  C   UNL     1     -41.442 -46.616  12.351  1.00  0.00     0.229 C 
BRANCH  14  15
HETATM   15  N   UNL     1     -42.320 -46.762  11.202  1.00  0.00    -0.334 N 
HETATM   16  C   UNL     1     -43.403 -47.720  11.204  1.00  0.00     0.138 C 
HETATM   17  C   UNL     1     -44.311 -47.471  10.011  1.00  0.00     0.104 C 
HETATM   18  S   UNL     1     -43.421 -46.330   8.928  1.00  0.00    -0.068 SA
HETATM   19  C   UNL     1     -42.187 -45.956  10.107  1.00  0.00     0.282 C 
HETATM   20  O   UNL     1     -41.329 -45.103   9.939  1.00  0.00    -0.260 OA
ENDBRANCH  14  15
ENDBRANCH   2  14
TORSDOF 5
ENDMDL
MODEL 9
REMARK VINA RESULT:      -4.6      4.891      6.488
REMARK  5 active torsions:
REMARK  status: ('A' for Active; 'I' for Inactive)
REMARK    1  A    between atoms: C_2  and  C_3 
REMARK    2  A    between atoms: C_2  and  N_10 
REMARK    3  A    between atoms: C_3  and  N_4 
REMARK       I    between atoms: N_10  and  C_11 
REMARK    4  A    between atoms: C_11  and  C_13 
REMARK    5  A    between atoms: C_13  and  N_14 
ROOT
HETATM    1  N   UNL     1     -42.080 -52.466  13.693  1.00  0.00    -0.354 N 
HETATM    2  C   UNL     1     -40.952 -51.896  13.127  1.00  0.00     0.235 C 
HETATM    3  O   UNL     1     -40.186 -52.529  12.405  1.00  0.00    -0.272 OA
HETATM    4  H   UNL     1     -42.742 -51.863  14.165  1.00  0.00     0.163 HD
ENDROOT
BRANCH   1   5
HETATM    5  C   UNL     1     -42.503 -53.831  13.355  1.00  0.00     0.098 C 
HETATM    6  C   UNL     1     -42.572 -54.668  14.633  1.00  0.00     0.034 C 
BRANCH   5   7
HETATM    7  C   UNL     1     -43.844 -53.829  12.589  1.00  0.00     0.153 C 
BRANCH   7   8
HETATM    8  N   UNL     1     -45.014 -53.904  13.443  1.00  0.00    -0.350 N 
HETATM    9  C   UNL     1     -45.674 -52.851  14.013  1.00  0.00     0.108 A 
HETATM   10  C   UNL     1     -46.709 -53.422  14.719  1.00  0.00     0.106 A 
HETATM   11  N   UNL     1     -46.694 -54.785  14.584  1.00  0.00    -0.361 N 
HETATM   12  C   UNL     1     -45.676 -55.045  13.795  1.00  0.00     0.182 A 
ATOM     13  HN  UNL     1     -47.336 -55.456  15.007  1.00  0.00     0.166 HD
ENDBRANCH   7   8
ENDBRANCH   5   7
ENDBRANCH   1   5
BRANCH   2  14
HETATM   14  C   UNL     1     -40.713 -50.436  13.543  1.00  0.00     0.229 C 
BRANCH  14  15
HETATM   15  N   UNL     1     -41.341 -49.501  12.623  1.00  0.00    -0.334 N 
HETATM   16  C   UNL     1     -40.625 -48.977  11.482  1.00  0.00     0.138 C 
HETATM   17  C   UNL     1     -41.590 -48.255  10.557  1.00  0.00     0.104 C 
HETATM   18  S   UNL     1     -43.128 -48.059  11.486  1.00  0.00    -0.068 SA
HETATM   19  C   UNL     1     -42.649 -49.135  12.775  1.00  0.00     0.282 C 
HETATM   20  O   UNL     1     -43.394 -49.479  13.680  1.00  0.00    -0.260 OA
ENDBRANCH  14  15
ENDBRANCH   2  14
TORSDOF 5
ENDMDL
