MODEL 1
REMARK VINA RESULT:      -6.2      0.000      0.000
REMARK  4 active torsions:
REMARK  status: ('A' for Active; 'I' for Inactive)
REMARK       I    between atoms: N_4  and  C_9 
REMARK    1  A    between atoms: C_9  and  C_11 
REMARK    2  A    between atoms: C_11  and  C_12 
REMARK    3  A    between atoms: C_12  and  N_13 
REMARK       I    between atoms: N_13  and  C_14 
REMARK       I    between atoms: C_14  and  N_16 
REMARK    4  A    between atoms: N_16  and  C_17 
ROOT
HETATM    1  N   UNL     1     -40.853 -51.091  11.247  1.00  0.00    -0.342 N 
HETATM    2  C   UNL     1     -41.840 -51.419  12.155  1.00  0.00     0.320 C 
HETATM    3  O   UNL     1     -42.070 -50.723  13.138  1.00  0.00    -0.247 OA
HETATM    4  N   UNL     1     -42.463 -52.609  11.853  1.00  0.00    -0.308 N 
HETATM    5  H   UNL     1     -41.051 -51.344  10.291  1.00  0.00     0.164 HD
HETATM    6  H   UNL     1     -42.037 -53.159  11.122  1.00  0.00     0.170 HD
ENDROOT
BRANCH   1   7
HETATM    7  C   UNL     1     -40.150 -49.829  11.463  1.00  0.00     0.133 C 
BRANCH   7   8
HETATM    8  C   UNL     1     -38.643 -49.990  11.596  1.00  0.00     0.122 C 
BRANCH   8   9
HETATM    9  C   UNL     1     -38.301 -50.680  12.910  1.00  0.00     0.221 C 
HETATM   10  N   UNL     1     -37.837 -49.884  13.941  1.00  0.00    -0.347 N 
HETATM   11  C   UNL     1     -37.721 -48.427  13.928  1.00  0.00     0.157 C 
HETATM   12  C   UNL     1     -37.566 -50.476  15.257  1.00  0.00     0.157 C 
HETATM   13  C   UNL     1     -38.609 -47.804  15.022  1.00  0.00     0.136 C 
HETATM   14  C   UNL     1     -40.094 -47.865  14.672  1.00  0.00     0.041 C 
HETATM   15  O   UNL     1     -38.349 -48.395  16.308  1.00  0.00    -0.378 OA
HETATM   16  C   UNL     1     -38.474 -49.833  16.321  1.00  0.00     0.136 C 
HETATM   17  C   UNL     1     -38.106 -50.309  17.720  1.00  0.00     0.041 C 
HETATM   18  O   UNL     1     -38.447 -51.894  13.050  1.00  0.00    -0.273 OA
ENDBRANCH   8   9
ENDBRANCH   7   8
ENDBRANCH   1   7
BRANCH   4  19
HETATM   19  C   UNL     1     -43.421 -53.257  12.674  1.00  0.00     0.051 A 
HETATM   20  C   UNL     1     -43.098 -54.178  13.671  1.00  0.00     0.032 A 
HETATM   21  C   UNL     1     -44.106 -54.852  14.357  1.00  0.00     0.019 A 
HETATM   22  C   UNL     1     -45.421 -54.565  14.043  1.00  0.00     0.088 A 
HETATM   23  N   UNL     1     -45.785 -53.642  13.126  1.00  0.00    -0.373 N 
HETATM   24  C   UNL     1     -44.778 -53.011  12.471  1.00  0.00     0.117 A 
ATOM     25  HN  UNL     1     -46.764 -53.432  12.936  1.00  0.00     0.164 HD
ENDBRANCH   4  19
TORSDOF 4
ENDMDL
MODEL 2
REMARK VINA RESULT:      -6.2      3.151      7.492
REMARK  4 active torsions:
REMARK  status: ('A' for Active; 'I' for Inactive)
REMARK       I    between atoms: N_4  and  C_9 
REMARK    1  A    between atoms: C_9  and  C_11 
REMARK    2  A    between atoms: C_11  and  C_12 
REMARK    3  A    between atoms: C_12  and  N_13 
REMARK       I    between atoms: N_13  and  C_14 
REMARK       I    between atoms: C_14  and  N_16 
REMARK    4  A    between atoms: N_16  and  C_17 
ROOT
HETATM    1  N   UNL     1     -40.968 -50.353  11.149  1.00  0.00    -0.342 N 
HETATM    2  C   UNL     1     -40.785 -49.036  11.523  1.00  0.00     0.320 C 
HETATM    3  O   UNL     1     -40.395 -48.733  12.645  1.00  0.00    -0.247 OA
HETATM    4  N   UNL     1     -41.140 -48.150  10.532  1.00  0.00    -0.308 N 
HETATM    5  H   UNL     1     -40.771 -50.553  10.180  1.00  0.00     0.164 HD
HETATM    6  H   UNL     1     -41.621 -48.543   9.737  1.00  0.00     0.170 HD
ENDROOT
BRANCH   1   7
HETATM    7  C   UNL     1     -40.593 -51.374  12.124  1.00  0.00     0.133 C 
BRANCH   7   8
HETATM    8  C   UNL     1     -41.721 -52.342  12.452  1.00  0.00     0.122 C 
BRANCH   8   9
HETATM    9  C   UNL     1     -42.868 -51.604  13.127  1.00  0.00     0.221 C 
HETATM   10  N   UNL     1     -44.124 -52.176  13.047  1.00  0.00    -0.347 N 
HETATM   11  C   UNL     1     -44.453 -53.469  12.447  1.00  0.00     0.157 C 
HETATM   12  C   UNL     1     -45.258 -51.556  13.744  1.00  0.00     0.157 C 
HETATM   13  C   UNL     1     -45.053 -54.416  13.502  1.00  0.00     0.136 C 
HETATM   14  C   UNL     1     -44.005 -54.938  14.483  1.00  0.00     0.041 C 
HETATM   15  O   UNL     1     -46.156 -53.800  14.192  1.00  0.00    -0.378 OA
HETATM   16  C   UNL     1     -45.828 -52.529  14.791  1.00  0.00     0.136 C 
HETATM   17  C   UNL     1     -47.101 -51.979  15.419  1.00  0.00     0.041 C 
HETATM   18  O   UNL     1     -42.679 -50.549  13.734  1.00  0.00    -0.273 OA
ENDBRANCH   8   9
ENDBRANCH   7   8
ENDBRANCH   1   7
BRANCH   4  19
HETATM   19  C   UNL     1     -41.181 -46.740  10.678  1.00  0.00     0.051 A 
HETATM   20  C   UNL     1     -40.050 -45.923  10.688  1.00  0.00     0.032 A 
HETATM   21  C   UNL     1     -40.172 -44.559  10.949  1.00  0.00     0.019 A 
HETATM   22  C   UNL     1     -41.434 -44.041  11.168  1.00  0.00     0.088 A 
HETATM   23  N   UNL     1     -42.563 -44.780  11.114  1.00  0.00    -0.373 N 
HETATM   24  C   UNL     1     -42.408 -46.106  10.867  1.00  0.00     0.117 A 
ATOM     25  HN  UNL     1     -43.484 -44.363  11.253  1.00  0.00     0.164 HD
ENDBRANCH   4  19
TORSDOF 4
ENDMDL
MODEL 3
REMARK VINA RESULT:      -6.0      5.041      6.337
REMARK  4 active torsions:
REMARK  status: ('A' for Active; 'I' for Inactive)
REMARK       I    between atoms: N_4  and  C_9 
REMARK    1  A    between atoms: C_9  and  C_11 
REMARK    2  A    between atoms: C_11  and  C_12 
REMARK    3  A    between atoms: C_12  and  N_13 
REMARK       I    between atoms: N_13  and  C_14 
REMARK       I    between atoms: C_14  and  N_16 
REMARK    4  A    between atoms: N_16  and  C_17 
ROOT
HETATM    1  N   UNL     1     -40.422 -47.352  10.849  1.00  0.00    -0.342 N 
HETATM    2  C   UNL     1     -41.661 -47.888  10.559  1.00  0.00     0.320 C 
HETATM    3  O   UNL     1     -42.020 -48.968  11.015  1.00  0.00    -0.247 OA
HETATM    4  N   UNL     1     -42.382 -47.110   9.682  1.00  0.00    -0.308 N 
HETATM    5  H   UNL     1     -40.395 -46.345  10.907  1.00  0.00     0.164 HD
HETATM    6  H   UNL     1     -41.880 -46.350   9.248  1.00  0.00     0.170 HD
ENDROOT
BRANCH   1   7
HETATM    7  C   UNL     1     -39.589 -48.090  11.796  1.00  0.00     0.133 C 
BRANCH   7   8
HETATM    8  C   UNL     1     -39.145 -47.256  12.989  1.00  0.00     0.122 C 
BRANCH   8   9
HETATM    9  C   UNL     1     -40.346 -46.584  13.639  1.00  0.00     0.221 C 
HETATM   10  N   UNL     1     -40.292 -45.213  13.808  1.00  0.00    -0.347 N 
HETATM   11  C   UNL     1     -39.226 -44.324  13.347  1.00  0.00     0.157 C 
HETATM   12  C   UNL     1     -41.449 -44.496  14.355  1.00  0.00     0.157 C 
HETATM   13  C   UNL     1     -39.779 -43.295  12.343  1.00  0.00     0.136 C 
HETATM   14  C   UNL     1     -40.092 -43.915  10.983  1.00  0.00     0.041 C 
HETATM   15  O   UNL     1     -40.922 -42.602  12.878  1.00  0.00    -0.378 OA
HETATM   16  C   UNL     1     -41.976 -43.481  13.325  1.00  0.00     0.136 C 
HETATM   17  C   UNL     1     -43.074 -42.610  13.919  1.00  0.00     0.041 C 
HETATM   18  O   UNL     1     -41.332 -47.236  13.985  1.00  0.00    -0.273 OA
ENDBRANCH   8   9
ENDBRANCH   7   8
ENDBRANCH   1   7
BRANCH   4  19
HETATM   19  C   UNL     1     -43.627 -47.473   9.107  1.00  0.00     0.051 A 
HETATM   20  C   UNL     1     -44.846 -47.410   9.782  1.00  0.00     0.032 A 
HETATM   21  C   UNL     1     -46.007 -47.890   9.180  1.00  0.00     0.019 A 
HETATM   22  C   UNL     1     -45.921 -48.401   7.899  1.00  0.00     0.088 A 
HETATM   23  N   UNL     1     -44.776 -48.433   7.184  1.00  0.00    -0.373 N 
HETATM   24  C   UNL     1     -43.662 -47.965   7.803  1.00  0.00     0.117 A 
ATOM     25  HN  UNL     1     -44.749 -48.790   6.228  1.00  0.00     0.164 HD
ENDBRANCH   4  19
TORSDOF 4
ENDMDL
MODEL 4
REMARK VINA RESULT:      -5.7      3.004      6.729
REMARK  4 active torsions:
REMARK  status: ('A' for Active; 'I' for Inactive)
REMARK       I    between atoms: N_4  and  C_9 
REMARK    1  A    between atoms: C_9  and  C_11 
REMARK    2  A    between atoms: C_11  and  C_12 
REMARK    3  A    between atoms: C_12  and  N_13 
REMARK       I    between atoms: N_13  and  C_14 
REMARK       I    between atoms: C_14  and  N_16 
REMARK    4  A    between atoms: N_16  and  C_17 
ROOT
HETATM    1  N   UNL     1     -40.494 -51.474  11.730  1.00  0.00    -0.342 N 
HETATM    2  C   UNL     1     -40.830 -50.145  11.899  1.00  0.00     0.320 C 
HETATM    3  O   UNL     1     -41.070 -49.677  13.007  1.00  0.00    -0.247 OA
HETATM    4  N   UNL     1     -40.913 -49.463  10.707  1.00  0.00    -0.308 N 
HETATM    5  H   UNL     1     -39.843 -51.657  10.981  1.00  0.00     0.164 HD
HETATM    6  H   UNL     1     -40.875 -50.027   9.871  1.00  0.00     0.170 HD
ENDROOT
BRANCH   1   7
HETATM    7  C   UNL     1     -40.352 -52.278  12.941  1.00  0.00     0.133 C 
BRANCH   7   8
HETATM    8  C   UNL     1     -41.000 -53.651  12.834  1.00  0.00     0.122 C 
BRANCH   8   9
HETATM    9  C   UNL     1     -42.512 -53.532  12.966  1.00  0.00     0.221 C 
HETATM   10  N   UNL     1     -43.124 -54.285  13.951  1.00  0.00    -0.347 N 
HETATM   11  C   UNL     1     -42.454 -55.126  14.942  1.00  0.00     0.157 C 
HETATM   12  C   UNL     1     -44.568 -54.154  14.183  1.00  0.00     0.157 C 
HETATM   13  C   UNL     1     -42.755 -54.626  16.367  1.00  0.00     0.136 C 
HETATM   14  C   UNL     1     -42.012 -53.334  16.702  1.00  0.00     0.041 C 
HETATM   15  O   UNL     1     -44.171 -54.487  16.586  1.00  0.00    -0.378 OA
HETATM   16  C   UNL     1     -44.829 -53.649  15.613  1.00  0.00     0.136 C 
HETATM   17  C   UNL     1     -46.316 -53.656  15.937  1.00  0.00     0.041 C 
HETATM   18  O   UNL     1     -43.160 -52.782  12.234  1.00  0.00    -0.273 OA
ENDBRANCH   8   9
ENDBRANCH   7   8
ENDBRANCH   1   7
BRANCH   4  19
HETATM   19  C   UNL     1     -41.364 -48.126  10.564  1.00  0.00     0.051 A 
HETATM   20  C   UNL     1     -40.610 -47.007  10.919  1.00  0.00     0.032 A 
HETATM   21  C   UNL     1     -41.171 -45.733  10.850  1.00  0.00     0.019 A 
HETATM   22  C   UNL     1     -42.472 -45.610  10.400  1.00  0.00     0.088 A 
HETATM   23  N   UNL     1     -43.222 -46.656   9.993  1.00  0.00    -0.373 N 
HETATM   24  C   UNL     1     -42.649 -47.883  10.081  1.00  0.00     0.117 A 
ATOM     25  HN  UNL     1     -44.171 -46.531   9.638  1.00  0.00     0.164 HD
ENDBRANCH   4  19
TORSDOF 4
ENDMDL
MODEL 5
REMARK VINA RESULT:      -5.7      2.704      7.298
REMARK  4 active torsions:
REMARK  status: ('A' for Active; 'I' for Inactive)
REMARK       I    between atoms: N_4  and  C_9 
REMARK    1  A    between atoms: C_9  and  C_11 
REMARK    2  A    between atoms: C_11  and  C_12 
REMARK    3  A    between atoms: C_12  and  N_13 
REMARK       I    between atoms: N_13  and  C_14 
REMARK       I    between atoms: C_14  and  N_16 
REMARK    4  A    between atoms: N_16  and  C_17 
ROOT
HETATM    1  N   UNL     1     -41.872 -52.647  15.580  1.00  0.00    -0.342 N 
HETATM    2  C   UNL     1     -40.877 -52.579  14.625  1.00  0.00     0.320 C 
HETATM    3  O   UNL     1     -40.176 -53.548  14.354  1.00  0.00    -0.247 OA
HETATM    4  N   UNL     1     -40.746 -51.320  14.084  1.00  0.00    -0.308 N 
HETATM    5  H   UNL     1     -42.683 -52.076  15.393  1.00  0.00     0.164 HD
HETATM    6  H   UNL     1     -41.264 -50.586  14.543  1.00  0.00     0.170 HD
ENDROOT
BRANCH   1   7
HETATM    7  C   UNL     1     -42.110 -53.951  16.194  1.00  0.00     0.133 C 
BRANCH   7   8
HETATM    8  C   UNL     1     -43.580 -54.346  16.226  1.00  0.00     0.122 C 
BRANCH   8   9
HETATM    9  C   UNL     1     -44.187 -54.227  14.835  1.00  0.00     0.221 C 
HETATM   10  N   UNL     1     -45.411 -53.592  14.730  1.00  0.00    -0.347 N 
HETATM   11  C   UNL     1     -46.148 -52.943  15.815  1.00  0.00     0.157 C 
HETATM   12  C   UNL     1     -46.013 -53.373  13.409  1.00  0.00     0.157 C 
HETATM   13  C   UNL     1     -46.334 -51.443  15.519  1.00  0.00     0.136 C 
HETATM   14  C   UNL     1     -45.040 -50.650  15.688  1.00  0.00     0.041 C 
HETATM   15  O   UNL     1     -46.913 -51.233  14.218  1.00  0.00    -0.378 OA
HETATM   16  C   UNL     1     -46.179 -51.865  13.148  1.00  0.00     0.136 C 
HETATM   17  C   UNL     1     -46.945 -51.610  11.858  1.00  0.00     0.041 C 
HETATM   18  O   UNL     1     -43.603 -54.664  13.843  1.00  0.00    -0.273 OA
ENDBRANCH   8   9
ENDBRANCH   7   8
ENDBRANCH   1   7
BRANCH   4  19
HETATM   19  C   UNL     1     -39.727 -50.925  13.181  1.00  0.00     0.051 A 
HETATM   20  C   UNL     1     -38.372 -50.876  13.507  1.00  0.00     0.032 A 
HETATM   21  C   UNL     1     -37.448 -50.369  12.594  1.00  0.00     0.019 A 
HETATM   22  C   UNL     1     -37.906 -49.947  11.361  1.00  0.00     0.088 A 
HETATM   23  N   UNL     1     -39.199 -50.025  10.978  1.00  0.00    -0.373 N 
HETATM   24  C   UNL     1     -40.073 -50.515  11.894  1.00  0.00     0.117 A 
ATOM     25  HN  UNL     1     -39.503 -49.731  10.050  1.00  0.00     0.164 HD
ENDBRANCH   4  19
TORSDOF 4
ENDMDL
MODEL 6
REMARK VINA RESULT:      -5.7      3.143      6.711
REMARK  4 active torsions:
REMARK  status: ('A' for Active; 'I' for Inactive)
REMARK       I    between atoms: N_4  and  C_9 
REMARK    1  A    between atoms: C_9  and  C_11 
REMARK    2  A    between atoms: C_11  and  C_12 
REMARK    3  A    between atoms: C_12  and  N_13 
REMARK       I    between atoms: N_13  and  C_14 
REMARK       I    between atoms: C_14  and  N_16 
REMARK    4  A    between atoms: N_16  and  C_17 
ROOT
HETATM    1  N   UNL     1     -42.128 -51.831  12.420  1.00  0.00    -0.342 N 
HETATM    2  C   UNL     1     -41.458 -50.729  11.927  1.00  0.00     0.320 C 
HETATM    3  O   UNL     1     -40.243 -50.733  11.761  1.00  0.00    -0.247 OA
HETATM    4  N   UNL     1     -42.291 -49.655  11.712  1.00  0.00    -0.308 N 
HETATM    5  H   UNL     1     -43.060 -51.962  12.056  1.00  0.00     0.164 HD
HETATM    6  H   UNL     1     -43.230 -49.742  12.073  1.00  0.00     0.170 HD
ENDROOT
BRANCH   1   7
HETATM    7  C   UNL     1     -41.335 -53.035  12.655  1.00  0.00     0.133 C 
BRANCH   7   8
HETATM    8  C   UNL     1     -42.137 -54.180  13.258  1.00  0.00     0.122 C 
BRANCH   8   9
HETATM    9  C   UNL     1     -43.619 -53.833  13.275  1.00  0.00     0.221 C 
HETATM   10  N   UNL     1     -44.201 -53.599  14.508  1.00  0.00    -0.347 N 
HETATM   11  C   UNL     1     -43.515 -53.567  15.799  1.00  0.00     0.157 C 
HETATM   12  C   UNL     1     -45.606 -53.182  14.587  1.00  0.00     0.157 C 
HETATM   13  C   UNL     1     -43.657 -52.179  16.451  1.00  0.00     0.136 C 
HETATM   14  C   UNL     1     -42.793 -51.121  15.767  1.00  0.00     0.041 C 
HETATM   15  O   UNL     1     -45.035 -51.769  16.516  1.00  0.00    -0.378 OA
HETATM   16  C   UNL     1     -45.707 -51.792  15.240  1.00  0.00     0.136 C 
HETATM   17  C   UNL     1     -47.158 -51.401  15.482  1.00  0.00     0.041 C 
HETATM   18  O   UNL     1     -44.267 -53.750  12.232  1.00  0.00    -0.273 OA
ENDBRANCH   8   9
ENDBRANCH   7   8
ENDBRANCH   1   7
BRANCH   4  19
HETATM   19  C   UNL     1     -41.864 -48.356  11.334  1.00  0.00     0.051 A 
HETATM   20  C   UNL     1     -41.122 -47.510  12.157  1.00  0.00     0.032 A 
HETATM   21  C   UNL     1     -40.838 -46.207  11.750  1.00  0.00     0.019 A 
HETATM   22  C   UNL     1     -41.286 -45.792  10.511  1.00  0.00     0.088 A 
HETATM   23  N   UNL     1     -41.960 -46.592   9.655  1.00  0.00    -0.373 N 
HETATM   24  C   UNL     1     -42.226 -47.851  10.087  1.00  0.00     0.117 A 
ATOM     25  HN  UNL     1     -42.253 -46.266   8.734  1.00  0.00     0.164 HD
ENDBRANCH   4  19
TORSDOF 4
ENDMDL
MODEL 7
REMARK VINA RESULT:      -5.7      3.418      7.580
REMARK  4 active torsions:
REMARK  status: ('A' for Active; 'I' for Inactive)
REMARK       I    between atoms: N_4  and  C_9 
REMARK    1  A    between atoms: C_9  and  C_11 
REMARK    2  A    between atoms: C_11  and  C_12 
REMARK    3  A    between atoms: C_12  and  N_13 
REMARK       I    between atoms: N_13  and  C_14 
REMARK       I    between atoms: C_14  and  N_16 
REMARK    4  A    between atoms: N_16  and  C_17 
ROOT
HETATM    1  N   UNL     1     -42.210 -51.674  11.971  1.00  0.00    -0.342 N 
HETATM    2  C   UNL     1     -42.020 -50.321  12.174  1.00  0.00     0.320 C 
HETATM    3  O   UNL     1     -42.270 -49.790  13.251  1.00  0.00    -0.247 OA
HETATM    4  N   UNL     1     -41.588 -49.670  11.042  1.00  0.00    -0.308 N 
HETATM    5  H   UNL     1     -41.549 -52.108  11.344  1.00  0.00     0.164 HD
HETATM    6  H   UNL     1     -41.610 -50.206  10.187  1.00  0.00     0.170 HD
ENDROOT
BRANCH   1   7
HETATM    7  C   UNL     1     -42.641 -52.461  13.123  1.00  0.00     0.133 C 
BRANCH   7   8
HETATM    8  C   UNL     1     -43.970 -53.172  12.907  1.00  0.00     0.122 C 
BRANCH   8   9
HETATM    9  C   UNL     1     -45.119 -52.301  13.394  1.00  0.00     0.221 C 
HETATM   10  N   UNL     1     -45.909 -52.805  14.411  1.00  0.00    -0.347 N 
HETATM   11  C   UNL     1     -45.702 -54.062  15.130  1.00  0.00     0.157 C 
HETATM   12  C   UNL     1     -46.983 -51.982  14.981  1.00  0.00     0.157 C 
HETATM   13  C   UNL     1     -45.475 -53.795  16.630  1.00  0.00     0.136 C 
HETATM   14  C   UNL     1     -44.097 -53.200  16.915  1.00  0.00     0.041 C 
HETATM   15  O   UNL     1     -46.523 -52.978  17.181  1.00  0.00    -0.378 OA
HETATM   16  C   UNL     1     -46.720 -51.734  16.477  1.00  0.00     0.136 C 
HETATM   17  C   UNL     1     -47.895 -51.020  17.132  1.00  0.00     0.041 C 
HETATM   18  O   UNL     1     -45.325 -51.187  12.912  1.00  0.00    -0.273 OA
ENDBRANCH   8   9
ENDBRANCH   7   8
ENDBRANCH   1   7
BRANCH   4  19
HETATM   19  C   UNL     1     -41.435 -48.266  10.919  1.00  0.00     0.051 A 
HETATM   20  C   UNL     1     -42.382 -47.427  10.332  1.00  0.00     0.032 A 
HETATM   21  C   UNL     1     -42.104 -46.073  10.152  1.00  0.00     0.019 A 
HETATM   22  C   UNL     1     -40.887 -45.587  10.590  1.00  0.00     0.088 A 
HETATM   23  N   UNL     1     -39.961 -46.347  11.213  1.00  0.00    -0.373 N 
HETATM   24  C   UNL     1     -40.260 -47.662  11.365  1.00  0.00     0.117 A 
ATOM     25  HN  UNL     1     -39.082 -45.953  11.552  1.00  0.00     0.164 HD
ENDBRANCH   4  19
TORSDOF 4
ENDMDL
MODEL 8
REMARK VINA RESULT:      -5.7      3.954      5.243
REMARK  4 active torsions:
REMARK  status: ('A' for Active; 'I' for Inactive)
REMARK       I    between atoms: N_4  and  C_9 
REMARK    1  A    between atoms: C_9  and  C_11 
REMARK    2  A    between atoms: C_11  and  C_12 
REMARK    3  A    between atoms: C_12  and  N_13 
REMARK       I    between atoms: N_13  and  C_14 
REMARK       I    between atoms: C_14  and  N_16 
REMARK    4  A    between atoms: N_16  and  C_17 
ROOT
HETATM    1  N   UNL     1     -42.869 -49.731  12.084  1.00  0.00    -0.342 N 
HETATM    2  C   UNL     1     -43.489 -50.504  13.046  1.00  0.00     0.320 C 
HETATM    3  O   UNL     1     -42.917 -50.829  14.080  1.00  0.00    -0.247 OA
HETATM    4  N   UNL     1     -44.757 -50.892  12.677  1.00  0.00    -0.308 N 
HETATM    5  H   UNL     1     -43.479 -49.102  11.584  1.00  0.00     0.164 HD
HETATM    6  H   UNL     1     -45.016 -50.707  11.719  1.00  0.00     0.170 HD
ENDROOT
BRANCH   1   7
HETATM    7  C   UNL     1     -41.527 -49.243  12.394  1.00  0.00     0.133 C 
BRANCH   7   8
HETATM    8  C   UNL     1     -41.084 -48.088  11.508  1.00  0.00     0.122 C 
BRANCH   8   9
HETATM    9  C   UNL     1     -42.053 -46.921  11.638  1.00  0.00     0.221 C 
HETATM   10  N   UNL     1     -41.533 -45.709  12.051  1.00  0.00    -0.347 N 
HETATM   11  C   UNL     1     -40.123 -45.407  12.297  1.00  0.00     0.157 C 
HETATM   12  C   UNL     1     -42.399 -44.526  12.121  1.00  0.00     0.157 C 
HETATM   13  C   UNL     1     -39.636 -44.295  11.350  1.00  0.00     0.136 C 
HETATM   14  C   UNL     1     -39.464 -44.784   9.913  1.00  0.00     0.041 C 
HETATM   15  O   UNL     1     -40.494 -43.141  11.411  1.00  0.00    -0.378 OA
HETATM   16  C   UNL     1     -41.884 -43.439  11.159  1.00  0.00     0.136 C 
HETATM   17  C   UNL     1     -42.665 -42.142  11.325  1.00  0.00     0.041 C 
HETATM   18  O   UNL     1     -43.248 -47.051  11.371  1.00  0.00    -0.273 OA
ENDBRANCH   8   9
ENDBRANCH   7   8
ENDBRANCH   1   7
BRANCH   4  19
HETATM   19  C   UNL     1     -45.576 -51.794  13.404  1.00  0.00     0.051 A 
HETATM   20  C   UNL     1     -46.398 -51.417  14.465  1.00  0.00     0.032 A 
HETATM   21  C   UNL     1     -47.086 -52.384  15.197  1.00  0.00     0.019 A 
HETATM   22  C   UNL     1     -46.950 -53.709  14.828  1.00  0.00     0.088 A 
HETATM   23  N   UNL     1     -46.210 -54.118  13.775  1.00  0.00    -0.373 N 
HETATM   24  C   UNL     1     -45.547 -53.152  13.089  1.00  0.00     0.117 A 
ATOM     25  HN  UNL     1     -46.152 -55.101  13.509  1.00  0.00     0.164 HD
ENDBRANCH   4  19
TORSDOF 4
ENDMDL
MODEL 9
REMARK VINA RESULT:      -5.4      3.532      4.694
REMARK  4 active torsions:
REMARK  status: ('A' for Active; 'I' for Inactive)
REMARK       I    between atoms: N_4  and  C_9 
REMARK    1  A    between atoms: C_9  and  C_11 
REMARK    2  A    between atoms: C_11  and  C_12 
REMARK    3  A    between atoms: C_12  and  N_13 
REMARK       I    between atoms: N_13  and  C_14 
REMARK       I    between atoms: C_14  and  N_16 
REMARK    4  A    between atoms: N_16  and  C_17 
ROOT
HETATM    1  N   UNL     1     -43.154 -49.649  12.426  1.00  0.00    -0.342 N 
HETATM    2  C   UNL     1     -43.851 -50.491  13.270  1.00  0.00     0.320 C 
HETATM    3  O   UNL     1     -44.006 -50.230  14.458  1.00  0.00    -0.247 OA
HETATM    4  N   UNL     1     -44.279 -51.638  12.641  1.00  0.00    -0.308 N 
HETATM    5  H   UNL     1     -43.491 -49.624  11.475  1.00  0.00     0.164 HD
HETATM    6  H   UNL     1     -43.913 -51.797  11.713  1.00  0.00     0.170 HD
ENDROOT
BRANCH   1   7
HETATM    7  C   UNL     1     -42.682 -48.389  12.994  1.00  0.00     0.133 C 
BRANCH   7   8
HETATM    8  C   UNL     1     -41.166 -48.296  13.084  1.00  0.00     0.122 C 
BRANCH   8   9
HETATM    9  C   UNL     1     -40.748 -46.894  13.504  1.00  0.00     0.221 C 
HETATM   10  N   UNL     1     -40.231 -46.066  12.525  1.00  0.00    -0.347 N 
HETATM   11  C   UNL     1     -40.122 -46.372  11.099  1.00  0.00     0.157 C 
HETATM   12  C   UNL     1     -39.885 -44.677  12.848  1.00  0.00     0.157 C 
HETATM   13  C   UNL     1     -40.950 -45.374  10.268  1.00  0.00     0.136 C 
HETATM   14  C   UNL     1     -42.453 -45.623  10.386  1.00  0.00     0.041 C 
HETATM   15  O   UNL     1     -40.616 -44.014  10.596  1.00  0.00    -0.378 OA
HETATM   16  C   UNL     1     -40.734 -43.711  12.002  1.00  0.00     0.136 C 
HETATM   17  C   UNL     1     -40.287 -42.269  12.196  1.00  0.00     0.041 C 
HETATM   18  O   UNL     1     -40.881 -46.509  14.666  1.00  0.00    -0.273 OA
ENDBRANCH   8   9
ENDBRANCH   7   8
ENDBRANCH   1   7
BRANCH   4  19
HETATM   19  C   UNL     1     -44.902 -52.736  13.286  1.00  0.00     0.051 A 
HETATM   20  C   UNL     1     -44.281 -53.965  13.507  1.00  0.00     0.032 A 
HETATM   21  C   UNL     1     -45.002 -55.029  14.049  1.00  0.00     0.019 A 
HETATM   22  C   UNL     1     -46.327 -54.824  14.380  1.00  0.00     0.088 A 
HETATM   23  N   UNL     1     -46.957 -53.637  14.236  1.00  0.00    -0.373 N 
HETATM   24  C   UNL     1     -46.229 -52.626  13.698  1.00  0.00     0.117 A 
ATOM     25  HN  UNL     1     -47.930 -53.509  14.517  1.00  0.00     0.164 HD
ENDBRANCH   4  19
TORSDOF 4
ENDMDL
