MODEL 1
REMARK VINA RESULT:      -6.4      0.000      0.000
REMARK  5 active torsions:
REMARK  status: ('A' for Active; 'I' for Inactive)
REMARK    1  A    between atoms: N_5  and  C_6 
REMARK    2  A    between atoms: C_6  and  C_7 
REMARK    3  A    between atoms: C_7  and  O_8 
REMARK    4  A    between atoms: C_7  and  C_9 
REMARK    5  A    between atoms: C_9  and  N_10 
ROOT
HETATM    1  C   UNL     1     -40.462 -51.494  13.207  1.00  0.00     0.164 C 
ENDROOT
BRANCH   1   2
HETATM    2  C   UNL     1     -40.660 -52.760  12.363  1.00  0.00     0.164 C 
BRANCH   2   3
HETATM    3  C   UNL     1     -41.645 -53.735  13.063  1.00  0.00     0.305 C 
BRANCH   3   4
HETATM    4  N   UNL     1     -42.717 -53.072  13.833  1.00  0.00     0.091 N 
HETATM    5  C   UNL     1     -43.039 -53.800  15.075  1.00  0.00     0.273 C 
HETATM    6  C   UNL     1     -43.759 -55.133  14.846  1.00  0.00     0.034 C 
HETATM    7  C   UNL     1     -45.015 -54.986  13.971  1.00  0.00    -0.015 C 
HETATM    8  C   UNL     1     -46.188 -54.407  14.767  1.00  0.00     0.010 C 
HETATM    9  C   UNL     1     -44.707 -54.141  12.726  1.00  0.00     0.034 C 
HETATM   10  C   UNL     1     -43.957 -52.850  13.065  1.00  0.00     0.273 C 
ENDBRANCH   3   4
ENDBRANCH   2   3
BRANCH   2  11
HETATM   11  O   UNL     1     -41.149 -52.389  11.071  1.00  0.00    -0.392 OA
HETATM   12  H   UNL     1     -40.428 -52.521  10.424  1.00  0.00     0.210 HD
ENDBRANCH   2  11
ENDBRANCH   1   2
BRANCH   1  13
HETATM   13  N   UNL     1     -40.225 -50.320  12.377  1.00  0.00    -0.333 N 
HETATM   14  C   UNL     1     -39.013 -49.893  11.878  1.00  0.00     0.080 A 
HETATM   15  C   UNL     1     -37.722 -50.618  12.024  1.00  0.00     0.089 C 
HETATM   16  N   UNL     1     -39.137 -48.720  11.286  1.00  0.00    -0.344 N 
HETATM   17  C   UNL     1     -40.458 -48.385  11.395  1.00  0.00     0.060 A 
ATOM     18  HN  UNL     1     -38.400 -48.175  10.839  1.00  0.00     0.167 HD
HETATM   19  C   UNL     1     -41.120 -47.223  10.967  1.00  0.00     0.032 A 
HETATM   20  C   UNL     1     -41.181 -49.389  12.037  1.00  0.00     0.062 A 
HETATM   21  C   UNL     1     -42.496 -47.115  11.166  1.00  0.00     0.002 A 
HETATM   22  C   UNL     1     -43.208 -48.145  11.781  1.00  0.00     0.002 A 
HETATM   23  C   UNL     1     -42.566 -49.302  12.238  1.00  0.00     0.032 A 
ENDBRANCH   1  13
TORSDOF 5
ENDMDL
MODEL 2
REMARK VINA RESULT:      -6.2      1.419      1.950
REMARK  5 active torsions:
REMARK  status: ('A' for Active; 'I' for Inactive)
REMARK    1  A    between atoms: N_5  and  C_6 
REMARK    2  A    between atoms: C_6  and  C_7 
REMARK    3  A    between atoms: C_7  and  O_8 
REMARK    4  A    between atoms: C_7  and  C_9 
REMARK    5  A    between atoms: C_9  and  N_10 
ROOT
HETATM    1  C   UNL     1     -41.156 -51.154  13.273  1.00  0.00     0.164 C 
ENDROOT
BRANCH   1   2
HETATM    2  C   UNL     1     -41.776 -52.325  12.500  1.00  0.00     0.164 C 
BRANCH   2   3
HETATM    3  C   UNL     1     -43.324 -52.203  12.473  1.00  0.00     0.305 C 
BRANCH   3   4
HETATM    4  N   UNL     1     -44.016 -52.974  13.527  1.00  0.00     0.091 N 
HETATM    5  C   UNL     1     -45.387 -53.346  13.131  1.00  0.00     0.273 C 
HETATM    6  C   UNL     1     -46.363 -52.165  13.080  1.00  0.00     0.034 C 
HETATM    7  C   UNL     1     -46.384 -51.356  14.388  1.00  0.00    -0.015 C 
HETATM    8  C   UNL     1     -47.192 -52.071  15.475  1.00  0.00     0.010 C 
HETATM    9  C   UNL     1     -44.953 -51.054  14.857  1.00  0.00     0.034 C 
HETATM   10  C   UNL     1     -44.055 -52.295  14.836  1.00  0.00     0.273 C 
ENDBRANCH   3   4
ENDBRANCH   2   3
BRANCH   2  11
HETATM   11  O   UNL     1     -41.248 -52.343  11.172  1.00  0.00    -0.392 OA
HETATM   12  H   UNL     1     -40.702 -53.148  11.072  1.00  0.00     0.210 HD
ENDBRANCH   2  11
ENDBRANCH   1   2
BRANCH   1  13
HETATM   13  N   UNL     1     -40.735 -50.079  12.382  1.00  0.00    -0.333 N 
HETATM   14  C   UNL     1     -39.456 -49.835  11.931  1.00  0.00     0.080 A 
HETATM   15  C   UNL     1     -38.271 -50.693  12.202  1.00  0.00     0.089 C 
HETATM   16  N   UNL     1     -39.406 -48.701  11.256  1.00  0.00    -0.344 N 
HETATM   17  C   UNL     1     -40.681 -48.207  11.263  1.00  0.00     0.060 A 
ATOM     18  HN  UNL     1     -38.586 -48.281  10.819  1.00  0.00     0.167 HD
HETATM   19  C   UNL     1     -41.174 -47.010  10.719  1.00  0.00     0.032 A 
HETATM   20  C   UNL     1     -41.552 -49.070  11.924  1.00  0.00     0.062 A 
HETATM   21  C   UNL     1     -42.535 -46.727  10.827  1.00  0.00     0.002 A 
HETATM   22  C   UNL     1     -43.398 -47.620  11.464  1.00  0.00     0.002 A 
HETATM   23  C   UNL     1     -42.926 -48.807  12.034  1.00  0.00     0.032 A 
ENDBRANCH   1  13
TORSDOF 5
ENDMDL
MODEL 3
REMARK VINA RESULT:      -6.0      2.221      6.149
REMARK  5 active torsions:
REMARK  status: ('A' for Active; 'I' for Inactive)
REMARK    1  A    between atoms: N_5  and  C_6 
REMARK    2  A    between atoms: C_6  and  C_7 
REMARK    3  A    between atoms: C_7  and  O_8 
REMARK    4  A    between atoms: C_7  and  C_9 
REMARK    5  A    between atoms: C_9  and  N_10 
ROOT
HETATM    1  C   UNL     1     -42.273 -53.492  13.062  1.00  0.00     0.164 C 
ENDROOT
BRANCH   1   2
HETATM    2  C   UNL     1     -41.491 -52.357  12.388  1.00  0.00     0.164 C 
BRANCH   2   3
HETATM    3  C   UNL     1     -40.096 -52.188  13.049  1.00  0.00     0.305 C 
BRANCH   3   4
HETATM    4  N   UNL     1     -40.018 -51.092  14.038  1.00  0.00     0.091 N 
HETATM    5  C   UNL     1     -40.319 -49.780  13.435  1.00  0.00     0.273 C 
HETATM    6  C   UNL     1     -39.231 -49.265  12.487  1.00  0.00     0.034 C 
HETATM    7  C   UNL     1     -37.838 -49.249  13.136  1.00  0.00    -0.015 C 
HETATM    8  C   UNL     1     -37.676 -48.057  14.084  1.00  0.00     0.010 C 
HETATM    9  C   UNL     1     -37.561 -50.579  13.852  1.00  0.00     0.034 C 
HETATM   10  C   UNL     1     -38.726 -51.017  14.745  1.00  0.00     0.273 C 
ENDBRANCH   3   4
ENDBRANCH   2   3
BRANCH   2  11
HETATM   11  O   UNL     1     -41.358 -52.643  10.994  1.00  0.00    -0.392 OA
HETATM   12  H   UNL     1     -41.651 -51.857  10.493  1.00  0.00     0.210 HD
ENDBRANCH   2  11
ENDBRANCH   1   2
BRANCH   1  13
HETATM   13  N   UNL     1     -43.070 -53.009  14.184  1.00  0.00    -0.333 N 
HETATM   14  C   UNL     1     -42.768 -53.132  15.523  1.00  0.00     0.080 A 
HETATM   15  C   UNL     1     -41.509 -53.707  16.070  1.00  0.00     0.089 C 
HETATM   16  N   UNL     1     -43.772 -52.711  16.270  1.00  0.00    -0.344 N 
HETATM   17  C   UNL     1     -44.739 -52.299  15.396  1.00  0.00     0.060 A 
ATOM     18  HN  UNL     1     -43.817 -52.696  17.289  1.00  0.00     0.167 HD
HETATM   19  C   UNL     1     -46.023 -51.796  15.662  1.00  0.00     0.032 A 
HETATM   20  C   UNL     1     -44.314 -52.431  14.076  1.00  0.00     0.062 A 
HETATM   21  C   UNL     1     -46.834 -51.410  14.594  1.00  0.00     0.002 A 
HETATM   22  C   UNL     1     -46.378 -51.519  13.280  1.00  0.00     0.002 A 
HETATM   23  C   UNL     1     -45.111 -52.039  12.990  1.00  0.00     0.032 A 
ENDBRANCH   1  13
TORSDOF 5
ENDMDL
MODEL 4
REMARK VINA RESULT:      -6.0      2.234      3.700
REMARK  5 active torsions:
REMARK  status: ('A' for Active; 'I' for Inactive)
REMARK    1  A    between atoms: N_5  and  C_6 
REMARK    2  A    between atoms: C_6  and  C_7 
REMARK    3  A    between atoms: C_7  and  O_8 
REMARK    4  A    between atoms: C_7  and  C_9 
REMARK    5  A    between atoms: C_9  and  N_10 
ROOT
HETATM    1  C   UNL     1     -41.415 -48.906  12.055  1.00  0.00     0.164 C 
ENDROOT
BRANCH   1   2
HETATM    2  C   UNL     1     -40.206 -49.772  11.679  1.00  0.00     0.164 C 
BRANCH   2   3
HETATM    3  C   UNL     1     -40.143 -51.039  12.575  1.00  0.00     0.305 C 
BRANCH   3   4
HETATM    4  N   UNL     1     -41.449 -51.471  13.115  1.00  0.00     0.091 N 
HETATM    5  C   UNL     1     -41.407 -51.669  14.576  1.00  0.00     0.273 C 
HETATM    6  C   UNL     1     -40.599 -52.895  15.015  1.00  0.00     0.034 C 
HETATM    7  C   UNL     1     -41.051 -54.186  14.313  1.00  0.00    -0.015 C 
HETATM    8  C   UNL     1     -42.346 -54.731  14.923  1.00  0.00     0.010 C 
HETATM    9  C   UNL     1     -41.194 -53.955  12.801  1.00  0.00     0.034 C 
HETATM   10  C   UNL     1     -41.988 -52.686  12.475  1.00  0.00     0.273 C 
ENDBRANCH   3   4
ENDBRANCH   2   3
BRANCH   2  11
HETATM   11  O   UNL     1     -40.299 -50.134  10.299  1.00  0.00    -0.392 OA
HETATM   12  H   UNL     1     -40.748 -51.000  10.241  1.00  0.00     0.210 HD
ENDBRANCH   2  11
ENDBRANCH   1   2
BRANCH   1  13
HETATM   13  N   UNL     1     -41.272 -47.538  11.571  1.00  0.00    -0.333 N 
HETATM   14  C   UNL     1     -41.813 -47.010  10.418  1.00  0.00     0.080 A 
HETATM   15  C   UNL     1     -42.732 -47.727   9.494  1.00  0.00     0.089 C 
HETATM   16  N   UNL     1     -41.370 -45.783  10.213  1.00  0.00    -0.344 N 
HETATM   17  C   UNL     1     -40.533 -45.509  11.259  1.00  0.00     0.060 A 
ATOM     18  HN  UNL     1     -41.604 -45.167   9.435  1.00  0.00     0.167 HD
HETATM   19  C   UNL     1     -39.770 -44.357  11.509  1.00  0.00     0.032 A 
HETATM   20  C   UNL     1     -40.482 -46.573  12.155  1.00  0.00     0.062 A 
HETATM   21  C   UNL     1     -39.001 -44.294  12.671  1.00  0.00     0.002 A 
HETATM   22  C   UNL     1     -38.989 -45.357  13.574  1.00  0.00     0.002 A 
HETATM   23  C   UNL     1     -39.722 -46.525  13.334  1.00  0.00     0.032 A 
ENDBRANCH   1  13
TORSDOF 5
ENDMDL
MODEL 5
REMARK VINA RESULT:      -5.8      2.138      3.417
REMARK  5 active torsions:
REMARK  status: ('A' for Active; 'I' for Inactive)
REMARK    1  A    between atoms: N_5  and  C_6 
REMARK    2  A    between atoms: C_6  and  C_7 
REMARK    3  A    between atoms: C_7  and  O_8 
REMARK    4  A    between atoms: C_7  and  C_9 
REMARK    5  A    between atoms: C_9  and  N_10 
ROOT
HETATM    1  C   UNL     1     -41.775 -48.761  11.925  1.00  0.00     0.164 C 
ENDROOT
BRANCH   1   2
HETATM    2  C   UNL     1     -40.533 -49.586  11.562  1.00  0.00     0.164 C 
BRANCH   2   3
HETATM    3  C   UNL     1     -40.461 -50.874  12.426  1.00  0.00     0.305 C 
BRANCH   3   4
HETATM    4  N   UNL     1     -41.759 -51.311  12.980  1.00  0.00     0.091 N 
HETATM    5  C   UNL     1     -41.714 -51.458  14.448  1.00  0.00     0.273 C 
HETATM    6  C   UNL     1     -40.883 -52.653  14.928  1.00  0.00     0.034 C 
HETATM    7  C   UNL     1     -41.311 -53.975  14.271  1.00  0.00    -0.015 C 
HETATM    8  C   UNL     1     -42.596 -54.523  14.899  1.00  0.00     0.010 C 
HETATM    9  C   UNL     1     -41.458 -53.799  12.752  1.00  0.00     0.034 C 
HETATM   10  C   UNL     1     -42.275 -52.557  12.383  1.00  0.00     0.273 C 
ENDBRANCH   3   4
ENDBRANCH   2   3
BRANCH   2  11
HETATM   11  O   UNL     1     -40.579 -49.913  10.171  1.00  0.00    -0.392 OA
HETATM   12  H   UNL     1     -39.745 -49.610   9.759  1.00  0.00     0.210 HD
ENDBRANCH   2  11
ENDBRANCH   1   2
BRANCH   1  13
HETATM   13  N   UNL     1     -41.961 -47.635  11.019  1.00  0.00    -0.333 N 
HETATM   14  C   UNL     1     -41.058 -46.625  10.761  1.00  0.00     0.080 A 
HETATM   15  C   UNL     1     -39.673 -46.554  11.299  1.00  0.00     0.089 C 
HETATM   16  N   UNL     1     -41.603 -45.693  10.001  1.00  0.00    -0.344 N 
HETATM   17  C   UNL     1     -42.881 -46.113   9.754  1.00  0.00     0.060 A 
ATOM     18  HN  UNL     1     -41.162 -44.837   9.666  1.00  0.00     0.167 HD
HETATM   19  C   UNL     1     -43.901 -45.477   9.029  1.00  0.00     0.032 A 
HETATM   20  C   UNL     1     -43.127 -47.351  10.343  1.00  0.00     0.062 A 
HETATM   21  C   UNL     1     -45.132 -46.118   8.888  1.00  0.00     0.002 A 
HETATM   22  C   UNL     1     -45.348 -47.374   9.457  1.00  0.00     0.002 A 
HETATM   23  C   UNL     1     -44.354 -48.016  10.204  1.00  0.00     0.032 A 
ENDBRANCH   1  13
TORSDOF 5
ENDMDL
MODEL 6
REMARK VINA RESULT:      -5.7      3.709      5.501
REMARK  5 active torsions:
REMARK  status: ('A' for Active; 'I' for Inactive)
REMARK    1  A    between atoms: N_5  and  C_6 
REMARK    2  A    between atoms: C_6  and  C_7 
REMARK    3  A    between atoms: C_7  and  O_8 
REMARK    4  A    between atoms: C_7  and  C_9 
REMARK    5  A    between atoms: C_9  and  N_10 
ROOT
HETATM    1  C   UNL     1     -41.606 -48.725  11.799  1.00  0.00     0.164 C 
ENDROOT
BRANCH   1   2
HETATM    2  C   UNL     1     -40.334 -49.516  11.469  1.00  0.00     0.164 C 
BRANCH   2   3
HETATM    3  C   UNL     1     -40.105 -50.642  12.514  1.00  0.00     0.305 C 
BRANCH   3   4
HETATM    4  N   UNL     1     -38.686 -50.986  12.739  1.00  0.00     0.091 N 
HETATM    5  C   UNL     1     -38.502 -51.816  13.945  1.00  0.00     0.273 C 
HETATM    6  C   UNL     1     -38.732 -51.064  15.260  1.00  0.00     0.034 C 
HETATM    7  C   UNL     1     -37.895 -49.779  15.363  1.00  0.00    -0.015 C 
HETATM    8  C   UNL     1     -36.436 -50.087  15.711  1.00  0.00     0.010 C 
HETATM    9  C   UNL     1     -38.004 -48.960  14.068  1.00  0.00     0.034 C 
HETATM   10  C   UNL     1     -37.791 -49.815  12.814  1.00  0.00     0.273 C 
ENDBRANCH   3   4
ENDBRANCH   2   3
BRANCH   2  11
HETATM   11  O   UNL     1     -40.450 -50.063  10.154  1.00  0.00    -0.392 OA
HETATM   12  H   UNL     1     -41.380 -49.972   9.867  1.00  0.00     0.210 HD
ENDBRANCH   2  11
ENDBRANCH   1   2
BRANCH   1  13
HETATM   13  N   UNL     1     -41.544 -47.361  11.290  1.00  0.00    -0.333 N 
HETATM   14  C   UNL     1     -42.116 -46.886  10.129  1.00  0.00     0.080 A 
HETATM   15  C   UNL     1     -42.992 -47.673   9.220  1.00  0.00     0.089 C 
HETATM   16  N   UNL     1     -41.745 -45.640   9.900  1.00  0.00    -0.344 N 
HETATM   17  C   UNL     1     -40.924 -45.298  10.939  1.00  0.00     0.060 A 
ATOM     18  HN  UNL     1     -42.015 -45.053   9.111  1.00  0.00     0.167 HD
HETATM   19  C   UNL     1     -40.229 -44.099  11.166  1.00  0.00     0.032 A 
HETATM   20  C   UNL     1     -40.810 -46.341  11.855  1.00  0.00     0.062 A 
HETATM   21  C   UNL     1     -39.463 -43.970  12.325  1.00  0.00     0.002 A 
HETATM   22  C   UNL     1     -39.388 -45.014  13.247  1.00  0.00     0.002 A 
HETATM   23  C   UNL     1     -40.053 -46.226  13.030  1.00  0.00     0.032 A 
ENDBRANCH   1  13
TORSDOF 5
ENDMDL
MODEL 7
REMARK VINA RESULT:      -5.6      2.158      2.974
REMARK  5 active torsions:
REMARK  status: ('A' for Active; 'I' for Inactive)
REMARK    1  A    between atoms: N_5  and  C_6 
REMARK    2  A    between atoms: C_6  and  C_7 
REMARK    3  A    between atoms: C_7  and  O_8 
REMARK    4  A    between atoms: C_7  and  C_9 
REMARK    5  A    between atoms: C_9  and  N_10 
ROOT
HETATM    1  C   UNL     1     -41.344 -49.099  12.286  1.00  0.00     0.164 C 
ENDROOT
BRANCH   1   2
HETATM    2  C   UNL     1     -40.498 -50.222  11.673  1.00  0.00     0.164 C 
BRANCH   2   3
HETATM    3  C   UNL     1     -41.130 -51.608  11.976  1.00  0.00     0.305 C 
BRANCH   3   4
HETATM    4  N   UNL     1     -41.851 -51.682  13.263  1.00  0.00     0.091 N 
HETATM    5  C   UNL     1     -41.201 -52.608  14.210  1.00  0.00     0.273 C 
HETATM    6  C   UNL     1     -41.333 -54.086  13.826  1.00  0.00     0.034 C 
HETATM    7  C   UNL     1     -42.791 -54.507  13.582  1.00  0.00    -0.015 C 
HETATM    8  C   UNL     1     -43.544 -54.707  14.900  1.00  0.00     0.010 C 
HETATM    9  C   UNL     1     -43.502 -53.489  12.677  1.00  0.00     0.034 C 
HETATM   10  C   UNL     1     -43.275 -52.044  13.131  1.00  0.00     0.273 C 
ENDBRANCH   3   4
ENDBRANCH   2   3
BRANCH   2  11
HETATM   11  O   UNL     1     -40.392 -50.013  10.262  1.00  0.00    -0.392 OA
HETATM   12  H   UNL     1     -39.617 -49.440  10.097  1.00  0.00     0.210 HD
ENDBRANCH   2  11
ENDBRANCH   1   2
BRANCH   1  13
HETATM   13  N   UNL     1     -40.515 -48.018  12.805  1.00  0.00    -0.333 N 
HETATM   14  C   UNL     1     -39.944 -47.944  14.058  1.00  0.00     0.080 A 
HETATM   15  C   UNL     1     -39.998 -49.015  15.089  1.00  0.00     0.089 C 
HETATM   16  N   UNL     1     -39.376 -46.767  14.245  1.00  0.00    -0.344 N 
HETATM   17  C   UNL     1     -39.574 -46.069  13.086  1.00  0.00     0.060 A 
ATOM     18  HN  UNL     1     -38.889 -46.445  15.081  1.00  0.00     0.167 HD
HETATM   19  C   UNL     1     -39.204 -44.753  12.766  1.00  0.00     0.032 A 
HETATM   20  C   UNL     1     -40.248 -46.840  12.142  1.00  0.00     0.062 A 
HETATM   21  C   UNL     1     -39.492 -44.258  11.494  1.00  0.00     0.002 A 
HETATM   22  C   UNL     1     -40.139 -45.058  10.551  1.00  0.00     0.002 A 
HETATM   23  C   UNL     1     -40.539 -46.364  10.855  1.00  0.00     0.032 A 
ENDBRANCH   1  13
TORSDOF 5
ENDMDL
MODEL 8
REMARK VINA RESULT:      -5.6      2.231      6.487
REMARK  5 active torsions:
REMARK  status: ('A' for Active; 'I' for Inactive)
REMARK    1  A    between atoms: N_5  and  C_6 
REMARK    2  A    between atoms: C_6  and  C_7 
REMARK    3  A    between atoms: C_7  and  O_8 
REMARK    4  A    between atoms: C_7  and  C_9 
REMARK    5  A    between atoms: C_9  and  N_10 
ROOT
HETATM    1  C   UNL     1     -40.885 -52.322  11.959  1.00  0.00     0.164 C 
ENDROOT
BRANCH   1   2
HETATM    2  C   UNL     1     -41.000 -50.831  12.304  1.00  0.00     0.164 C 
BRANCH   2   3
HETATM    3  C   UNL     1     -39.605 -50.239  12.639  1.00  0.00     0.305 C 
BRANCH   3   4
HETATM    4  N   UNL     1     -39.338 -50.085  14.084  1.00  0.00     0.091 N 
HETATM    5  C   UNL     1     -40.292 -49.163  14.729  1.00  0.00     0.273 C 
HETATM    6  C   UNL     1     -40.099 -47.694  14.337  1.00  0.00     0.034 C 
HETATM    7  C   UNL     1     -38.657 -47.207  14.550  1.00  0.00    -0.015 C 
HETATM    8  C   UNL     1     -38.375 -46.924  16.029  1.00  0.00     0.010 C 
HETATM    9  C   UNL     1     -37.656 -48.216  13.969  1.00  0.00     0.034 C 
HETATM   10  C   UNL     1     -37.961 -49.656  14.396  1.00  0.00     0.273 C 
ENDBRANCH   3   4
ENDBRANCH   2   3
BRANCH   2  11
HETATM   11  O   UNL     1     -41.592 -50.139  11.202  1.00  0.00    -0.392 OA
HETATM   12  H   UNL     1     -42.550 -50.332  11.200  1.00  0.00     0.210 HD
ENDBRANCH   2  11
ENDBRANCH   1   2
BRANCH   1  13
HETATM   13  N   UNL     1     -41.372 -53.168  13.041  1.00  0.00    -0.333 N 
HETATM   14  C   UNL     1     -40.611 -53.792  14.007  1.00  0.00     0.080 A 
HETATM   15  C   UNL     1     -39.141 -53.635  14.175  1.00  0.00     0.089 C 
HETATM   16  N   UNL     1     -41.356 -54.593  14.745  1.00  0.00    -0.344 N 
HETATM   17  C   UNL     1     -42.627 -54.478  14.254  1.00  0.00     0.060 A 
ATOM     18  HN  UNL     1     -41.048 -55.177  15.523  1.00  0.00     0.167 HD
HETATM   19  C   UNL     1     -43.798 -55.141  14.653  1.00  0.00     0.032 A 
HETATM   20  C   UNL     1     -42.682 -53.557  13.210  1.00  0.00     0.062 A 
HETATM   21  C   UNL     1     -45.000 -54.837  14.014  1.00  0.00     0.002 A 
HETATM   22  C   UNL     1     -45.041 -53.887  12.993  1.00  0.00     0.002 A 
HETATM   23  C   UNL     1     -43.883 -53.231  12.562  1.00  0.00     0.032 A 
ENDBRANCH   1  13
TORSDOF 5
ENDMDL
MODEL 9
REMARK VINA RESULT:      -5.6      1.997      5.953
REMARK  5 active torsions:
REMARK  status: ('A' for Active; 'I' for Inactive)
REMARK    1  A    between atoms: N_5  and  C_6 
REMARK    2  A    between atoms: C_6  and  C_7 
REMARK    3  A    between atoms: C_7  and  O_8 
REMARK    4  A    between atoms: C_7  and  C_9 
REMARK    5  A    between atoms: C_9  and  N_10 
ROOT
HETATM    1  C   UNL     1     -41.494 -51.731  14.681  1.00  0.00     0.164 C 
ENDROOT
BRANCH   1   2
HETATM    2  C   UNL     1     -40.614 -50.845  13.790  1.00  0.00     0.164 C 
BRANCH   2   3
HETATM    3  C   UNL     1     -41.320 -49.494  13.495  1.00  0.00     0.305 C 
BRANCH   3   4
HETATM    4  N   UNL     1     -41.960 -49.418  12.165  1.00  0.00     0.091 N 
HETATM    5  C   UNL     1     -41.031 -48.927  11.130  1.00  0.00     0.273 C 
HETATM    6  C   UNL     1     -40.679 -47.441  11.263  1.00  0.00     0.034 C 
HETATM    7  C   UNL     1     -41.924 -46.541  11.336  1.00  0.00    -0.015 C 
HETATM    8  C   UNL     1     -42.552 -46.343   9.953  1.00  0.00     0.010 C 
HETATM    9  C   UNL     1     -42.939 -47.106  12.340  1.00  0.00     0.034 C 
HETATM   10  C   UNL     1     -43.190 -48.604  12.139  1.00  0.00     0.273 C 
ENDBRANCH   3   4
ENDBRANCH   2   3
BRANCH   2  11
HETATM   11  O   UNL     1     -39.359 -50.627  14.440  1.00  0.00    -0.392 OA
HETATM   12  H   UNL     1     -38.652 -50.980  13.864  1.00  0.00     0.210 HD
ENDBRANCH   2  11
ENDBRANCH   1   2
BRANCH   1  13
HETATM   13  N   UNL     1     -42.487 -52.462  13.905  1.00  0.00    -0.333 N 
HETATM   14  C   UNL     1     -42.251 -53.511  13.042  1.00  0.00     0.080 A 
HETATM   15  C   UNL     1     -40.929 -54.155  12.815  1.00  0.00     0.089 C 
HETATM   16  N   UNL     1     -43.354 -53.847  12.400  1.00  0.00    -0.344 N 
HETATM   17  C   UNL     1     -44.326 -53.004  12.863  1.00  0.00     0.060 A 
ATOM     18  HN  UNL     1     -43.460 -54.582  11.701  1.00  0.00     0.167 HD
HETATM   19  C   UNL     1     -45.675 -52.909  12.485  1.00  0.00     0.032 A 
HETATM   20  C   UNL     1     -43.827 -52.150  13.843  1.00  0.00     0.062 A 
HETATM   21  C   UNL     1     -46.493 -51.978  13.125  1.00  0.00     0.002 A 
HETATM   22  C   UNL     1     -45.982 -51.153  14.127  1.00  0.00     0.002 A 
HETATM   23  C   UNL     1     -44.636 -51.214  14.505  1.00  0.00     0.032 A 
ENDBRANCH   1  13
TORSDOF 5
ENDMDL
