MODEL 1
REMARK VINA RESULT:      -5.1      0.000      0.000
REMARK  7 active torsions:
REMARK  status: ('A' for Active; 'I' for Inactive)
REMARK    1  A    between atoms: C_2  and  O_4 
REMARK    2  A    between atoms: O_4  and  C_5 
REMARK    3  A    between atoms: C_5  and  C_6 
REMARK    4  A    between atoms: C_6  and  S_7 
REMARK    5  A    between atoms: S_7  and  C_8 
REMARK    6  A    between atoms: C_11  and  N_12 
REMARK    7  A    between atoms: C_14  and  N_15 
ROOT
HETATM    1  C   UNL     1     -43.016 -47.473  10.677  1.00  0.00     0.146 A 
HETATM    2  N   UNL     1     -43.366 -46.177  10.711  1.00  0.00    -0.328 N 
ATOM      3  HN  UNL     1     -43.430 -45.663  11.589  1.00  0.00     0.169 HD
HETATM    4  C   UNL     1     -43.625 -45.596   9.540  1.00  0.00     0.082 A 
HETATM    5  C   UNL     1     -43.537 -46.268   8.346  1.00  0.00     0.084 A 
HETATM    6  C   UNL     1     -43.188 -47.598   8.414  1.00  0.00     0.082 A 
HETATM    7  N   UNL     1     -42.923 -48.219   9.566  1.00  0.00    -0.328 N 
ATOM      8  HN  UNL     1     -42.664 -49.205   9.599  1.00  0.00     0.169 HD
ENDROOT
BRANCH   1   9
HETATM    9  S   UNL     1     -42.555 -48.174  12.240  1.00  0.00    -0.092 SA
BRANCH   9  10
HETATM   10  C   UNL     1     -40.809 -48.594  11.939  1.00  0.00     0.108 C 
BRANCH  10  11
HETATM   11  C   UNL     1     -40.068 -47.306  11.579  1.00  0.00     0.178 C 
BRANCH  11  12
HETATM   12  O   UNL     1     -40.491 -46.240  12.435  1.00  0.00    -0.386 OA
BRANCH  12  13
HETATM   13  C   UNL     1     -40.214 -44.939  11.899  1.00  0.00     0.113 C 
HETATM   14  C   UNL     1     -39.064 -44.349  12.707  1.00  0.00     0.039 C 
HETATM   15  C   UNL     1     -39.830 -45.002  10.421  1.00  0.00     0.039 C 
ENDBRANCH  12  13
ENDBRANCH  11  12
ENDBRANCH  10  11
ENDBRANCH   9  10
ENDBRANCH   1   9
BRANCH   4  16
HETATM   16  N   UNL     1     -43.938 -44.239   9.575  1.00  0.00    -0.288 NA
HETATM   17  H   UNL     1     -44.211 -43.963   8.633  1.00  0.00     0.125 HD
HETATM   18  H   UNL     1     -43.173 -43.675   9.928  1.00  0.00     0.125 HD
ENDBRANCH   4  16
BRANCH   6  19
HETATM   19  N   UNL     1     -43.031 -48.342   7.245  1.00  0.00    -0.288 NA
HETATM   20  H   UNL     1     -42.422 -49.142   7.369  1.00  0.00     0.125 HD
HETATM   21  H   UNL     1     -42.701 -47.716   6.514  1.00  0.00     0.125 HD
ENDBRANCH   6  19
TORSDOF 7
ENDMDL
MODEL 2
REMARK VINA RESULT:      -5.1      2.386      3.124
REMARK  7 active torsions:
REMARK  status: ('A' for Active; 'I' for Inactive)
REMARK    1  A    between atoms: C_2  and  O_4 
REMARK    2  A    between atoms: O_4  and  C_5 
REMARK    3  A    between atoms: C_5  and  C_6 
REMARK    4  A    between atoms: C_6  and  S_7 
REMARK    5  A    between atoms: S_7  and  C_8 
REMARK    6  A    between atoms: C_11  and  N_12 
REMARK    7  A    between atoms: C_14  and  N_15 
ROOT
HETATM    1  C   UNL     1     -42.483 -47.400  10.543  1.00  0.00     0.146 A 
HETATM    2  N   UNL     1     -42.992 -46.160  10.620  1.00  0.00    -0.328 N 
ATOM      3  HN  UNL     1     -42.966 -45.623  11.487  1.00  0.00     0.169 HD
HETATM    4  C   UNL     1     -43.533 -45.665   9.507  1.00  0.00     0.082 A 
HETATM    5  C   UNL     1     -43.570 -46.366   8.329  1.00  0.00     0.084 A 
HETATM    6  C   UNL     1     -43.039 -47.637   8.352  1.00  0.00     0.082 A 
HETATM    7  N   UNL     1     -42.491 -48.172   9.446  1.00  0.00    -0.328 N 
ATOM      8  HN  UNL     1     -42.100 -49.114   9.447  1.00  0.00     0.169 HD
ENDROOT
BRANCH   1   9
HETATM    9  S   UNL     1     -41.660 -47.972  12.007  1.00  0.00    -0.092 SA
BRANCH   9  10
HETATM   10  C   UNL     1     -41.006 -49.575  11.442  1.00  0.00     0.108 C 
BRANCH  10  11
HETATM   11  C   UNL     1     -40.194 -50.184  12.585  1.00  0.00     0.178 C 
BRANCH  11  12
HETATM   12  O   UNL     1     -39.178 -51.045  12.063  1.00  0.00    -0.386 OA
BRANCH  12  13
HETATM   13  C   UNL     1     -37.848 -50.589  12.347  1.00  0.00     0.113 C 
HETATM   14  C   UNL     1     -37.293 -49.982  11.063  1.00  0.00     0.039 C 
HETATM   15  C   UNL     1     -37.830 -49.546  13.463  1.00  0.00     0.039 C 
ENDBRANCH  12  13
ENDBRANCH  11  12
ENDBRANCH  10  11
ENDBRANCH   9  10
ENDBRANCH   1   9
BRANCH   4  16
HETATM   16  N   UNL     1     -44.014 -44.359   9.577  1.00  0.00    -0.288 NA
HETATM   17  H   UNL     1     -45.030 -44.403   9.522  1.00  0.00     0.125 HD
HETATM   18  H   UNL     1     -43.621 -43.763   8.858  1.00  0.00     0.125 HD
ENDBRANCH   4  16
BRANCH   6  19
HETATM   19  N   UNL     1     -42.995 -48.401   7.186  1.00  0.00    -0.288 NA
HETATM   20  H   UNL     1     -43.878 -48.410   6.691  1.00  0.00     0.125 HD
HETATM   21  H   UNL     1     -42.681 -49.337   7.434  1.00  0.00     0.125 HD
ENDBRANCH   6  19
TORSDOF 7
ENDMDL
MODEL 3
REMARK VINA RESULT:      -4.9      2.373      3.640
REMARK  7 active torsions:
REMARK  status: ('A' for Active; 'I' for Inactive)
REMARK    1  A    between atoms: C_2  and  O_4 
REMARK    2  A    between atoms: O_4  and  C_5 
REMARK    3  A    between atoms: C_5  and  C_6 
REMARK    4  A    between atoms: C_6  and  S_7 
REMARK    5  A    between atoms: S_7  and  C_8 
REMARK    6  A    between atoms: C_11  and  N_12 
REMARK    7  A    between atoms: C_14  and  N_15 
ROOT
HETATM    1  C   UNL     1     -43.005 -47.406  10.746  1.00  0.00     0.146 A 
HETATM    2  N   UNL     1     -42.849 -48.167   9.651  1.00  0.00    -0.328 N 
ATOM      3  HN  UNL     1     -42.559 -49.143   9.713  1.00  0.00     0.169 HD
HETATM    4  C   UNL     1     -43.093 -47.584   8.477  1.00  0.00     0.082 A 
HETATM    5  C   UNL     1     -43.492 -46.275   8.372  1.00  0.00     0.084 A 
HETATM    6  C   UNL     1     -43.607 -45.570   9.549  1.00  0.00     0.082 A 
HETATM    7  N   UNL     1     -43.369 -46.115  10.745  1.00  0.00    -0.328 N 
ATOM      8  HN  UNL     1     -43.460 -45.580  11.608  1.00  0.00     0.169 HD
ENDROOT
BRANCH   1   9
HETATM    9  S   UNL     1     -42.795 -48.253  12.291  1.00  0.00    -0.092 SA
BRANCH   9  10
HETATM   10  C   UNL     1     -41.774 -49.672  11.782  1.00  0.00     0.108 C 
BRANCH  10  11
HETATM   11  C   UNL     1     -40.408 -49.537  12.456  1.00  0.00     0.178 C 
BRANCH  11  12
HETATM   12  O   UNL     1     -39.421 -50.261  11.717  1.00  0.00    -0.386 OA
BRANCH  12  13
HETATM   13  C   UNL     1     -38.078 -49.857  12.018  1.00  0.00     0.113 C 
HETATM   14  C   UNL     1     -37.586 -50.734  13.164  1.00  0.00     0.039 C 
HETATM   15  C   UNL     1     -37.153 -50.013  10.812  1.00  0.00     0.039 C 
ENDBRANCH  12  13
ENDBRANCH  11  12
ENDBRANCH  10  11
ENDBRANCH   9  10
ENDBRANCH   1   9
BRANCH   4  16
HETATM   16  N   UNL     1     -42.981 -48.390   7.347  1.00  0.00    -0.288 NA
HETATM   17  H   UNL     1     -42.015 -48.711   7.294  1.00  0.00     0.125 HD
HETATM   18  H   UNL     1     -43.267 -47.912   6.501  1.00  0.00     0.125 HD
ENDBRANCH   4  16
BRANCH   6  19
HETATM   19  N   UNL     1     -44.052 -44.248   9.535  1.00  0.00    -0.288 NA
HETATM   20  H   UNL     1     -43.347 -43.602   9.201  1.00  0.00     0.125 HD
HETATM   21  H   UNL     1     -44.377 -44.015  10.471  1.00  0.00     0.125 HD
ENDBRANCH   6  19
TORSDOF 7
ENDMDL
MODEL 4
REMARK VINA RESULT:      -4.9      0.749      2.277
REMARK  7 active torsions:
REMARK  status: ('A' for Active; 'I' for Inactive)
REMARK    1  A    between atoms: C_2  and  O_4 
REMARK    2  A    between atoms: O_4  and  C_5 
REMARK    3  A    between atoms: C_5  and  C_6 
REMARK    4  A    between atoms: C_6  and  S_7 
REMARK    5  A    between atoms: S_7  and  C_8 
REMARK    6  A    between atoms: C_11  and  N_12 
REMARK    7  A    between atoms: C_14  and  N_15 
ROOT
HETATM    1  C   UNL     1     -42.846 -47.424  10.665  1.00  0.00     0.146 A 
HETATM    2  N   UNL     1     -42.754 -48.174   9.556  1.00  0.00    -0.328 N 
ATOM      3  HN  UNL     1     -42.444 -49.146   9.591  1.00  0.00     0.169 HD
HETATM    4  C   UNL     1     -43.087 -47.587   8.407  1.00  0.00     0.082 A 
HETATM    5  C   UNL     1     -43.513 -46.285   8.339  1.00  0.00     0.084 A 
HETATM    6  C   UNL     1     -43.559 -45.590   9.527  1.00  0.00     0.082 A 
HETATM    7  N   UNL     1     -43.231 -46.139  10.699  1.00  0.00    -0.328 N 
ATOM      8  HN  UNL     1     -43.272 -45.612  11.571  1.00  0.00     0.169 HD
ENDROOT
BRANCH   1   9
HETATM    9  S   UNL     1     -42.518 -48.277  12.186  1.00  0.00    -0.092 SA
BRANCH   9  10
HETATM   10  C   UNL     1     -41.399 -47.104  13.016  1.00  0.00     0.108 C 
BRANCH  10  11
HETATM   11  C   UNL     1     -40.078 -47.087  12.247  1.00  0.00     0.178 C 
BRANCH  11  12
HETATM   12  O   UNL     1     -39.999 -45.914  11.432  1.00  0.00    -0.386 OA
BRANCH  12  13
HETATM   13  C   UNL     1     -40.230 -44.701  12.160  1.00  0.00     0.113 C 
HETATM   14  C   UNL     1     -38.923 -44.330  12.853  1.00  0.00     0.039 C 
HETATM   15  C   UNL     1     -40.671 -43.561  11.243  1.00  0.00     0.039 C 
ENDBRANCH  12  13
ENDBRANCH  11  12
ENDBRANCH  10  11
ENDBRANCH   9  10
ENDBRANCH   1   9
BRANCH   4  16
HETATM   16  N   UNL     1     -43.039 -48.384   7.265  1.00  0.00    -0.288 NA
HETATM   17  H   UNL     1     -42.077 -48.380   6.928  1.00  0.00     0.125 HD
HETATM   18  H   UNL     1     -43.691 -48.078   6.552  1.00  0.00     0.125 HD
ENDBRANCH   4  16
BRANCH   6  19
HETATM   19  N   UNL     1     -44.025 -44.276   9.554  1.00  0.00    -0.288 NA
HETATM   20  H   UNL     1     -43.409 -43.632   9.071  1.00  0.00     0.125 HD
HETATM   21  H   UNL     1     -44.173 -44.013  10.526  1.00  0.00     0.125 HD
ENDBRANCH   6  19
TORSDOF 7
ENDMDL
MODEL 5
REMARK VINA RESULT:      -4.9      3.691      5.283
REMARK  7 active torsions:
REMARK  status: ('A' for Active; 'I' for Inactive)
REMARK    1  A    between atoms: C_2  and  O_4 
REMARK    2  A    between atoms: O_4  and  C_5 
REMARK    3  A    between atoms: C_5  and  C_6 
REMARK    4  A    between atoms: C_6  and  S_7 
REMARK    5  A    between atoms: S_7  and  C_8 
REMARK    6  A    between atoms: C_11  and  N_12 
REMARK    7  A    between atoms: C_14  and  N_15 
ROOT
HETATM    1  C   UNL     1     -41.324 -48.439  10.872  1.00  0.00     0.146 A 
HETATM    2  N   UNL     1     -40.676 -47.288  10.634  1.00  0.00    -0.328 N 
ATOM      3  HN  UNL     1     -39.672 -47.197  10.789  1.00  0.00     0.169 HD
HETATM    4  C   UNL     1     -41.409 -46.270  10.183  1.00  0.00     0.082 A 
HETATM    5  C   UNL     1     -42.759 -46.374   9.960  1.00  0.00     0.084 A 
HETATM    6  C   UNL     1     -43.339 -47.589  10.251  1.00  0.00     0.082 A 
HETATM    7  N   UNL     1     -42.642 -48.633  10.706  1.00  0.00    -0.328 N 
ATOM      8  HN  UNL     1     -43.085 -49.527  10.916  1.00  0.00     0.169 HD
ENDROOT
BRANCH   1   9
HETATM    9  S   UNL     1     -40.294 -49.803  11.347  1.00  0.00    -0.092 SA
BRANCH   9  10
HETATM   10  C   UNL     1     -41.450 -50.786  12.355  1.00  0.00     0.108 C 
BRANCH  10  11
HETATM   11  C   UNL     1     -41.387 -52.234  11.870  1.00  0.00     0.178 C 
BRANCH  11  12
HETATM   12  O   UNL     1     -40.216 -52.875  12.387  1.00  0.00    -0.386 OA
BRANCH  12  13
HETATM   13  C   UNL     1     -40.435 -53.523  13.648  1.00  0.00     0.113 C 
HETATM   14  C   UNL     1     -41.774 -54.247  13.560  1.00  0.00     0.039 C 
HETATM   15  C   UNL     1     -39.326 -54.523  13.974  1.00  0.00     0.039 C 
ENDBRANCH  12  13
ENDBRANCH  11  12
ENDBRANCH  10  11
ENDBRANCH   9  10
ENDBRANCH   1   9
BRANCH   4  16
HETATM   16  N   UNL     1     -40.724 -45.093   9.888  1.00  0.00    -0.288 NA
HETATM   17  H   UNL     1     -41.124 -44.353  10.463  1.00  0.00     0.125 HD
HETATM   18  H   UNL     1     -40.756 -44.865   8.901  1.00  0.00     0.125 HD
ENDBRANCH   4  16
BRANCH   6  19
HETATM   19  N   UNL     1     -44.697 -47.794  10.009  1.00  0.00    -0.288 NA
HETATM   20  H   UNL     1     -44.990 -48.744  10.204  1.00  0.00     0.125 HD
HETATM   21  H   UNL     1     -44.891 -47.518   9.049  1.00  0.00     0.125 HD
ENDBRANCH   6  19
TORSDOF 7
ENDMDL
MODEL 6
REMARK VINA RESULT:      -4.9      3.432      5.540
REMARK  7 active torsions:
REMARK  status: ('A' for Active; 'I' for Inactive)
REMARK    1  A    between atoms: C_2  and  O_4 
REMARK    2  A    between atoms: O_4  and  C_5 
REMARK    3  A    between atoms: C_5  and  C_6 
REMARK    4  A    between atoms: C_6  and  S_7 
REMARK    5  A    between atoms: S_7  and  C_8 
REMARK    6  A    between atoms: C_11  and  N_12 
REMARK    7  A    between atoms: C_14  and  N_15 
ROOT
HETATM    1  C   UNL     1     -41.519 -50.023  11.741  1.00  0.00     0.146 A 
HETATM    2  N   UNL     1     -42.738 -50.022  12.303  1.00  0.00    -0.328 N 
ATOM      3  HN  UNL     1     -43.254 -49.156  12.461  1.00  0.00     0.169 HD
HETATM    4  C   UNL     1     -43.241 -51.208  12.645  1.00  0.00     0.082 A 
HETATM    5  C   UNL     1     -42.567 -52.385  12.433  1.00  0.00     0.084 A 
HETATM    6  C   UNL     1     -41.316 -52.283  11.867  1.00  0.00     0.082 A 
HETATM    7  N   UNL     1     -40.774 -51.115  11.513  1.00  0.00    -0.328 N 
ATOM      8  HN  UNL     1     -39.846 -51.057  11.093  1.00  0.00     0.169 HD
ENDROOT
BRANCH   1   9
HETATM    9  S   UNL     1     -40.941 -48.440  11.185  1.00  0.00    -0.092 SA
BRANCH   9  10
HETATM   10  C   UNL     1     -42.163 -47.328  11.949  1.00  0.00     0.108 C 
BRANCH  10  11
HETATM   11  C   UNL     1     -42.996 -46.701  10.831  1.00  0.00     0.178 C 
BRANCH  11  12
HETATM   12  O   UNL     1     -44.019 -47.609  10.411  1.00  0.00    -0.386 OA
BRANCH  12  13
HETATM   13  C   UNL     1     -44.615 -47.250   9.156  1.00  0.00     0.113 C 
HETATM   14  C   UNL     1     -43.655 -47.688   8.056  1.00  0.00     0.039 C 
HETATM   15  C   UNL     1     -45.972 -47.923   8.958  1.00  0.00     0.039 C 
ENDBRANCH  12  13
ENDBRANCH  11  12
ENDBRANCH  10  11
ENDBRANCH   9  10
ENDBRANCH   1   9
BRANCH   4  16
HETATM   16  N   UNL     1     -44.527 -51.207  13.181  1.00  0.00    -0.288 NA
HETATM   17  H   UNL     1     -44.488 -50.712  14.070  1.00  0.00     0.125 HD
HETATM   18  H   UNL     1     -44.903 -52.143  13.285  1.00  0.00     0.125 HD
ENDBRANCH   4  16
BRANCH   6  19
HETATM   19  N   UNL     1     -40.582 -53.433  11.575  1.00  0.00    -0.288 NA
HETATM   20  H   UNL     1     -40.160 -53.405  10.655  1.00  0.00     0.125 HD
HETATM   21  H   UNL     1     -41.196 -54.237  11.694  1.00  0.00     0.125 HD
ENDBRANCH   6  19
TORSDOF 7
ENDMDL
MODEL 7
REMARK VINA RESULT:      -4.8      2.724      4.313
REMARK  7 active torsions:
REMARK  status: ('A' for Active; 'I' for Inactive)
REMARK    1  A    between atoms: C_2  and  O_4 
REMARK    2  A    between atoms: O_4  and  C_5 
REMARK    3  A    between atoms: C_5  and  C_6 
REMARK    4  A    between atoms: C_6  and  S_7 
REMARK    5  A    between atoms: S_7  and  C_8 
REMARK    6  A    between atoms: C_11  and  N_12 
REMARK    7  A    between atoms: C_14  and  N_15 
ROOT
HETATM    1  C   UNL     1     -43.049 -47.452  10.687  1.00  0.00     0.146 A 
HETATM    2  N   UNL     1     -43.424 -46.163  10.699  1.00  0.00    -0.328 N 
ATOM      3  HN  UNL     1     -43.517 -45.641  11.571  1.00  0.00     0.169 HD
HETATM    4  C   UNL     1     -43.666 -45.599   9.516  1.00  0.00     0.082 A 
HETATM    5  C   UNL     1     -43.538 -46.281   8.333  1.00  0.00     0.084 A 
HETATM    6  C   UNL     1     -43.167 -47.604   8.422  1.00  0.00     0.082 A 
HETATM    7  N   UNL     1     -42.917 -48.208   9.587  1.00  0.00    -0.328 N 
ATOM      8  HN  UNL     1     -42.641 -49.188   9.636  1.00  0.00     0.169 HD
ENDROOT
BRANCH   1   9
HETATM    9  S   UNL     1     -42.612 -48.128  12.268  1.00  0.00    -0.092 SA
BRANCH   9  10
HETATM   10  C   UNL     1     -41.606 -49.563  11.774  1.00  0.00     0.108 C 
BRANCH  10  11
HETATM   11  C   UNL     1     -42.125 -50.787  12.528  1.00  0.00     0.178 C 
BRANCH  11  12
HETATM   12  O   UNL     1     -41.351 -51.941  12.186  1.00  0.00    -0.386 OA
BRANCH  12  13
HETATM   13  C   UNL     1     -40.907 -52.685  13.329  1.00  0.00     0.113 C 
HETATM   14  C   UNL     1     -40.955 -54.163  12.955  1.00  0.00     0.039 C 
HETATM   15  C   UNL     1     -39.487 -52.301  13.741  1.00  0.00     0.039 C 
ENDBRANCH  12  13
ENDBRANCH  11  12
ENDBRANCH  10  11
ENDBRANCH   9  10
ENDBRANCH   1   9
BRANCH   4  16
HETATM   16  N   UNL     1     -44.005 -44.247   9.530  1.00  0.00    -0.288 NA
HETATM   17  H   UNL     1     -44.368 -44.012   8.607  1.00  0.00     0.125 HD
HETATM   18  H   UNL     1     -43.224 -43.656   9.791  1.00  0.00     0.125 HD
ENDBRANCH   4  16
BRANCH   6  19
HETATM   19  N   UNL     1     -42.968 -48.357   7.265  1.00  0.00    -0.288 NA
HETATM   20  H   UNL     1     -42.452 -49.211   7.438  1.00  0.00     0.125 HD
HETATM   21  H   UNL     1     -42.513 -47.762   6.576  1.00  0.00     0.125 HD
ENDBRANCH   6  19
TORSDOF 7
ENDMDL
MODEL 8
REMARK VINA RESULT:      -4.8      6.098      7.304
REMARK  7 active torsions:
REMARK  status: ('A' for Active; 'I' for Inactive)
REMARK    1  A    between atoms: C_2  and  O_4 
REMARK    2  A    between atoms: O_4  and  C_5 
REMARK    3  A    between atoms: C_5  and  C_6 
REMARK    4  A    between atoms: C_6  and  S_7 
REMARK    5  A    between atoms: S_7  and  C_8 
REMARK    6  A    between atoms: C_11  and  N_12 
REMARK    7  A    between atoms: C_14  and  N_15 
ROOT
HETATM    1  C   UNL     1     -42.598 -53.104  12.795  1.00  0.00     0.146 A 
HETATM    2  N   UNL     1     -42.569 -54.042  13.754  1.00  0.00    -0.328 N 
ATOM      3  HN  UNL     1     -41.695 -54.333  14.193  1.00  0.00     0.169 HD
HETATM    4  C   UNL     1     -43.739 -54.576  14.106  1.00  0.00     0.082 A 
HETATM    5  C   UNL     1     -44.926 -54.194  13.534  1.00  0.00     0.084 A 
HETATM    6  C   UNL     1     -44.853 -53.237  12.546  1.00  0.00     0.082 A 
HETATM    7  N   UNL     1     -43.703 -52.680  12.162  1.00  0.00    -0.328 N 
ATOM      8  HN  UNL     1     -43.665 -51.971  11.430  1.00  0.00     0.169 HD
ENDROOT
BRANCH   1   9
HETATM    9  S   UNL     1     -41.041 -52.329  12.447  1.00  0.00    -0.092 SA
BRANCH   9  10
HETATM   10  C   UNL     1     -40.054 -52.856  13.884  1.00  0.00     0.108 C 
BRANCH  10  11
HETATM   11  C   UNL     1     -38.749 -52.059  13.879  1.00  0.00     0.178 C 
BRANCH  11  12
HETATM   12  O   UNL     1     -38.503 -51.526  12.574  1.00  0.00    -0.386 OA
BRANCH  12  13
HETATM   13  C   UNL     1     -37.506 -50.496  12.561  1.00  0.00     0.113 C 
HETATM   14  C   UNL     1     -37.389 -49.993  11.126  1.00  0.00     0.039 C 
HETATM   15  C   UNL     1     -37.873 -49.337  13.487  1.00  0.00     0.039 C 
ENDBRANCH  12  13
ENDBRANCH  11  12
ENDBRANCH  10  11
ENDBRANCH   9  10
ENDBRANCH   1   9
BRANCH   4  16
HETATM   16  N   UNL     1     -43.711 -55.512  15.138  1.00  0.00    -0.288 NA
HETATM   17  H   UNL     1     -43.253 -56.349  14.780  1.00  0.00     0.125 HD
HETATM   18  H   UNL     1     -44.634 -55.712  15.503  1.00  0.00     0.125 HD
ENDBRANCH   4  16
BRANCH   6  19
HETATM   19  N   UNL     1     -46.018 -52.759  11.945  1.00  0.00    -0.288 NA
HETATM   20  H   UNL     1     -46.836 -52.872  12.532  1.00  0.00     0.125 HD
HETATM   21  H   UNL     1     -46.121 -53.222  11.045  1.00  0.00     0.125 HD
ENDBRANCH   6  19
TORSDOF 7
ENDMDL
MODEL 9
REMARK VINA RESULT:      -4.7      6.609      8.581
REMARK  7 active torsions:
REMARK  status: ('A' for Active; 'I' for Inactive)
REMARK    1  A    between atoms: C_2  and  O_4 
REMARK    2  A    between atoms: O_4  and  C_5 
REMARK    3  A    between atoms: C_5  and  C_6 
REMARK    4  A    between atoms: C_6  and  S_7 
REMARK    5  A    between atoms: S_7  and  C_8 
REMARK    6  A    between atoms: C_11  and  N_12 
REMARK    7  A    between atoms: C_14  and  N_15 
ROOT
HETATM    1  C   UNL     1     -43.101 -53.358  12.767  1.00  0.00     0.146 A 
HETATM    2  N   UNL     1     -42.026 -54.122  13.017  1.00  0.00    -0.328 N 
ATOM      3  HN  UNL     1     -42.116 -55.082  13.346  1.00  0.00     0.169 HD
HETATM    4  C   UNL     1     -40.834 -53.561  12.812  1.00  0.00     0.082 A 
HETATM    5  C   UNL     1     -40.691 -52.273  12.361  1.00  0.00     0.084 A 
HETATM    6  C   UNL     1     -41.852 -51.563  12.150  1.00  0.00     0.082 A 
HETATM    7  N   UNL     1     -43.065 -52.085  12.346  1.00  0.00    -0.328 N 
ATOM      8  HN  UNL     1     -43.916 -51.547  12.183  1.00  0.00     0.169 HD
ENDROOT
BRANCH   1   9
HETATM    9  S   UNL     1     -44.666 -54.180  12.929  1.00  0.00    -0.092 SA
BRANCH   9  10
HETATM   10  C   UNL     1     -44.698 -54.533  14.715  1.00  0.00     0.108 C 
BRANCH  10  11
HETATM   11  C   UNL     1     -46.124 -54.307  15.216  1.00  0.00     0.178 C 
BRANCH  11  12
HETATM   12  O   UNL     1     -46.198 -53.084  15.955  1.00  0.00    -0.386 OA
BRANCH  12  13
HETATM   13  C   UNL     1     -47.196 -52.181  15.457  1.00  0.00     0.113 C 
HETATM   14  C   UNL     1     -47.613 -51.282  16.616  1.00  0.00     0.039 C 
HETATM   15  C   UNL     1     -46.668 -51.329  14.305  1.00  0.00     0.039 C 
ENDBRANCH  12  13
ENDBRANCH  11  12
ENDBRANCH  10  11
ENDBRANCH   9  10
ENDBRANCH   1   9
BRANCH   4  16
HETATM   16  N   UNL     1     -39.721 -54.373  13.022  1.00  0.00    -0.288 NA
HETATM   17  H   UNL     1     -38.894 -53.830  12.777  1.00  0.00     0.125 HD
HETATM   18  H   UNL     1     -39.772 -55.241  12.502  1.00  0.00     0.125 HD
ENDBRANCH   4  16
BRANCH   6  19
HETATM   19  N   UNL     1     -41.798 -50.263  11.648  1.00  0.00    -0.288 NA
HETATM   20  H   UNL     1     -42.188 -49.580  12.286  1.00  0.00     0.125 HD
HETATM   21  H   UNL     1     -42.263 -50.255  10.742  1.00  0.00     0.125 HD
ENDBRANCH   6  19
TORSDOF 7
ENDMDL
