MODEL 1
REMARK VINA RESULT:      -6.3      0.000      0.000
REMARK  4 active torsions:
REMARK  status: ('A' for Active; 'I' for Inactive)
REMARK    1  A    between atoms: C_6  and  C_8 
REMARK       I    between atoms: C_8  and  N_10 
REMARK    2  A    between atoms: N_10  and  C_11 
REMARK    3  A    between atoms: C_11  and  C_12 
REMARK    4  A    between atoms: C_12  and  C_13 
ROOT
HETATM    1  C   UNL     1     -43.509 -54.549  14.847  1.00  0.00     0.221 C 
HETATM    2  O   UNL     1     -43.587 -55.744  15.118  1.00  0.00    -0.273 OA
HETATM    3  N   UNL     1     -42.303 -53.887  14.801  1.00  0.00    -0.360 N 
HETATM    4  H   UNL     1     -42.257 -52.943  14.436  1.00  0.00     0.162 HD
ENDROOT
BRANCH   3   5
HETATM    5  C   UNL     1     -41.042 -54.570  15.045  1.00  0.00     0.130 C 
BRANCH   5   6
HETATM    6  C   UNL     1     -39.911 -54.067  14.145  1.00  0.00     0.097 C 
BRANCH   6   7
HETATM    7  C   UNL     1     -40.427 -53.212  13.044  1.00  0.00     0.098 A 
HETATM    8  N   UNL     1     -40.835 -53.597  11.853  1.00  0.00    -0.288 N 
HETATM    9  N   UNL     1     -41.209 -52.476  11.149  1.00  0.00    -0.295 N 
ATOM     10  HN  UNL     1     -40.868 -54.558  11.512  1.00  0.00     0.188 HD
HETATM   11  C   UNL     1     -41.027 -51.437  11.929  1.00  0.00     0.198 A 
ATOM     12  HN  UNL     1     -41.564 -52.456  10.193  1.00  0.00     0.187 HD
HETATM   13  N   UNL     1     -40.537 -51.849  13.129  1.00  0.00    -0.340 N 
HETATM   14  H   UNL     1     -40.299 -51.271  13.923  1.00  0.00     0.168 HD
ENDBRANCH   6   7
ENDBRANCH   5   6
ENDBRANCH   3   5
BRANCH   1  15
HETATM   15  C   UNL     1     -44.715 -53.699  14.443  1.00  0.00     0.078 C 
HETATM   16  C   UNL     1     -44.836 -53.546  12.921  1.00  0.00     0.014 C 
HETATM   17  C   UNL     1     -46.001 -52.641  12.523  1.00  0.00     0.001 C 
HETATM   18  C   UNL     1     -45.938 -51.283  13.219  1.00  0.00     0.004 C 
HETATM   19  C   UNL     1     -45.812 -51.398  14.742  1.00  0.00    -0.018 C 
HETATM   20  C   UNL     1     -47.120 -51.858  15.392  1.00  0.00     0.010 C 
HETATM   21  C   UNL     1     -44.642 -52.316  15.116  1.00  0.00     0.018 C 
ENDBRANCH   1  15
TORSDOF 4
ENDMDL
MODEL 2
REMARK VINA RESULT:      -6.1      3.620      4.763
REMARK  4 active torsions:
REMARK  status: ('A' for Active; 'I' for Inactive)
REMARK    1  A    between atoms: C_6  and  C_8 
REMARK       I    between atoms: C_8  and  N_10 
REMARK    2  A    between atoms: N_10  and  C_11 
REMARK    3  A    between atoms: C_11  and  C_12 
REMARK    4  A    between atoms: C_12  and  C_13 
ROOT
HETATM    1  C   UNL     1     -42.356 -51.338  12.500  1.00  0.00     0.221 C 
HETATM    2  O   UNL     1     -41.398 -52.020  12.143  1.00  0.00    -0.273 OA
HETATM    3  N   UNL     1     -42.453 -49.999  12.195  1.00  0.00    -0.360 N 
HETATM    4  H   UNL     1     -43.316 -49.500  12.377  1.00  0.00     0.162 HD
ENDROOT
BRANCH   3   5
HETATM    5  C   UNL     1     -41.440 -49.315  11.407  1.00  0.00     0.130 C 
BRANCH   5   6
HETATM    6  C   UNL     1     -41.834 -47.880  11.052  1.00  0.00     0.097 C 
BRANCH   6   7
HETATM    7  C   UNL     1     -42.899 -47.845  10.015  1.00  0.00     0.098 A 
HETATM    8  N   UNL     1     -44.201 -47.795  10.202  1.00  0.00    -0.288 N 
HETATM    9  N   UNL     1     -44.809 -47.799   8.969  1.00  0.00    -0.295 N 
ATOM     10  HN  UNL     1     -44.676 -47.759  11.105  1.00  0.00     0.188 HD
HETATM   11  C   UNL     1     -43.864 -47.845   8.060  1.00  0.00     0.198 A 
ATOM     12  HN  UNL     1     -45.813 -47.772   8.792  1.00  0.00     0.187 HD
HETATM   13  N   UNL     1     -42.648 -47.875   8.668  1.00  0.00    -0.340 N 
HETATM   14  H   UNL     1     -41.742 -47.914   8.221  1.00  0.00     0.168 HD
ENDBRANCH   6   7
ENDBRANCH   5   6
ENDBRANCH   3   5
BRANCH   1  15
HETATM   15  C   UNL     1     -43.572 -51.913  13.230  1.00  0.00     0.078 C 
HETATM   16  C   UNL     1     -44.099 -53.191  12.563  1.00  0.00     0.014 C 
HETATM   17  C   UNL     1     -45.353 -53.725  13.252  1.00  0.00     0.001 C 
HETATM   18  C   UNL     1     -46.444 -52.662  13.367  1.00  0.00     0.004 C 
HETATM   19  C   UNL     1     -45.950 -51.368  14.025  1.00  0.00    -0.018 C 
HETATM   20  C   UNL     1     -45.726 -51.540  15.530  1.00  0.00     0.010 C 
HETATM   21  C   UNL     1     -44.687 -50.857  13.321  1.00  0.00     0.018 C 
ENDBRANCH   1  15
TORSDOF 4
ENDMDL
MODEL 3
REMARK VINA RESULT:      -6.0      4.028      5.188
REMARK  4 active torsions:
REMARK  status: ('A' for Active; 'I' for Inactive)
REMARK    1  A    between atoms: C_6  and  C_8 
REMARK       I    between atoms: C_8  and  N_10 
REMARK    2  A    between atoms: N_10  and  C_11 
REMARK    3  A    between atoms: C_11  and  C_12 
REMARK    4  A    between atoms: C_12  and  C_13 
ROOT
HETATM    1  C   UNL     1     -43.476 -49.795  13.626  1.00  0.00     0.221 C 
HETATM    2  O   UNL     1     -42.945 -49.007  14.404  1.00  0.00    -0.273 OA
HETATM    3  N   UNL     1     -43.216 -49.775  12.274  1.00  0.00    -0.360 N 
HETATM    4  H   UNL     1     -43.554 -50.524  11.682  1.00  0.00     0.162 HD
ENDROOT
BRANCH   3   5
HETATM    5  C   UNL     1     -42.276 -48.834  11.687  1.00  0.00     0.130 C 
BRANCH   5   6
HETATM    6  C   UNL     1     -42.951 -47.554  11.187  1.00  0.00     0.097 C 
BRANCH   6   7
HETATM    7  C   UNL     1     -43.515 -47.730   9.824  1.00  0.00     0.098 A 
HETATM    8  N   UNL     1     -44.784 -47.823   9.486  1.00  0.00    -0.288 N 
HETATM    9  N   UNL     1     -44.851 -47.997   8.124  1.00  0.00    -0.295 N 
ATOM     10  HN  UNL     1     -45.579 -47.776  10.124  1.00  0.00     0.188 HD
HETATM   11  C   UNL     1     -43.623 -47.997   7.662  1.00  0.00     0.198 A 
ATOM     12  HN  UNL     1     -45.701 -48.106   7.571  1.00  0.00     0.187 HD
HETATM   13  N   UNL     1     -42.750 -47.832   8.692  1.00  0.00    -0.340 N 
HETATM   14  H   UNL     1     -41.741 -47.796   8.638  1.00  0.00     0.168 HD
ENDBRANCH   6   7
ENDBRANCH   5   6
ENDBRANCH   3   5
BRANCH   1  15
HETATM   15  C   UNL     1     -44.396 -50.931  14.079  1.00  0.00     0.078 C 
HETATM   16  C   UNL     1     -45.594 -51.119  13.139  1.00  0.00     0.014 C 
HETATM   17  C   UNL     1     -46.546 -52.208  13.629  1.00  0.00     0.001 C 
HETATM   18  C   UNL     1     -46.996 -51.972  15.070  1.00  0.00     0.004 C 
HETATM   19  C   UNL     1     -45.823 -51.775  16.037  1.00  0.00    -0.018 C 
HETATM   20  C   UNL     1     -45.078 -53.085  16.308  1.00  0.00     0.010 C 
HETATM   21  C   UNL     1     -44.878 -50.684  15.519  1.00  0.00     0.018 C 
ENDBRANCH   1  15
TORSDOF 4
ENDMDL
MODEL 4
REMARK VINA RESULT:      -6.0      2.538      3.809
REMARK  4 active torsions:
REMARK  status: ('A' for Active; 'I' for Inactive)
REMARK    1  A    between atoms: C_6  and  C_8 
REMARK       I    between atoms: C_8  and  N_10 
REMARK    2  A    between atoms: N_10  and  C_11 
REMARK    3  A    between atoms: C_11  and  C_12 
REMARK    4  A    between atoms: C_12  and  C_13 
ROOT
HETATM    1  C   UNL     1     -40.274 -52.612  13.526  1.00  0.00     0.221 C 
HETATM    2  O   UNL     1     -39.468 -53.501  13.261  1.00  0.00    -0.273 OA
HETATM    3  N   UNL     1     -39.905 -51.288  13.597  1.00  0.00    -0.360 N 
HETATM    4  H   UNL     1     -40.614 -50.569  13.674  1.00  0.00     0.162 HD
ENDROOT
BRANCH   3   5
HETATM    5  C   UNL     1     -38.541 -50.856  13.335  1.00  0.00     0.130 C 
BRANCH   5   6
HETATM    6  C   UNL     1     -38.318 -50.446  11.877  1.00  0.00     0.097 C 
BRANCH   6   7
HETATM    7  C   UNL     1     -39.462 -49.658  11.349  1.00  0.00     0.098 A 
HETATM    8  N   UNL     1     -40.385 -50.054  10.498  1.00  0.00    -0.288 N 
HETATM    9  N   UNL     1     -41.237 -48.998  10.272  1.00  0.00    -0.295 N 
ATOM     10  HN  UNL     1     -40.455 -50.981  10.078  1.00  0.00     0.188 HD
HETATM   11  C   UNL     1     -40.819 -47.987  10.996  1.00  0.00     0.198 A 
ATOM     12  HN  UNL     1     -42.048 -49.000   9.654  1.00  0.00     0.187 HD
HETATM   13  N   UNL     1     -39.707 -48.354  11.690  1.00  0.00    -0.340 N 
HETATM   14  H   UNL     1     -39.168 -47.782  12.325  1.00  0.00     0.168 HD
ENDBRANCH   6   7
ENDBRANCH   5   6
ENDBRANCH   3   5
BRANCH   1  15
HETATM   15  C   UNL     1     -41.772 -52.865  13.710  1.00  0.00     0.078 C 
HETATM   16  C   UNL     1     -42.068 -54.294  14.185  1.00  0.00     0.014 C 
HETATM   17  C   UNL     1     -43.567 -54.564  14.302  1.00  0.00     0.001 C 
HETATM   18  C   UNL     1     -44.313 -54.237  13.011  1.00  0.00     0.004 C 
HETATM   19  C   UNL     1     -44.037 -52.816  12.504  1.00  0.00    -0.018 C 
HETATM   20  C   UNL     1     -44.726 -51.756  13.368  1.00  0.00     0.010 C 
HETATM   21  C   UNL     1     -42.527 -52.567  12.402  1.00  0.00     0.018 C 
ENDBRANCH   1  15
TORSDOF 4
ENDMDL
MODEL 5
REMARK VINA RESULT:      -5.9      5.512      7.964
REMARK  4 active torsions:
REMARK  status: ('A' for Active; 'I' for Inactive)
REMARK    1  A    between atoms: C_6  and  C_8 
REMARK       I    between atoms: C_8  and  N_10 
REMARK    2  A    between atoms: N_10  and  C_11 
REMARK    3  A    between atoms: C_11  and  C_12 
REMARK    4  A    between atoms: C_12  and  C_13 
ROOT
HETATM    1  C   UNL     1     -40.907 -47.868  11.127  1.00  0.00     0.221 C 
HETATM    2  O   UNL     1     -40.401 -46.753  11.030  1.00  0.00    -0.273 OA
HETATM    3  N   UNL     1     -42.244 -48.086  10.881  1.00  0.00    -0.360 N 
HETATM    4  H   UNL     1     -42.600 -49.033  10.827  1.00  0.00     0.162 HD
ENDROOT
BRANCH   3   5
HETATM    5  C   UNL     1     -43.134 -47.014  10.465  1.00  0.00     0.130 C 
BRANCH   5   6
HETATM    6  C   UNL     1     -43.354 -46.979   8.951  1.00  0.00     0.097 C 
BRANCH   6   7
HETATM    7  C   UNL     1     -44.590 -47.707   8.561  1.00  0.00     0.098 A 
HETATM    8  N   UNL     1     -44.866 -48.252   7.395  1.00  0.00    -0.288 N 
HETATM    9  N   UNL     1     -46.123 -48.804   7.469  1.00  0.00    -0.295 N 
ATOM     10  HN  UNL     1     -44.254 -48.263   6.578  1.00  0.00     0.188 HD
HETATM   11  C   UNL     1     -46.581 -48.589   8.680  1.00  0.00     0.198 A 
ATOM     12  HN  UNL     1     -46.612 -49.292   6.719  1.00  0.00     0.187 HD
HETATM   13  N   UNL     1     -45.653 -47.904   9.402  1.00  0.00    -0.340 N 
HETATM   14  H   UNL     1     -45.731 -47.598  10.362  1.00  0.00     0.168 HD
ENDBRANCH   6   7
ENDBRANCH   5   6
ENDBRANCH   3   5
BRANCH   1  15
HETATM   15  C   UNL     1     -40.102 -49.133  11.432  1.00  0.00     0.078 C 
HETATM   16  C   UNL     1     -40.964 -50.230  12.072  1.00  0.00     0.014 C 
HETATM   17  C   UNL     1     -40.145 -51.466  12.438  1.00  0.00     0.001 C 
HETATM   18  C   UNL     1     -38.940 -51.120  13.311  1.00  0.00     0.004 C 
HETATM   19  C   UNL     1     -38.059 -50.022  12.704  1.00  0.00    -0.018 C 
HETATM   20  C   UNL     1     -37.254 -50.531  11.504  1.00  0.00     0.010 C 
HETATM   21  C   UNL     1     -38.905 -48.796  12.338  1.00  0.00     0.018 C 
ENDBRANCH   1  15
TORSDOF 4
ENDMDL
MODEL 6
REMARK VINA RESULT:      -5.8      2.206      3.187
REMARK  4 active torsions:
REMARK  status: ('A' for Active; 'I' for Inactive)
REMARK    1  A    between atoms: C_6  and  C_8 
REMARK       I    between atoms: C_8  and  N_10 
REMARK    2  A    between atoms: N_10  and  C_11 
REMARK    3  A    between atoms: C_11  and  C_12 
REMARK    4  A    between atoms: C_12  and  C_13 
ROOT
HETATM    1  C   UNL     1     -42.527 -52.528  13.112  1.00  0.00     0.221 C 
HETATM    2  O   UNL     1     -42.269 -53.712  12.913  1.00  0.00    -0.273 OA
HETATM    3  N   UNL     1     -41.552 -51.557  13.099  1.00  0.00    -0.360 N 
HETATM    4  H   UNL     1     -41.812 -50.578  13.122  1.00  0.00     0.162 HD
ENDROOT
BRANCH   3   5
HETATM    5  C   UNL     1     -40.158 -51.870  12.823  1.00  0.00     0.130 C 
BRANCH   5   6
HETATM    6  C   UNL     1     -39.350 -50.646  12.386  1.00  0.00     0.097 C 
BRANCH   6   7
HETATM    7  C   UNL     1     -40.164 -49.722  11.553  1.00  0.00     0.098 A 
HETATM    8  N   UNL     1     -40.547 -49.892  10.305  1.00  0.00    -0.288 N 
HETATM    9  N   UNL     1     -41.265 -48.782   9.925  1.00  0.00    -0.295 N 
ATOM     10  HN  UNL     1     -40.346 -50.705   9.722  1.00  0.00     0.188 HD
HETATM   11  C   UNL     1     -41.309 -47.966  10.951  1.00  0.00     0.198 A 
ATOM     12  HN  UNL     1     -41.687 -48.622   9.011  1.00  0.00     0.187 HD
HETATM   13  N   UNL     1     -40.632 -48.513  11.997  1.00  0.00    -0.340 N 
HETATM   14  H   UNL     1     -40.497 -48.111  12.914  1.00  0.00     0.168 HD
ENDBRANCH   6   7
ENDBRANCH   5   6
ENDBRANCH   3   5
BRANCH   1  15
HETATM   15  C   UNL     1     -43.950 -51.997  13.297  1.00  0.00     0.078 C 
HETATM   16  C   UNL     1     -44.203 -51.502  14.728  1.00  0.00     0.014 C 
HETATM   17  C   UNL     1     -45.644 -51.035  14.929  1.00  0.00     0.001 C 
HETATM   18  C   UNL     1     -46.657 -52.102  14.517  1.00  0.00     0.004 C 
HETATM   19  C   UNL     1     -46.430 -52.624  13.094  1.00  0.00    -0.018 C 
HETATM   20  C   UNL     1     -46.833 -51.594  12.035  1.00  0.00     0.010 C 
HETATM   21  C   UNL     1     -44.976 -53.078  12.915  1.00  0.00     0.018 C 
ENDBRANCH   1  15
TORSDOF 4
ENDMDL
MODEL 7
REMARK VINA RESULT:      -5.7      1.912      3.339
REMARK  4 active torsions:
REMARK  status: ('A' for Active; 'I' for Inactive)
REMARK    1  A    between atoms: C_6  and  C_8 
REMARK       I    between atoms: C_8  and  N_10 
REMARK    2  A    between atoms: N_10  and  C_11 
REMARK    3  A    between atoms: C_11  and  C_12 
REMARK    4  A    between atoms: C_12  and  C_13 
ROOT
HETATM    1  C   UNL     1     -43.477 -50.801  13.809  1.00  0.00     0.221 C 
HETATM    2  O   UNL     1     -42.835 -50.358  14.758  1.00  0.00    -0.273 OA
HETATM    3  N   UNL     1     -43.220 -50.419  12.512  1.00  0.00    -0.360 N 
HETATM    4  H   UNL     1     -43.665 -50.906  11.743  1.00  0.00     0.162 HD
ENDROOT
BRANCH   3   5
HETATM    5  C   UNL     1     -42.153 -49.487  12.182  1.00  0.00     0.130 C 
BRANCH   5   6
HETATM    6  C   UNL     1     -40.932 -50.176  11.567  1.00  0.00     0.097 C 
BRANCH   6   7
HETATM    7  C   UNL     1     -40.848 -51.603  11.971  1.00  0.00     0.098 A 
HETATM    8  N   UNL     1     -41.181 -52.660  11.259  1.00  0.00    -0.288 N 
HETATM    9  N   UNL     1     -40.959 -53.778  12.029  1.00  0.00    -0.295 N 
ATOM     10  HN  UNL     1     -41.541 -52.651  10.304  1.00  0.00     0.188 HD
HETATM   11  C   UNL     1     -40.490 -53.378  13.187  1.00  0.00     0.198 A 
ATOM     12  HN  UNL     1     -41.129 -54.744  11.750  1.00  0.00     0.187 HD
HETATM   13  N   UNL     1     -40.403 -52.020  13.197  1.00  0.00    -0.340 N 
HETATM   14  H   UNL     1     -40.079 -51.435  13.955  1.00  0.00     0.168 HD
ENDBRANCH   6   7
ENDBRANCH   5   6
ENDBRANCH   3   5
BRANCH   1  15
HETATM   15  C   UNL     1     -44.552 -51.880  13.952  1.00  0.00     0.078 C 
HETATM   16  C   UNL     1     -45.833 -51.342  14.604  1.00  0.00     0.014 C 
HETATM   17  C   UNL     1     -46.879 -52.436  14.808  1.00  0.00     0.001 C 
HETATM   18  C   UNL     1     -46.319 -53.632  15.576  1.00  0.00     0.004 C 
HETATM   19  C   UNL     1     -45.035 -54.192  14.955  1.00  0.00    -0.018 C 
HETATM   20  C   UNL     1     -45.311 -54.947  13.651  1.00  0.00     0.010 C 
HETATM   21  C   UNL     1     -44.004 -53.075  14.753  1.00  0.00     0.018 C 
ENDBRANCH   1  15
TORSDOF 4
ENDMDL
MODEL 8
REMARK VINA RESULT:      -5.6      3.184      4.367
REMARK  4 active torsions:
REMARK  status: ('A' for Active; 'I' for Inactive)
REMARK    1  A    between atoms: C_6  and  C_8 
REMARK       I    between atoms: C_8  and  N_10 
REMARK    2  A    between atoms: N_10  and  C_11 
REMARK    3  A    between atoms: C_11  and  C_12 
REMARK    4  A    between atoms: C_12  and  C_13 
ROOT
HETATM    1  C   UNL     1     -41.956 -51.923  13.295  1.00  0.00     0.221 C 
HETATM    2  O   UNL     1     -40.840 -52.050  13.792  1.00  0.00    -0.273 OA
HETATM    3  N   UNL     1     -42.176 -51.139  12.186  1.00  0.00    -0.360 N 
HETATM    4  H   UNL     1     -43.073 -51.168  11.715  1.00  0.00     0.162 HD
ENDROOT
BRANCH   3   5
HETATM    5  C   UNL     1     -41.095 -50.432  11.517  1.00  0.00     0.130 C 
BRANCH   5   6
HETATM    6  C   UNL     1     -41.184 -48.914  11.686  1.00  0.00     0.097 C 
BRANCH   6   7
HETATM    7  C   UNL     1     -42.088 -48.303  10.678  1.00  0.00     0.098 A 
HETATM    8  N   UNL     1     -41.917 -48.250   9.373  1.00  0.00    -0.288 N 
HETATM    9  N   UNL     1     -42.987 -47.577   8.831  1.00  0.00    -0.295 N 
ATOM     10  HN  UNL     1     -41.129 -48.640   8.856  1.00  0.00     0.188 HD
HETATM   11  C   UNL     1     -43.787 -47.243   9.814  1.00  0.00     0.198 A 
ATOM     12  HN  UNL     1     -43.132 -47.375   7.842  1.00  0.00     0.187 HD
HETATM   13  N   UNL     1     -43.265 -47.677  10.993  1.00  0.00    -0.340 N 
HETATM   14  H   UNL     1     -43.661 -47.560  11.916  1.00  0.00     0.168 HD
ENDBRANCH   6   7
ENDBRANCH   5   6
ENDBRANCH   3   5
BRANCH   1  15
HETATM   15  C   UNL     1     -43.187 -52.686  13.788  1.00  0.00     0.078 C 
HETATM   16  C   UNL     1     -42.859 -54.135  14.171  1.00  0.00     0.014 C 
HETATM   17  C   UNL     1     -44.101 -54.914  14.599  1.00  0.00     0.001 C 
HETATM   18  C   UNL     1     -45.210 -54.850  13.549  1.00  0.00     0.004 C 
HETATM   19  C   UNL     1     -45.560 -53.415  13.139  1.00  0.00    -0.018 C 
HETATM   20  C   UNL     1     -46.329 -52.676  14.238  1.00  0.00     0.010 C 
HETATM   21  C   UNL     1     -44.297 -52.652  12.722  1.00  0.00     0.018 C 
ENDBRANCH   1  15
TORSDOF 4
ENDMDL
MODEL 9
REMARK VINA RESULT:      -5.6      7.094      9.127
REMARK  4 active torsions:
REMARK  status: ('A' for Active; 'I' for Inactive)
REMARK    1  A    between atoms: C_6  and  C_8 
REMARK       I    between atoms: C_8  and  N_10 
REMARK    2  A    between atoms: N_10  and  C_11 
REMARK    3  A    between atoms: C_11  and  C_12 
REMARK    4  A    between atoms: C_12  and  C_13 
ROOT
HETATM    1  C   UNL     1     -41.101 -45.652  10.728  1.00  0.00     0.221 C 
HETATM    2  O   UNL     1     -40.536 -44.911   9.927  1.00  0.00    -0.273 OA
HETATM    3  N   UNL     1     -42.194 -46.410  10.376  1.00  0.00    -0.360 N 
HETATM    4  H   UNL     1     -42.547 -47.115  11.012  1.00  0.00     0.162 HD
ENDROOT
BRANCH   3   5
HETATM    5  C   UNL     1     -42.731 -46.402   9.025  1.00  0.00     0.130 C 
BRANCH   5   6
HETATM    6  C   UNL     1     -44.144 -45.818   8.952  1.00  0.00     0.097 C 
BRANCH   6   7
HETATM    7  C   UNL     1     -45.174 -46.885   8.855  1.00  0.00     0.098 A 
HETATM    8  N   UNL     1     -45.072 -48.045   8.240  1.00  0.00    -0.288 N 
HETATM    9  N   UNL     1     -46.267 -48.710   8.387  1.00  0.00    -0.295 N 
ATOM     10  HN  UNL     1     -44.251 -48.390   7.742  1.00  0.00     0.188 HD
HETATM   11  C   UNL     1     -47.065 -47.945   9.093  1.00  0.00     0.198 A 
ATOM     12  HN  UNL     1     -46.493 -49.632   8.015  1.00  0.00     0.187 HD
HETATM   13  N   UNL     1     -46.422 -46.788   9.410  1.00  0.00    -0.340 N 
HETATM   14  H   UNL     1     -46.789 -46.012   9.944  1.00  0.00     0.168 HD
ENDBRANCH   6   7
ENDBRANCH   5   6
ENDBRANCH   3   5
BRANCH   1  15
HETATM   15  C   UNL     1     -40.602 -45.881  12.157  1.00  0.00     0.078 C 
HETATM   16  C   UNL     1     -39.600 -44.808  12.603  1.00  0.00     0.014 C 
HETATM   17  C   UNL     1     -39.052 -45.077  14.003  1.00  0.00     0.001 C 
HETATM   18  C   UNL     1     -38.463 -46.480  14.131  1.00  0.00     0.004 C 
HETATM   19  C   UNL     1     -39.436 -47.579  13.688  1.00  0.00    -0.018 C 
HETATM   20  C   UNL     1     -40.568 -47.782  14.698  1.00  0.00     0.010 C 
HETATM   21  C   UNL     1     -39.977 -47.282  12.284  1.00  0.00     0.018 C 
ENDBRANCH   1  15
TORSDOF 4
ENDMDL
