MODEL 1
REMARK VINA RESULT:      -5.8      0.000      0.000
REMARK  5 active torsions:
REMARK  status: ('A' for Active; 'I' for Inactive)
REMARK    1  A    between atoms: C_2  and  O_3 
REMARK    2  A    between atoms: O_3  and  C_4 
REMARK    3  A    between atoms: C_10  and  N_11 
REMARK       I    between atoms: N_11  and  C_12 
REMARK       I    between atoms: C_12  and  N_14 
REMARK    4  A    between atoms: N_14  and  C_15 
REMARK    5  A    between atoms: C_15  and  C_16 
ROOT
HETATM    1  C   UNL     1     -44.925 -53.453  12.742  1.00  0.00     0.169 A 
HETATM    2  N   UNL     1     -45.762 -54.061  13.624  1.00  0.00    -0.345 N 
ATOM      3  HN  UNL     1     -46.774 -53.978  13.536  1.00  0.00     0.167 HD
HETATM    4  C   UNL     1     -45.203 -54.778  14.619  1.00  0.00     0.090 A 
HETATM    5  C   UNL     1     -43.842 -54.954  14.754  1.00  0.00     0.019 A 
HETATM    6  C   UNL     1     -43.004 -54.326  13.836  1.00  0.00     0.035 A 
HETATM    7  C   UNL     1     -43.529 -53.513  12.825  1.00  0.00     0.087 A 
ENDROOT
BRANCH   7   8
HETATM    8  N   UNL     1     -42.695 -52.782  11.923  1.00  0.00    -0.305 N 
HETATM    9  C   UNL     1     -41.956 -51.688  12.302  1.00  0.00     0.320 C 
HETATM   10  O   UNL     1     -41.980 -51.184  13.426  1.00  0.00    -0.247 OA
HETATM   11  N   UNL     1     -41.158 -51.157  11.308  1.00  0.00    -0.342 N 
HETATM   12  H   UNL     1     -40.804 -51.815  10.628  1.00  0.00     0.164 HD
HETATM   13  H   UNL     1     -42.921 -52.877  10.941  1.00  0.00     0.171 HD
BRANCH  11  14
HETATM   14  C   UNL     1     -40.247 -50.117  11.752  1.00  0.00     0.129 C 
BRANCH  14  15
HETATM   15  C   UNL     1     -38.875 -50.603  12.077  1.00  0.00     0.003 A 
HETATM   16  C   UNL     1     -37.869 -49.824  12.885  1.00  0.00     0.007 A 
HETATM   17  C   UNL     1     -37.716 -49.909  11.393  1.00  0.00     0.007 A 
ENDBRANCH  14  15
ENDBRANCH  11  14
ENDBRANCH   7   8
BRANCH   1  18
HETATM   18  O   UNL     1     -45.490 -52.688  11.732  1.00  0.00    -0.334 OA
BRANCH  18  19
HETATM   19  C   UNL     1     -46.599 -51.913  12.213  1.00  0.00     0.173 C 
HETATM   20  C   UNL     1     -47.464 -51.504  11.036  1.00  0.00     0.034 C 
ENDBRANCH  18  19
ENDBRANCH   1  18
TORSDOF 5
ENDMDL
MODEL 2
REMARK VINA RESULT:      -5.8      4.781      6.961
REMARK  5 active torsions:
REMARK  status: ('A' for Active; 'I' for Inactive)
REMARK    1  A    between atoms: C_2  and  O_3 
REMARK    2  A    between atoms: O_3  and  C_4 
REMARK    3  A    between atoms: C_10  and  N_11 
REMARK       I    between atoms: N_11  and  C_12 
REMARK       I    between atoms: C_12  and  N_14 
REMARK    4  A    between atoms: N_14  and  C_15 
REMARK    5  A    between atoms: C_15  and  C_16 
ROOT
HETATM    1  C   UNL     1     -43.080 -45.942   9.388  1.00  0.00     0.169 A 
HETATM    2  N   UNL     1     -44.135 -45.088   9.337  1.00  0.00    -0.345 N 
ATOM      3  HN  UNL     1     -44.013 -44.086   9.479  1.00  0.00     0.167 HD
HETATM    4  C   UNL     1     -45.351 -45.616   9.092  1.00  0.00     0.090 A 
HETATM    5  C   UNL     1     -45.561 -46.957   8.852  1.00  0.00     0.019 A 
HETATM    6  C   UNL     1     -44.464 -47.813   8.903  1.00  0.00     0.035 A 
HETATM    7  C   UNL     1     -43.190 -47.328   9.223  1.00  0.00     0.087 A 
ENDROOT
BRANCH   7   8
HETATM    8  N   UNL     1     -42.060 -48.190   9.373  1.00  0.00    -0.305 N 
HETATM    9  C   UNL     1     -41.564 -48.572  10.596  1.00  0.00     0.320 C 
HETATM   10  O   UNL     1     -41.989 -48.169  11.679  1.00  0.00    -0.247 OA
HETATM   11  N   UNL     1     -40.511 -49.464  10.539  1.00  0.00    -0.342 N 
HETATM   12  H   UNL     1     -40.515 -50.103   9.756  1.00  0.00     0.164 HD
HETATM   13  H   UNL     1     -41.435 -48.238   8.578  1.00  0.00     0.171 HD
BRANCH  11  14
HETATM   14  C   UNL     1     -40.103 -50.004  11.824  1.00  0.00     0.129 C 
BRANCH  14  15
HETATM   15  C   UNL     1     -38.713 -49.642  12.226  1.00  0.00     0.003 A 
HETATM   16  C   UNL     1     -37.502 -49.833  11.350  1.00  0.00     0.007 A 
HETATM   17  C   UNL     1     -37.751 -50.782  12.487  1.00  0.00     0.007 A 
ENDBRANCH  14  15
ENDBRANCH  11  14
ENDBRANCH   7   8
BRANCH   1  18
HETATM   18  O   UNL     1     -41.829 -45.412   9.669  1.00  0.00    -0.334 OA
BRANCH  18  19
HETATM   19  C   UNL     1     -41.831 -44.679  10.904  1.00  0.00     0.173 C 
HETATM   20  C   UNL     1     -40.481 -44.011  11.084  1.00  0.00     0.034 C 
ENDBRANCH  18  19
ENDBRANCH   1  18
TORSDOF 5
ENDMDL
MODEL 3
REMARK VINA RESULT:      -5.8      3.661      7.104
REMARK  5 active torsions:
REMARK  status: ('A' for Active; 'I' for Inactive)
REMARK    1  A    between atoms: C_2  and  O_3 
REMARK    2  A    between atoms: O_3  and  C_4 
REMARK    3  A    between atoms: C_10  and  N_11 
REMARK       I    between atoms: N_11  and  C_12 
REMARK       I    between atoms: C_12  and  N_14 
REMARK    4  A    between atoms: N_14  and  C_15 
REMARK    5  A    between atoms: C_15  and  C_16 
ROOT
HETATM    1  C   UNL     1     -42.350 -47.099  10.293  1.00  0.00     0.169 A 
HETATM    2  N   UNL     1     -41.833 -45.906   9.899  1.00  0.00    -0.345 N 
ATOM      3  HN  UNL     1     -42.364 -45.268   9.307  1.00  0.00     0.167 HD
HETATM    4  C   UNL     1     -40.590 -45.597  10.320  1.00  0.00     0.090 A 
HETATM    5  C   UNL     1     -39.850 -46.406  11.155  1.00  0.00     0.019 A 
HETATM    6  C   UNL     1     -40.402 -47.622  11.551  1.00  0.00     0.035 A 
HETATM    7  C   UNL     1     -41.660 -48.024  11.086  1.00  0.00     0.087 A 
ENDROOT
BRANCH   7   8
HETATM    8  N   UNL     1     -42.218 -49.302  11.399  1.00  0.00    -0.305 N 
HETATM    9  C   UNL     1     -42.855 -49.573  12.586  1.00  0.00     0.320 C 
HETATM   10  O   UNL     1     -42.958 -48.779  13.521  1.00  0.00    -0.247 OA
HETATM   11  N   UNL     1     -43.389 -50.844  12.678  1.00  0.00    -0.342 N 
HETATM   12  H   UNL     1     -43.706 -51.253  11.810  1.00  0.00     0.164 HD
HETATM   13  H   UNL     1     -41.840 -50.086  10.881  1.00  0.00     0.171 HD
BRANCH  11  14
HETATM   14  C   UNL     1     -44.212 -51.073  13.851  1.00  0.00     0.129 C 
BRANCH  14  15
HETATM   15  C   UNL     1     -45.401 -51.939  13.604  1.00  0.00     0.003 A 
HETATM   16  C   UNL     1     -46.511 -51.600  12.643  1.00  0.00     0.007 A 
HETATM   17  C   UNL     1     -46.736 -51.443  14.120  1.00  0.00     0.007 A 
ENDBRANCH  14  15
ENDBRANCH  11  14
ENDBRANCH   7   8
BRANCH   1  18
HETATM   18  O   UNL     1     -43.617 -47.439   9.840  1.00  0.00    -0.334 OA
BRANCH  18  19
HETATM   19  C   UNL     1     -43.852 -46.949   8.511  1.00  0.00     0.173 C 
HETATM   20  C   UNL     1     -43.470 -48.025   7.512  1.00  0.00     0.034 C 
ENDBRANCH  18  19
ENDBRANCH   1  18
TORSDOF 5
ENDMDL
MODEL 4
REMARK VINA RESULT:      -5.6      1.595      3.102
REMARK  5 active torsions:
REMARK  status: ('A' for Active; 'I' for Inactive)
REMARK    1  A    between atoms: C_2  and  O_3 
REMARK    2  A    between atoms: O_3  and  C_4 
REMARK    3  A    between atoms: C_10  and  N_11 
REMARK       I    between atoms: N_11  and  C_12 
REMARK       I    between atoms: C_12  and  N_14 
REMARK    4  A    between atoms: N_14  and  C_15 
REMARK    5  A    between atoms: C_15  and  C_16 
ROOT
HETATM    1  C   UNL     1     -42.995 -54.181  13.591  1.00  0.00     0.169 A 
HETATM    2  N   UNL     1     -43.855 -54.863  14.392  1.00  0.00    -0.345 N 
ATOM      3  HN  UNL     1     -43.520 -55.562  15.054  1.00  0.00     0.167 HD
HETATM    4  C   UNL     1     -45.168 -54.579  14.280  1.00  0.00     0.090 A 
HETATM    5  C   UNL     1     -45.665 -53.613  13.432  1.00  0.00     0.019 A 
HETATM    6  C   UNL     1     -44.765 -52.922  12.623  1.00  0.00     0.035 A 
HETATM    7  C   UNL     1     -43.399 -53.226  12.649  1.00  0.00     0.087 A 
ENDROOT
BRANCH   7   8
HETATM    8  N   UNL     1     -42.461 -52.602  11.770  1.00  0.00    -0.305 N 
HETATM    9  C   UNL     1     -41.778 -51.454  12.092  1.00  0.00     0.320 C 
HETATM   10  O   UNL     1     -41.943 -50.812  13.130  1.00  0.00    -0.247 OA
HETATM   11  N   UNL     1     -40.863 -51.040  11.144  1.00  0.00    -0.342 N 
HETATM   12  H   UNL     1     -40.425 -51.773  10.604  1.00  0.00     0.164 HD
HETATM   13  H   UNL     1     -42.562 -52.826  10.788  1.00  0.00     0.171 HD
BRANCH  11  14
HETATM   14  C   UNL     1     -40.018 -49.935  11.558  1.00  0.00     0.129 C 
BRANCH  14  15
HETATM   15  C   UNL     1     -38.675 -50.347  12.061  1.00  0.00     0.003 A 
HETATM   16  C   UNL     1     -37.690 -49.410  12.710  1.00  0.00     0.007 A 
HETATM   17  C   UNL     1     -37.468 -49.853  11.292  1.00  0.00     0.007 A 
ENDBRANCH  14  15
ENDBRANCH  11  14
ENDBRANCH   7   8
BRANCH   1  18
HETATM   18  O   UNL     1     -41.645 -54.487  13.678  1.00  0.00    -0.334 OA
BRANCH  18  19
HETATM   19  C   UNL     1     -41.049 -53.916  14.853  1.00  0.00     0.173 C 
HETATM   20  C   UNL     1     -39.707 -53.312  14.483  1.00  0.00     0.034 C 
ENDBRANCH  18  19
ENDBRANCH   1  18
TORSDOF 5
ENDMDL
MODEL 5
REMARK VINA RESULT:      -5.6      3.478      5.807
REMARK  5 active torsions:
REMARK  status: ('A' for Active; 'I' for Inactive)
REMARK    1  A    between atoms: C_2  and  O_3 
REMARK    2  A    between atoms: O_3  and  C_4 
REMARK    3  A    between atoms: C_10  and  N_11 
REMARK       I    between atoms: N_11  and  C_12 
REMARK       I    between atoms: C_12  and  N_14 
REMARK    4  A    between atoms: N_14  and  C_15 
REMARK    5  A    between atoms: C_15  and  C_16 
ROOT
HETATM    1  C   UNL     1     -39.459 -51.592  13.153  1.00  0.00     0.169 A 
HETATM    2  N   UNL     1     -39.189 -52.513  14.115  1.00  0.00    -0.345 N 
ATOM      3  HN  UNL     1     -38.425 -52.378  14.777  1.00  0.00     0.167 HD
HETATM    4  C   UNL     1     -39.968 -53.612  14.161  1.00  0.00     0.090 A 
HETATM    5  C   UNL     1     -41.038 -53.819  13.316  1.00  0.00     0.019 A 
HETATM    6  C   UNL     1     -41.300 -52.859  12.341  1.00  0.00     0.035 A 
HETATM    7  C   UNL     1     -40.479 -51.733  12.204  1.00  0.00     0.087 A 
ENDROOT
BRANCH   7   8
HETATM    8  N   UNL     1     -40.665 -50.776  11.159  1.00  0.00    -0.305 N 
HETATM    9  C   UNL     1     -41.443 -49.653  11.299  1.00  0.00     0.320 C 
HETATM   10  O   UNL     1     -42.108 -49.384  12.301  1.00  0.00    -0.247 OA
HETATM   11  N   UNL     1     -41.445 -48.811  10.205  1.00  0.00    -0.342 N 
HETATM   12  H   UNL     1     -40.593 -48.790   9.662  1.00  0.00     0.164 HD
HETATM   13  H   UNL     1     -40.491 -51.111  10.220  1.00  0.00     0.171 HD
BRANCH  11  14
HETATM   14  C   UNL     1     -42.120 -47.543  10.415  1.00  0.00     0.129 C 
BRANCH  14  15
HETATM   15  C   UNL     1     -43.411 -47.407   9.679  1.00  0.00     0.003 A 
HETATM   16  C   UNL     1     -43.561 -47.599   8.192  1.00  0.00     0.007 A 
HETATM   17  C   UNL     1     -43.561 -46.210   8.764  1.00  0.00     0.007 A 
ENDBRANCH  14  15
ENDBRANCH  11  14
ENDBRANCH   7   8
BRANCH   1  18
HETATM   18  O   UNL     1     -38.644 -50.472  13.079  1.00  0.00    -0.334 OA
BRANCH  18  19
HETATM   19  C   UNL     1     -37.393 -50.770  12.443  1.00  0.00     0.173 C 
HETATM   20  C   UNL     1     -37.289 -49.973  11.156  1.00  0.00     0.034 C 
ENDBRANCH  18  19
ENDBRANCH   1  18
TORSDOF 5
ENDMDL
MODEL 6
REMARK VINA RESULT:      -5.5      3.709      6.538
REMARK  5 active torsions:
REMARK  status: ('A' for Active; 'I' for Inactive)
REMARK    1  A    between atoms: C_2  and  O_3 
REMARK    2  A    between atoms: O_3  and  C_4 
REMARK    3  A    between atoms: C_10  and  N_11 
REMARK       I    between atoms: N_11  and  C_12 
REMARK       I    between atoms: C_12  and  N_14 
REMARK    4  A    between atoms: N_14  and  C_15 
REMARK    5  A    between atoms: C_15  and  C_16 
ROOT
HETATM    1  C   UNL     1     -42.776 -46.779  10.573  1.00  0.00     0.169 A 
HETATM    2  N   UNL     1     -43.053 -45.453  10.679  1.00  0.00    -0.345 N 
ATOM      3  HN  UNL     1     -44.006 -45.102  10.593  1.00  0.00     0.167 HD
HETATM    4  C   UNL     1     -42.018 -44.617  10.902  1.00  0.00     0.090 A 
HETATM    5  C   UNL     1     -40.719 -45.047  11.068  1.00  0.00     0.019 A 
HETATM    6  C   UNL     1     -40.459 -46.411  10.960  1.00  0.00     0.035 A 
HETATM    7  C   UNL     1     -41.485 -47.315  10.659  1.00  0.00     0.087 A 
ENDROOT
BRANCH   7   8
HETATM    8  N   UNL     1     -41.240 -48.708  10.453  1.00  0.00    -0.305 N 
HETATM    9  C   UNL     1     -41.067 -49.600  11.482  1.00  0.00     0.320 C 
HETATM   10  O   UNL     1     -41.041 -49.295  12.675  1.00  0.00    -0.247 OA
HETATM   11  N   UNL     1     -40.910 -50.915  11.088  1.00  0.00    -0.342 N 
HETATM   12  H   UNL     1     -41.393 -51.182  10.241  1.00  0.00     0.164 HD
HETATM   13  H   UNL     1     -40.862 -48.958   9.548  1.00  0.00     0.171 HD
BRANCH  11  14
HETATM   14  C   UNL     1     -40.906 -51.879  12.174  1.00  0.00     0.129 C 
BRANCH  14  15
HETATM   15  C   UNL     1     -42.175 -52.651  12.310  1.00  0.00     0.003 A 
HETATM   16  C   UNL     1     -43.027 -52.667  13.554  1.00  0.00     0.007 A 
HETATM   17  C   UNL     1     -42.158 -53.850  13.234  1.00  0.00     0.007 A 
ENDBRANCH  14  15
ENDBRANCH  11  14
ENDBRANCH   7   8
BRANCH   1  18
HETATM   18  O   UNL     1     -43.829 -47.643  10.313  1.00  0.00    -0.334 OA
BRANCH  18  19
HETATM   19  C   UNL     1     -44.534 -47.275   9.118  1.00  0.00     0.173 C 
HETATM   20  C   UNL     1     -45.947 -47.821   9.188  1.00  0.00     0.034 C 
ENDBRANCH  18  19
ENDBRANCH   1  18
TORSDOF 5
ENDMDL
MODEL 7
REMARK VINA RESULT:      -5.5      1.793      6.227
REMARK  5 active torsions:
REMARK  status: ('A' for Active; 'I' for Inactive)
REMARK    1  A    between atoms: C_2  and  O_3 
REMARK    2  A    between atoms: O_3  and  C_4 
REMARK    3  A    between atoms: C_10  and  N_11 
REMARK       I    between atoms: N_11  and  C_12 
REMARK       I    between atoms: C_12  and  N_14 
REMARK    4  A    between atoms: N_14  and  C_15 
REMARK    5  A    between atoms: C_15  and  C_16 
ROOT
HETATM    1  C   UNL     1     -40.055 -49.590  11.380  1.00  0.00     0.169 A 
HETATM    2  N   UNL     1     -38.976 -48.782  11.550  1.00  0.00    -0.345 N 
ATOM      3  HN  UNL     1     -38.952 -47.841  11.159  1.00  0.00     0.167 HD
HETATM    4  C   UNL     1     -37.937 -49.271  12.257  1.00  0.00     0.090 A 
HETATM    5  C   UNL     1     -37.940 -50.520  12.841  1.00  0.00     0.019 A 
HETATM    6  C   UNL     1     -39.058 -51.330  12.658  1.00  0.00     0.035 A 
HETATM    7  C   UNL     1     -40.135 -50.898  11.875  1.00  0.00     0.087 A 
ENDROOT
BRANCH   7   8
HETATM    8  N   UNL     1     -41.257 -51.736  11.592  1.00  0.00    -0.305 N 
HETATM    9  C   UNL     1     -42.261 -51.978  12.499  1.00  0.00     0.320 C 
HETATM   10  O   UNL     1     -42.272 -51.560  13.657  1.00  0.00    -0.247 OA
HETATM   11  N   UNL     1     -43.296 -52.757  12.020  1.00  0.00    -0.342 N 
HETATM   12  H   UNL     1     -43.495 -52.669  11.033  1.00  0.00     0.164 HD
HETATM   13  H   UNL     1     -41.128 -52.408  10.846  1.00  0.00     0.171 HD
BRANCH  11  14
HETATM   14  C   UNL     1     -44.437 -52.866  12.912  1.00  0.00     0.129 C 
BRANCH  14  15
HETATM   15  C   UNL     1     -45.309 -51.657  12.941  1.00  0.00     0.003 A 
HETATM   16  C   UNL     1     -46.518 -51.505  13.828  1.00  0.00     0.007 A 
HETATM   17  C   UNL     1     -46.702 -51.797  12.365  1.00  0.00     0.007 A 
ENDBRANCH  14  15
ENDBRANCH  11  14
ENDBRANCH   7   8
BRANCH   1  18
HETATM   18  O   UNL     1     -41.116 -49.107  10.629  1.00  0.00    -0.334 OA
BRANCH  18  19
HETATM   19  C   UNL     1     -41.731 -47.970  11.254  1.00  0.00     0.173 C 
HETATM   20  C   UNL     1     -43.022 -48.408  11.919  1.00  0.00     0.034 C 
ENDBRANCH  18  19
ENDBRANCH   1  18
TORSDOF 5
ENDMDL
MODEL 8
REMARK VINA RESULT:      -5.4      3.027      4.845
REMARK  5 active torsions:
REMARK  status: ('A' for Active; 'I' for Inactive)
REMARK    1  A    between atoms: C_2  and  O_3 
REMARK    2  A    between atoms: O_3  and  C_4 
REMARK    3  A    between atoms: C_10  and  N_11 
REMARK       I    between atoms: N_11  and  C_12 
REMARK       I    between atoms: C_12  and  N_14 
REMARK    4  A    between atoms: N_14  and  C_15 
REMARK    5  A    between atoms: C_15  and  C_16 
ROOT
HETATM    1  C   UNL     1     -40.920 -52.437  12.734  1.00  0.00     0.169 A 
HETATM    2  N   UNL     1     -40.682 -53.181  13.846  1.00  0.00    -0.345 N 
ATOM      3  HN  UNL     1     -41.306 -53.939  14.119  1.00  0.00     0.167 HD
HETATM    4  C   UNL     1     -39.588 -52.880  14.575  1.00  0.00     0.090 A 
HETATM    5  C   UNL     1     -38.692 -51.893  14.223  1.00  0.00     0.019 A 
HETATM    6  C   UNL     1     -38.953 -51.146  13.077  1.00  0.00     0.035 A 
HETATM    7  C   UNL     1     -40.111 -51.371  12.323  1.00  0.00     0.087 A 
ENDROOT
BRANCH   7   8
HETATM    8  N   UNL     1     -40.455 -50.564  11.194  1.00  0.00    -0.305 N 
HETATM    9  C   UNL     1     -41.261 -49.456  11.281  1.00  0.00     0.320 C 
HETATM   10  O   UNL     1     -41.819 -49.077  12.311  1.00  0.00    -0.247 OA
HETATM   11  N   UNL     1     -41.423 -48.764  10.096  1.00  0.00    -0.342 N 
HETATM   12  H   UNL     1     -40.639 -48.790   9.459  1.00  0.00     0.164 HD
HETATM   13  H   UNL     1     -40.374 -51.015  10.291  1.00  0.00     0.171 HD
BRANCH  11  14
HETATM   14  C   UNL     1     -42.125 -47.500  10.222  1.00  0.00     0.129 C 
BRANCH  14  15
HETATM   15  C   UNL     1     -43.453 -47.467   9.543  1.00  0.00     0.003 A 
HETATM   16  C   UNL     1     -43.646 -47.611   8.055  1.00  0.00     0.007 A 
HETATM   17  C   UNL     1     -43.762 -46.254   8.690  1.00  0.00     0.007 A 
ENDBRANCH  14  15
ENDBRANCH  11  14
ENDBRANCH   7   8
BRANCH   1  18
HETATM   18  O   UNL     1     -42.058 -52.720  11.995  1.00  0.00    -0.334 OA
BRANCH  18  19
HETATM   19  C   UNL     1     -43.254 -52.506  12.761  1.00  0.00     0.173 C 
HETATM   20  C   UNL     1     -44.175 -53.697  12.584  1.00  0.00     0.034 C 
ENDBRANCH  18  19
ENDBRANCH   1  18
TORSDOF 5
ENDMDL
MODEL 9
REMARK VINA RESULT:      -5.3      3.130      7.540
REMARK  5 active torsions:
REMARK  status: ('A' for Active; 'I' for Inactive)
REMARK    1  A    between atoms: C_2  and  O_3 
REMARK    2  A    between atoms: O_3  and  C_4 
REMARK    3  A    between atoms: C_10  and  N_11 
REMARK       I    between atoms: N_11  and  C_12 
REMARK       I    between atoms: C_12  and  N_14 
REMARK    4  A    between atoms: N_14  and  C_15 
REMARK    5  A    between atoms: C_15  and  C_16 
ROOT
HETATM    1  C   UNL     1     -40.847 -48.064  11.030  1.00  0.00     0.169 A 
HETATM    2  N   UNL     1     -40.198 -46.905  10.745  1.00  0.00    -0.345 N 
ATOM      3  HN  UNL     1     -39.184 -46.879  10.638  1.00  0.00     0.167 HD
HETATM    4  C   UNL     1     -40.944 -45.790  10.610  1.00  0.00     0.090 A 
HETATM    5  C   UNL     1     -42.319 -45.783  10.703  1.00  0.00     0.019 A 
HETATM    6  C   UNL     1     -42.965 -46.983  10.991  1.00  0.00     0.035 A 
HETATM    7  C   UNL     1     -42.233 -48.156  11.211  1.00  0.00     0.087 A 
ENDROOT
BRANCH   7   8
HETATM    8  N   UNL     1     -42.855 -49.384  11.596  1.00  0.00    -0.305 N 
HETATM    9  C   UNL     1     -43.335 -49.618  12.862  1.00  0.00     0.320 C 
HETATM   10  O   UNL     1     -43.226 -48.835  13.806  1.00  0.00    -0.247 OA
HETATM   11  N   UNL     1     -43.967 -50.835  13.025  1.00  0.00    -0.342 N 
HETATM   12  H   UNL     1     -44.444 -51.197  12.211  1.00  0.00     0.164 HD
HETATM   13  H   UNL     1     -42.632 -50.189  11.024  1.00  0.00     0.171 HD
BRANCH  11  14
HETATM   14  C   UNL     1     -44.628 -51.010  14.306  1.00  0.00     0.129 C 
BRANCH  14  15
HETATM   15  C   UNL     1     -46.086 -51.307  14.205  1.00  0.00     0.003 A 
HETATM   16  C   UNL     1     -47.019 -51.378  15.387  1.00  0.00     0.007 A 
HETATM   17  C   UNL     1     -46.555 -52.648  14.732  1.00  0.00     0.007 A 
ENDBRANCH  14  15
ENDBRANCH  11  14
ENDBRANCH   7   8
BRANCH   1  18
HETATM   18  O   UNL     1     -40.085 -49.210  11.201  1.00  0.00    -0.334 OA
BRANCH  18  19
HETATM   19  C   UNL     1     -38.970 -48.979  12.075  1.00  0.00     0.173 C 
HETATM   20  C   UNL     1     -37.774 -49.764  11.569  1.00  0.00     0.034 C 
ENDBRANCH  18  19
ENDBRANCH   1  18
TORSDOF 5
ENDMDL
