MODEL 1
REMARK VINA RESULT:      -5.8      0.000      0.000
REMARK  5 active torsions:
REMARK  status: ('A' for Active; 'I' for Inactive)
REMARK    1  A    between atoms: C_8  and  C_9 
REMARK    2  A    between atoms: C_9  and  N_10 
REMARK    3  A    between atoms: N_10  and  C_11 
REMARK    4  A    between atoms: C_11  and  C_12 
REMARK    5  A    between atoms: C_12  and  C_13 
ROOT
HETATM    1  N   UNL     1     -41.191 -51.730  11.414  1.00  0.00     0.084 N 
HETATM    2  H   UNL     1     -41.817 -51.762  10.609  1.00  0.00     0.315 HD
ENDROOT
BRANCH   1   3
HETATM    3  C   UNL     1     -41.966 -52.004  12.627  1.00  0.00     0.279 C 
BRANCH   3   4
HETATM    4  C   UNL     1     -42.136 -53.526  12.905  1.00  0.00     0.045 C 
HETATM    5  C   UNL     1     -43.617 -54.040  12.963  1.00  0.00    -0.009 C 
HETATM    6  C   UNL     1     -44.695 -53.028  12.531  1.00  0.00     0.011 C 
HETATM    7  C   UNL     1     -44.096 -54.757  14.239  1.00  0.00     0.009 C 
HETATM    8  C   UNL     1     -43.101 -55.051  15.348  1.00  0.00     0.028 C 
HETATM    9  C   UNL     1     -41.687 -54.677  15.104  1.00  0.00    -0.024 C 
HETATM   10  C   UNL     1     -41.234 -54.004  14.040  1.00  0.00    -0.081 C 
HETATM   11  C   UNL     1     -39.758 -53.700  13.929  1.00  0.00     0.043 C 
ENDBRANCH   3   4
ENDBRANCH   1   3
BRANCH   1  12
HETATM   12  C   UNL     1     -40.533 -50.423  11.482  1.00  0.00     0.275 C 
BRANCH  12  13
HETATM   13  C   UNL     1     -41.583 -49.331  11.712  1.00  0.00     0.088 C 
BRANCH  13  14
HETATM   14  C   UNL     1     -41.127 -48.002  11.214  1.00  0.00     0.031 A 
HETATM   15  C   UNL     1     -40.023 -47.249  11.553  1.00  0.00     0.045 A 
HETATM   16  C   UNL     1     -40.129 -46.080  10.784  1.00  0.00     0.109 A 
HETATM   17  N   UNL     1     -41.210 -46.082  10.004  1.00  0.00    -0.310 N 
HETATM   18  N   UNL     1     -41.806 -47.254  10.280  1.00  0.00    -0.301 N 
ATOM     19  HN  UNL     1     -41.514 -45.361   9.350  1.00  0.00     0.186 HD
HETATM   20  C   UNL     1     -43.033 -47.602   9.601  1.00  0.00     0.177 C 
ENDBRANCH  13  14
ENDBRANCH  12  13
ENDBRANCH   1  12
TORSDOF 5
ENDMDL
MODEL 2
REMARK VINA RESULT:      -5.7      1.458      2.336
REMARK  5 active torsions:
REMARK  status: ('A' for Active; 'I' for Inactive)
REMARK    1  A    between atoms: C_8  and  C_9 
REMARK    2  A    between atoms: C_9  and  N_10 
REMARK    3  A    between atoms: N_10  and  C_11 
REMARK    4  A    between atoms: C_11  and  C_12 
REMARK    5  A    between atoms: C_12  and  C_13 
ROOT
HETATM    1  N   UNL     1     -42.242 -50.397  11.792  1.00  0.00     0.084 N 
HETATM    2  H   UNL     1     -42.725 -50.758  10.968  1.00  0.00     0.315 HD
ENDROOT
BRANCH   1   3
HETATM    3  C   UNL     1     -42.728 -51.112  12.975  1.00  0.00     0.279 C 
BRANCH   3   4
HETATM    4  C   UNL     1     -43.222 -52.552  12.651  1.00  0.00     0.045 C 
HETATM    5  C   UNL     1     -44.767 -52.786  12.802  1.00  0.00    -0.009 C 
HETATM    6  C   UNL     1     -45.615 -51.522  13.041  1.00  0.00     0.011 C 
HETATM    7  C   UNL     1     -45.251 -53.894  13.754  1.00  0.00     0.009 C 
HETATM    8  C   UNL     1     -44.234 -54.802  14.423  1.00  0.00     0.028 C 
HETATM    9  C   UNL     1     -42.810 -54.600  14.065  1.00  0.00    -0.024 C 
HETATM   10  C   UNL     1     -42.335 -53.618  13.288  1.00  0.00    -0.081 C 
HETATM   11  C   UNL     1     -40.853 -53.547  13.008  1.00  0.00     0.043 C 
ENDBRANCH   3   4
ENDBRANCH   1   3
BRANCH   1  12
HETATM   12  C   UNL     1     -42.463 -48.955  11.909  1.00  0.00     0.275 C 
BRANCH  12  13
HETATM   13  C   UNL     1     -41.844 -48.241  10.702  1.00  0.00     0.088 C 
BRANCH  13  14
HETATM   14  C   UNL     1     -42.803 -47.301  10.055  1.00  0.00     0.031 A 
HETATM   15  C   UNL     1     -43.763 -47.523   9.091  1.00  0.00     0.045 A 
HETATM   16  C   UNL     1     -44.338 -46.265   8.850  1.00  0.00     0.109 A 
HETATM   17  N   UNL     1     -43.798 -45.309   9.606  1.00  0.00    -0.310 N 
HETATM   18  N   UNL     1     -42.867 -45.954  10.328  1.00  0.00    -0.301 N 
ATOM     19  HN  UNL     1     -44.036 -44.318   9.630  1.00  0.00     0.186 HD
HETATM   20  C   UNL     1     -42.068 -45.213  11.278  1.00  0.00     0.177 C 
ENDBRANCH  13  14
ENDBRANCH  12  13
ENDBRANCH   1  12
TORSDOF 5
ENDMDL
MODEL 3
REMARK VINA RESULT:      -5.7      2.845      4.265
REMARK  5 active torsions:
REMARK  status: ('A' for Active; 'I' for Inactive)
REMARK    1  A    between atoms: C_8  and  C_9 
REMARK    2  A    between atoms: C_9  and  N_10 
REMARK    3  A    between atoms: N_10  and  C_11 
REMARK    4  A    between atoms: C_11  and  C_12 
REMARK    5  A    between atoms: C_12  and  C_13 
ROOT
HETATM    1  N   UNL     1     -42.907 -51.689  12.155  1.00  0.00     0.084 N 
HETATM    2  H   UNL     1     -42.948 -50.670  12.122  1.00  0.00     0.315 HD
ENDROOT
BRANCH   1   3
HETATM    3  C   UNL     1     -43.651 -52.155  13.329  1.00  0.00     0.279 C 
BRANCH   3   4
HETATM    4  C   UNL     1     -44.613 -51.074  13.902  1.00  0.00     0.045 C 
HETATM    5  C   UNL     1     -44.241 -50.526  15.325  1.00  0.00    -0.009 C 
HETATM    6  C   UNL     1     -42.870 -50.964  15.874  1.00  0.00     0.011 C 
HETATM    7  C   UNL     1     -45.285 -50.639  16.451  1.00  0.00     0.009 C 
HETATM    8  C   UNL     1     -46.674 -51.164  16.132  1.00  0.00     0.028 C 
HETATM    9  C   UNL     1     -46.966 -51.485  14.715  1.00  0.00    -0.024 C 
HETATM   10  C   UNL     1     -46.079 -51.456  13.712  1.00  0.00    -0.081 C 
HETATM   11  C   UNL     1     -46.530 -51.805  12.314  1.00  0.00     0.043 C 
ENDBRANCH   3   4
ENDBRANCH   1   3
BRANCH   1  12
HETATM   12  C   UNL     1     -41.512 -52.133  12.193  1.00  0.00     0.275 C 
BRANCH  12  13
HETATM   13  C   UNL     1     -40.706 -51.210  13.114  1.00  0.00     0.088 C 
BRANCH  13  14
HETATM   14  C   UNL     1     -39.551 -50.584  12.408  1.00  0.00     0.031 A 
HETATM   15  C   UNL     1     -38.207 -50.886  12.450  1.00  0.00     0.045 A 
HETATM   16  C   UNL     1     -37.596 -49.945  11.606  1.00  0.00     0.109 A 
HETATM   17  N   UNL     1     -38.477 -49.110  11.056  1.00  0.00    -0.310 N 
HETATM   18  N   UNL     1     -39.658 -49.510  11.556  1.00  0.00    -0.301 N 
ATOM     19  HN  UNL     1     -38.297 -48.345  10.406  1.00  0.00     0.186 HD
HETATM   20  C   UNL     1     -40.864 -48.816  11.166  1.00  0.00     0.177 C 
ENDBRANCH  13  14
ENDBRANCH  12  13
ENDBRANCH   1  12
TORSDOF 5
ENDMDL
MODEL 4
REMARK VINA RESULT:      -5.7      2.017      2.998
REMARK  5 active torsions:
REMARK  status: ('A' for Active; 'I' for Inactive)
REMARK    1  A    between atoms: C_8  and  C_9 
REMARK    2  A    between atoms: C_9  and  N_10 
REMARK    3  A    between atoms: N_10  and  C_11 
REMARK    4  A    between atoms: C_11  and  C_12 
REMARK    5  A    between atoms: C_12  and  C_13 
ROOT
HETATM    1  N   UNL     1     -42.692 -52.639  11.692  1.00  0.00     0.084 N 
HETATM    2  H   UNL     1     -42.959 -51.993  10.949  1.00  0.00     0.315 HD
ENDROOT
BRANCH   1   3
HETATM    3  C   UNL     1     -43.411 -52.275  12.916  1.00  0.00     0.279 C 
BRANCH   3   4
HETATM    4  C   UNL     1     -44.419 -53.369  13.373  1.00  0.00     0.045 C 
HETATM    5  C   UNL     1     -45.930 -52.945  13.359  1.00  0.00    -0.009 C 
HETATM    6  C   UNL     1     -46.237 -51.587  12.698  1.00  0.00     0.011 C 
HETATM    7  C   UNL     1     -46.735 -53.052  14.666  1.00  0.00     0.009 C 
HETATM    8  C   UNL     1     -46.089 -53.671  15.893  1.00  0.00     0.028 C 
HETATM    9  C   UNL     1     -44.713 -54.201  15.737  1.00  0.00    -0.024 C 
HETATM   10  C   UNL     1     -43.954 -54.082  14.641  1.00  0.00    -0.081 C 
HETATM   11  C   UNL     1     -42.568 -54.683  14.631  1.00  0.00     0.043 C 
ENDBRANCH   3   4
ENDBRANCH   1   3
BRANCH   1  12
HETATM   12  C   UNL     1     -41.242 -52.601  11.891  1.00  0.00     0.275 C 
BRANCH  12  13
HETATM   13  C   UNL     1     -40.885 -51.448  12.836  1.00  0.00     0.088 C 
BRANCH  13  14
HETATM   14  C   UNL     1     -39.740 -50.640  12.325  1.00  0.00     0.031 A 
HETATM   15  C   UNL     1     -38.383 -50.790  12.514  1.00  0.00     0.045 A 
HETATM   16  C   UNL     1     -37.797 -49.720  11.820  1.00  0.00     0.109 A 
HETATM   17  N   UNL     1     -38.703 -48.947  11.222  1.00  0.00    -0.310 N 
HETATM   18  N   UNL     1     -39.877 -49.517  11.542  1.00  0.00    -0.301 N 
ATOM     19  HN  UNL     1     -38.543 -48.115  10.654  1.00  0.00     0.186 HD
HETATM   20  C   UNL     1     -41.105 -48.933  11.052  1.00  0.00     0.177 C 
ENDBRANCH  13  14
ENDBRANCH  12  13
ENDBRANCH   1  12
TORSDOF 5
ENDMDL
MODEL 5
REMARK VINA RESULT:      -5.6      2.762      5.183
REMARK  5 active torsions:
REMARK  status: ('A' for Active; 'I' for Inactive)
REMARK    1  A    between atoms: C_8  and  C_9 
REMARK    2  A    between atoms: C_9  and  N_10 
REMARK    3  A    between atoms: N_10  and  C_11 
REMARK    4  A    between atoms: C_11  and  C_12 
REMARK    5  A    between atoms: C_12  and  C_13 
ROOT
HETATM    1  N   UNL     1     -44.422 -52.351  16.759  1.00  0.00     0.084 N 
HETATM    2  H   UNL     1     -44.193 -52.264  17.749  1.00  0.00     0.315 HD
ENDROOT
BRANCH   1   3
HETATM    3  C   UNL     1     -45.240 -53.551  16.565  1.00  0.00     0.279 C 
BRANCH   3   4
HETATM    4  C   UNL     1     -46.227 -53.424  15.368  1.00  0.00     0.045 C 
HETATM    5  C   UNL     1     -45.752 -54.088  14.028  1.00  0.00    -0.009 C 
HETATM    6  C   UNL     1     -44.484 -54.956  14.124  1.00  0.00     0.011 C 
HETATM    7  C   UNL     1     -45.656 -53.210  12.768  1.00  0.00     0.009 C 
HETATM    8  C   UNL     1     -46.131 -51.769  12.823  1.00  0.00     0.028 C 
HETATM    9  C   UNL     1     -46.728 -51.302  14.098  1.00  0.00    -0.024 C 
HETATM   10  C   UNL     1     -46.782 -52.008  15.234  1.00  0.00    -0.081 C 
HETATM   11  C   UNL     1     -47.429 -51.397  16.455  1.00  0.00     0.043 C 
ENDBRANCH   3   4
ENDBRANCH   1   3
BRANCH   1  12
HETATM   12  C   UNL     1     -43.192 -52.407  15.965  1.00  0.00     0.275 C 
BRANCH  12  13
HETATM   13  C   UNL     1     -43.124 -51.189  15.038  1.00  0.00     0.088 C 
BRANCH  13  14
HETATM   14  C   UNL     1     -42.409 -51.493  13.765  1.00  0.00     0.031 A 
HETATM   15  C   UNL     1     -41.708 -52.615  13.379  1.00  0.00     0.045 A 
HETATM   16  C   UNL     1     -41.230 -52.322  12.092  1.00  0.00     0.109 A 
HETATM   17  N   UNL     1     -41.601 -51.111  11.678  1.00  0.00    -0.310 N 
HETATM   18  N   UNL     1     -42.312 -50.621  12.707  1.00  0.00    -0.301 N 
ATOM     19  HN  UNL     1     -41.393 -50.660  10.787  1.00  0.00     0.186 HD
HETATM   20  C   UNL     1     -42.884 -49.297  12.606  1.00  0.00     0.177 C 
ENDBRANCH  13  14
ENDBRANCH  12  13
ENDBRANCH   1  12
TORSDOF 5
ENDMDL
MODEL 6
REMARK VINA RESULT:      -5.5      2.796      3.538
REMARK  5 active torsions:
REMARK  status: ('A' for Active; 'I' for Inactive)
REMARK    1  A    between atoms: C_8  and  C_9 
REMARK    2  A    between atoms: C_9  and  N_10 
REMARK    3  A    between atoms: N_10  and  C_11 
REMARK    4  A    between atoms: C_11  and  C_12 
REMARK    5  A    between atoms: C_12  and  C_13 
ROOT
HETATM    1  N   UNL     1     -42.909 -50.840  12.498  1.00  0.00     0.084 N 
HETATM    2  H   UNL     1     -43.290 -51.296  11.668  1.00  0.00     0.315 HD
ENDROOT
BRANCH   1   3
HETATM    3  C   UNL     1     -44.013 -50.268  13.273  1.00  0.00     0.279 C 
BRANCH   3   4
HETATM    4  C   UNL     1     -44.531 -51.225  14.386  1.00  0.00     0.045 C 
HETATM    5  C   UNL     1     -45.946 -51.854  14.132  1.00  0.00    -0.009 C 
HETATM    6  C   UNL     1     -46.542 -51.616  12.732  1.00  0.00     0.011 C 
HETATM    7  C   UNL     1     -47.047 -51.630  15.183  1.00  0.00     0.009 C 
HETATM    8  C   UNL     1     -46.709 -50.917  16.481  1.00  0.00     0.028 C 
HETATM    9  C   UNL     1     -45.294 -50.525  16.686  1.00  0.00    -0.024 C 
HETATM   10  C   UNL     1     -44.314 -50.646  15.782  1.00  0.00    -0.081 C 
HETATM   11  C   UNL     1     -42.915 -50.206  16.142  1.00  0.00     0.043 C 
ENDBRANCH   3   4
ENDBRANCH   1   3
BRANCH   1  12
HETATM   12  C   UNL     1     -41.942 -49.814  12.105  1.00  0.00     0.275 C 
BRANCH  12  13
HETATM   13  C   UNL     1     -42.527 -48.425  12.382  1.00  0.00     0.088 C 
BRANCH  13  14
HETATM   14  C   UNL     1     -42.707 -47.633  11.131  1.00  0.00     0.031 A 
HETATM   15  C   UNL     1     -43.799 -47.510  10.299  1.00  0.00     0.045 A 
HETATM   16  C   UNL     1     -43.378 -46.658   9.266  1.00  0.00     0.109 A 
HETATM   17  N   UNL     1     -42.117 -46.256   9.424  1.00  0.00    -0.310 N 
HETATM   18  N   UNL     1     -41.724 -46.860  10.558  1.00  0.00    -0.301 N 
ATOM     19  HN  UNL     1     -41.575 -45.635   8.823  1.00  0.00     0.186 HD
HETATM   20  C   UNL     1     -40.381 -46.644  11.048  1.00  0.00     0.177 C 
ENDBRANCH  13  14
ENDBRANCH  12  13
ENDBRANCH   1  12
TORSDOF 5
ENDMDL
MODEL 7
REMARK VINA RESULT:      -5.5      2.701      3.860
REMARK  5 active torsions:
REMARK  status: ('A' for Active; 'I' for Inactive)
REMARK    1  A    between atoms: C_8  and  C_9 
REMARK    2  A    between atoms: C_9  and  N_10 
REMARK    3  A    between atoms: N_10  and  C_11 
REMARK    4  A    between atoms: C_11  and  C_12 
REMARK    5  A    between atoms: C_12  and  C_13 
ROOT
HETATM    1  N   UNL     1     -42.838 -51.499  12.159  1.00  0.00     0.084 N 
HETATM    2  H   UNL     1     -43.459 -50.882  11.635  1.00  0.00     0.315 HD
ENDROOT
BRANCH   1   3
HETATM    3  C   UNL     1     -43.555 -52.004  13.334  1.00  0.00     0.279 C 
BRANCH   3   4
HETATM    4  C   UNL     1     -44.551 -50.965  13.926  1.00  0.00     0.045 C 
HETATM    5  C   UNL     1     -44.186 -50.415  15.349  1.00  0.00    -0.009 C 
HETATM    6  C   UNL     1     -42.794 -50.805  15.881  1.00  0.00     0.011 C 
HETATM    7  C   UNL     1     -45.212 -50.577  16.485  1.00  0.00     0.009 C 
HETATM    8  C   UNL     1     -46.584 -51.151  16.176  1.00  0.00     0.028 C 
HETATM    9  C   UNL     1     -46.879 -51.471  14.759  1.00  0.00    -0.024 C 
HETATM   10  C   UNL     1     -46.004 -51.400  13.748  1.00  0.00    -0.081 C 
HETATM   11  C   UNL     1     -46.457 -51.754  12.351  1.00  0.00     0.043 C 
ENDBRANCH   3   4
ENDBRANCH   1   3
BRANCH   1  12
HETATM   12  C   UNL     1     -41.623 -50.778  12.543  1.00  0.00     0.275 C 
BRANCH  12  13
HETATM   13  C   UNL     1     -41.425 -49.577  11.611  1.00  0.00     0.088 C 
BRANCH  13  14
HETATM   14  C   UNL     1     -42.140 -48.364  12.101  1.00  0.00     0.031 A 
HETATM   15  C   UNL     1     -42.311 -47.881  13.381  1.00  0.00     0.045 A 
HETATM   16  C   UNL     1     -43.092 -46.724  13.233  1.00  0.00     0.109 A 
HETATM   17  N   UNL     1     -43.393 -46.475  11.959  1.00  0.00    -0.310 N 
HETATM   18  N   UNL     1     -42.810 -47.481  11.286  1.00  0.00    -0.301 N 
ATOM     19  HN  UNL     1     -43.939 -45.701  11.582  1.00  0.00     0.186 HD
HETATM   20  C   UNL     1     -42.930 -47.534   9.847  1.00  0.00     0.177 C 
ENDBRANCH  13  14
ENDBRANCH  12  13
ENDBRANCH   1  12
TORSDOF 5
ENDMDL
MODEL 8
REMARK VINA RESULT:      -5.5      3.495      5.706
REMARK  5 active torsions:
REMARK  status: ('A' for Active; 'I' for Inactive)
REMARK    1  A    between atoms: C_8  and  C_9 
REMARK    2  A    between atoms: C_9  and  N_10 
REMARK    3  A    between atoms: N_10  and  C_11 
REMARK    4  A    between atoms: C_11  and  C_12 
REMARK    5  A    between atoms: C_12  and  C_13 
ROOT
HETATM    1  N   UNL     1     -43.546 -53.096  16.242  1.00  0.00     0.084 N 
HETATM    2  H   UNL     1     -43.977 -53.086  15.317  1.00  0.00     0.315 HD
ENDROOT
BRANCH   1   3
HETATM    3  C   UNL     1     -43.705 -51.772  16.851  1.00  0.00     0.279 C 
BRANCH   3   4
HETATM    4  C   UNL     1     -44.727 -50.877  16.093  1.00  0.00     0.045 C 
HETATM    5  C   UNL     1     -46.239 -51.208  16.354  1.00  0.00    -0.009 C 
HETATM    6  C   UNL     1     -46.517 -52.224  17.478  1.00  0.00     0.011 C 
HETATM    7  C   UNL     1     -47.134 -51.547  15.148  1.00  0.00     0.009 C 
HETATM    8  C   UNL     1     -46.569 -51.436  13.743  1.00  0.00     0.028 C 
HETATM    9  C   UNL     1     -45.178 -50.940  13.612  1.00  0.00    -0.024 C 
HETATM   10  C   UNL     1     -44.344 -50.686  14.627  1.00  0.00    -0.081 C 
HETATM   11  C   UNL     1     -42.952 -50.177  14.334  1.00  0.00     0.043 C 
ENDBRANCH   3   4
ENDBRANCH   1   3
BRANCH   1  12
HETATM   12  C   UNL     1     -42.135 -53.469  16.132  1.00  0.00     0.275 C 
BRANCH  12  13
HETATM   13  C   UNL     1     -41.943 -54.400  14.929  1.00  0.00     0.088 C 
BRANCH  13  14
HETATM   14  C   UNL     1     -41.830 -53.644  13.648  1.00  0.00     0.031 A 
HETATM   15  C   UNL     1     -40.783 -52.914  13.130  1.00  0.00     0.045 A 
HETATM   16  C   UNL     1     -41.261 -52.406  11.911  1.00  0.00     0.109 A 
HETATM   17  N   UNL     1     -42.513 -52.787  11.659  1.00  0.00    -0.310 N 
HETATM   18  N   UNL     1     -42.844 -53.535  12.725  1.00  0.00    -0.301 N 
ATOM     19  HN  UNL     1     -43.086 -52.563  10.846  1.00  0.00     0.186 HD
HETATM   20  C   UNL     1     -44.160 -54.128  12.793  1.00  0.00     0.177 C 
ENDBRANCH  13  14
ENDBRANCH  12  13
ENDBRANCH   1  12
TORSDOF 5
ENDMDL
MODEL 9
REMARK VINA RESULT:      -5.4      2.551      4.075
REMARK  5 active torsions:
REMARK  status: ('A' for Active; 'I' for Inactive)
REMARK    1  A    between atoms: C_8  and  C_9 
REMARK    2  A    between atoms: C_9  and  N_10 
REMARK    3  A    between atoms: N_10  and  C_11 
REMARK    4  A    between atoms: C_11  and  C_12 
REMARK    5  A    between atoms: C_12  and  C_13 
ROOT
HETATM    1  N   UNL     1     -43.958 -50.405  15.653  1.00  0.00     0.084 N 
HETATM    2  H   UNL     1     -43.895 -49.894  16.534  1.00  0.00     0.315 HD
ENDROOT
BRANCH   1   3
HETATM    3  C   UNL     1     -43.971 -51.842  15.940  1.00  0.00     0.279 C 
BRANCH   3   4
HETATM    4  C   UNL     1     -45.038 -52.613  15.110  1.00  0.00     0.045 C 
HETATM    5  C   UNL     1     -44.491 -53.378  13.853  1.00  0.00    -0.009 C 
HETATM    6  C   UNL     1     -42.958 -53.445  13.725  1.00  0.00     0.011 C 
HETATM    7  C   UNL     1     -45.089 -53.046  12.474  1.00  0.00     0.009 C 
HETATM    8  C   UNL     1     -46.261 -52.085  12.380  1.00  0.00     0.028 C 
HETATM    9  C   UNL     1     -46.809 -51.561  13.654  1.00  0.00    -0.024 C 
HETATM   10  C   UNL     1     -46.291 -51.775  14.870  1.00  0.00    -0.081 C 
HETATM   11  C   UNL     1     -46.969 -51.177  16.080  1.00  0.00     0.043 C 
ENDBRANCH   3   4
ENDBRANCH   1   3
BRANCH   1  12
HETATM   12  C   UNL     1     -42.836 -50.042  14.784  1.00  0.00     0.275 C 
BRANCH  12  13
HETATM   13  C   UNL     1     -43.356 -49.745  13.373  1.00  0.00     0.088 C 
BRANCH  13  14
HETATM   14  C   UNL     1     -42.254 -49.696  12.369  1.00  0.00     0.031 A 
HETATM   15  C   UNL     1     -41.098 -50.439  12.273  1.00  0.00     0.045 A 
HETATM   16  C   UNL     1     -40.431 -49.932  11.145  1.00  0.00     0.109 A 
HETATM   17  N   UNL     1     -41.109 -48.947  10.557  1.00  0.00    -0.310 N 
HETATM   18  N   UNL     1     -42.211 -48.815  11.314  1.00  0.00    -0.301 N 
ATOM     19  HN  UNL     1     -40.851 -48.417   9.724  1.00  0.00     0.186 HD
HETATM   20  C   UNL     1     -43.196 -47.818  10.962  1.00  0.00     0.177 C 
ENDBRANCH  13  14
ENDBRANCH  12  13
ENDBRANCH   1  12
TORSDOF 5
ENDMDL
