MODEL 1
REMARK VINA RESULT:      -6.6      0.000      0.000
REMARK  5 active torsions:
REMARK  status: ('A' for Active; 'I' for Inactive)
REMARK    1  A    between atoms: O_2  and  C_3 
REMARK    2  A    between atoms: C_3  and  C_4 
REMARK    3  A    between atoms: C_4  and  N_7 
REMARK       I    between atoms: N_7  and  C_8 
REMARK       I    between atoms: C_8  and  N_10 
REMARK    4  A    between atoms: N_10  and  C_11 
REMARK    5  A    between atoms: N_15  and  C_18 
ROOT
HETATM    1  C   UNL     1     -42.241 -52.605  12.394  1.00  0.00     0.702 C 
HETATM    2  N   UNL     1     -41.990 -53.646  13.239  1.00  0.00    -0.185 N 
ATOM      3  HN  UNL     1     -41.085 -54.017  13.530  1.00  0.00     0.185 HD
HETATM    4  C   UNL     1     -43.179 -54.058  13.588  1.00  0.00     0.218 C 
HETATM    5  N   UNL     1     -44.121 -53.261  13.009  1.00  0.00    -0.268 N 
HETATM    6  N   UNL     1     -43.535 -52.272  12.300  1.00  0.00    -0.128 N 
ATOM      7  HN  UNL     1     -43.965 -51.481  11.820  1.00  0.00     0.206 HD
ENDROOT
BRANCH   1   8
HETATM    8  N   UNL     1     -41.257 -51.958  11.689  1.00  0.00    -0.140 N 
HETATM    9  C   UNL     1     -40.193 -51.375  12.334  1.00  0.00     0.335 C 
HETATM   10  N   UNL     1     -39.313 -50.771  11.459  1.00  0.00    -0.332 N 
HETATM   11  O   UNL     1     -39.982 -51.404  13.538  1.00  0.00    -0.246 OA
HETATM   12  H   UNL     1     -39.652 -50.527  10.539  1.00  0.00     0.165 HD
HETATM   13  H   UNL     1     -41.151 -52.269  10.744  1.00  0.00     0.189 HD
BRANCH  10  14
HETATM   14  C   UNL     1     -38.021 -50.189  11.889  1.00  0.00     0.048 C 
HETATM   15  C   UNL     1     -37.141 -49.889  10.659  1.00  0.00     0.040 C 
HETATM   16  C   UNL     1     -37.277 -51.137  12.850  1.00  0.00     0.040 C 
BRANCH  14  17
HETATM   17  C   UNL     1     -38.269 -48.859  12.658  1.00  0.00     0.197 C 
BRANCH  17  18
HETATM   18  O   UNL     1     -37.687 -48.910  13.964  1.00  0.00    -0.394 OA
HETATM   19  C   UNL     1     -37.507 -47.610  14.510  1.00  0.00     0.201 C 
ENDBRANCH  17  18
ENDBRANCH  14  17
ENDBRANCH  10  14
ENDBRANCH   1   8
BRANCH   5  20
HETATM   20  C   UNL     1     -45.553 -53.529  12.992  1.00  0.00     0.109 C 
HETATM   21  C   UNL     1     -46.349 -52.233  12.766  1.00  0.00     0.027 C 
HETATM   22  C   UNL     1     -46.286 -51.324  13.991  1.00  0.00     0.002 C 
HETATM   23  C   UNL     1     -46.845 -52.028  15.222  1.00  0.00     0.000 C 
HETATM   24  C   UNL     1     -46.213 -53.396  15.476  1.00  0.00     0.002 C 
HETATM   25  C   UNL     1     -46.113 -54.267  14.220  1.00  0.00     0.027 C 
ENDBRANCH   5  20
TORSDOF 5
ENDMDL
MODEL 2
REMARK VINA RESULT:      -6.3      3.476      4.239
REMARK  5 active torsions:
REMARK  status: ('A' for Active; 'I' for Inactive)
REMARK    1  A    between atoms: O_2  and  C_3 
REMARK    2  A    between atoms: C_3  and  C_4 
REMARK    3  A    between atoms: C_4  and  N_7 
REMARK       I    between atoms: N_7  and  C_8 
REMARK       I    between atoms: C_8  and  N_10 
REMARK    4  A    between atoms: N_10  and  C_11 
REMARK    5  A    between atoms: N_15  and  C_18 
ROOT
HETATM    1  C   UNL     1     -40.849 -50.498  11.583  1.00  0.00     0.702 C 
HETATM    2  N   UNL     1     -40.081 -51.587  11.873  1.00  0.00    -0.185 N 
ATOM      3  HN  UNL     1     -39.070 -51.689  11.776  1.00  0.00     0.185 HD
HETATM    4  C   UNL     1     -40.942 -52.471  12.303  1.00  0.00     0.218 C 
HETATM    5  N   UNL     1     -42.188 -51.917  12.316  1.00  0.00    -0.268 N 
HETATM    6  N   UNL     1     -42.137 -50.623  11.931  1.00  0.00    -0.128 N 
ATOM      7  HN  UNL     1     -42.882 -49.926  11.911  1.00  0.00     0.206 HD
ENDROOT
BRANCH   1   8
HETATM    8  N   UNL     1     -40.353 -49.372  10.975  1.00  0.00    -0.140 N 
HETATM    9  C   UNL     1     -40.765 -48.120  11.363  1.00  0.00     0.335 C 
HETATM   10  N   UNL     1     -40.160 -47.117  10.634  1.00  0.00    -0.332 N 
HETATM   11  O   UNL     1     -41.538 -47.871  12.277  1.00  0.00    -0.246 OA
HETATM   12  H   UNL     1     -39.765 -47.357   9.735  1.00  0.00     0.165 HD
HETATM   13  H   UNL     1     -39.450 -49.488  10.560  1.00  0.00     0.189 HD
BRANCH  10  14
HETATM   14  C   UNL     1     -40.331 -45.679  10.945  1.00  0.00     0.048 C 
HETATM   15  C   UNL     1     -39.491 -44.825   9.974  1.00  0.00     0.040 C 
HETATM   16  C   UNL     1     -39.926 -45.373  12.400  1.00  0.00     0.040 C 
BRANCH  14  17
HETATM   17  C   UNL     1     -41.827 -45.278  10.791  1.00  0.00     0.197 C 
BRANCH  17  18
HETATM   18  O   UNL     1     -42.283 -45.517   9.456  1.00  0.00    -0.394 OA
HETATM   19  C   UNL     1     -43.516 -46.225   9.441  1.00  0.00     0.201 C 
ENDBRANCH  17  18
ENDBRANCH  14  17
ENDBRANCH  10  14
ENDBRANCH   1   8
BRANCH   5  20
HETATM   20  C   UNL     1     -43.429 -52.648  12.533  1.00  0.00     0.109 C 
HETATM   21  C   UNL     1     -44.447 -51.783  13.296  1.00  0.00     0.027 C 
HETATM   22  C   UNL     1     -44.025 -51.585  14.750  1.00  0.00     0.002 C 
HETATM   23  C   UNL     1     -43.891 -52.924  15.467  1.00  0.00     0.000 C 
HETATM   24  C   UNL     1     -42.997 -53.919  14.728  1.00  0.00     0.002 C 
HETATM   25  C   UNL     1     -43.293 -54.013  13.228  1.00  0.00     0.027 C 
ENDBRANCH   5  20
TORSDOF 5
ENDMDL
MODEL 3
REMARK VINA RESULT:      -6.2      4.071      5.751
REMARK  5 active torsions:
REMARK  status: ('A' for Active; 'I' for Inactive)
REMARK    1  A    between atoms: O_2  and  C_3 
REMARK    2  A    between atoms: C_3  and  C_4 
REMARK    3  A    between atoms: C_4  and  N_7 
REMARK       I    between atoms: N_7  and  C_8 
REMARK       I    between atoms: C_8  and  N_10 
REMARK    4  A    between atoms: N_10  and  C_11 
REMARK    5  A    between atoms: N_15  and  C_18 
ROOT
HETATM    1  C   UNL     1     -40.425 -50.599  11.575  1.00  0.00     0.702 C 
HETATM    2  N   UNL     1     -39.380 -50.461  12.441  1.00  0.00    -0.185 N 
ATOM      3  HN  UNL     1     -38.765 -49.656  12.563  1.00  0.00     0.185 HD
HETATM    4  C   UNL     1     -39.349 -51.602  13.077  1.00  0.00     0.218 C 
HETATM    5  N   UNL     1     -40.373 -52.389  12.641  1.00  0.00    -0.268 N 
HETATM    6  N   UNL     1     -41.124 -51.731  11.731  1.00  0.00    -0.128 N 
ATOM      7  HN  UNL     1     -41.994 -52.020  11.281  1.00  0.00     0.206 HD
ENDROOT
BRANCH   1   8
HETATM    8  N   UNL     1     -40.731 -49.667  10.615  1.00  0.00    -0.140 N 
HETATM    9  C   UNL     1     -41.827 -48.851  10.747  1.00  0.00     0.335 C 
HETATM   10  N   UNL     1     -41.972 -47.985   9.683  1.00  0.00    -0.332 N 
HETATM   11  O   UNL     1     -42.590 -48.824  11.703  1.00  0.00    -0.246 OA
HETATM   12  H   UNL     1     -41.513 -48.221   8.814  1.00  0.00     0.165 HD
HETATM   13  H   UNL     1     -39.949 -49.358  10.072  1.00  0.00     0.189 HD
BRANCH  10  14
HETATM   14  C   UNL     1     -42.995 -46.915   9.647  1.00  0.00     0.048 C 
HETATM   15  C   UNL     1     -43.121 -46.352   8.216  1.00  0.00     0.040 C 
HETATM   16  C   UNL     1     -42.647 -45.780  10.631  1.00  0.00     0.040 C 
BRANCH  14  17
HETATM   17  C   UNL     1     -44.377 -47.488  10.078  1.00  0.00     0.197 C 
BRANCH  17  18
HETATM   18  O   UNL     1     -45.220 -47.691   8.940  1.00  0.00    -0.394 OA
HETATM   19  C   UNL     1     -46.512 -47.131   9.138  1.00  0.00     0.201 C 
ENDBRANCH  17  18
ENDBRANCH  14  17
ENDBRANCH  10  14
ENDBRANCH   1   8
BRANCH   5  20
HETATM   20  C   UNL     1     -40.542 -53.801  12.960  1.00  0.00     0.109 C 
HETATM   21  C   UNL     1     -42.021 -54.127  13.229  1.00  0.00     0.027 C 
HETATM   22  C   UNL     1     -42.489 -53.522  14.551  1.00  0.00     0.002 C 
HETATM   23  C   UNL     1     -41.656 -54.044  15.716  1.00  0.00     0.000 C 
HETATM   24  C   UNL     1     -40.151 -53.888  15.501  1.00  0.00     0.002 C 
HETATM   25  C   UNL     1     -39.679 -54.336  14.115  1.00  0.00     0.027 C 
ENDBRANCH   5  20
TORSDOF 5
ENDMDL
MODEL 4
REMARK VINA RESULT:      -5.9      3.114      3.584
REMARK  5 active torsions:
REMARK  status: ('A' for Active; 'I' for Inactive)
REMARK    1  A    between atoms: O_2  and  C_3 
REMARK    2  A    between atoms: C_3  and  C_4 
REMARK    3  A    between atoms: C_4  and  N_7 
REMARK       I    between atoms: N_7  and  C_8 
REMARK       I    between atoms: C_8  and  N_10 
REMARK    4  A    between atoms: N_10  and  C_11 
REMARK    5  A    between atoms: N_15  and  C_18 
ROOT
HETATM    1  C   UNL     1     -42.464 -51.591  12.430  1.00  0.00     0.702 C 
HETATM    2  N   UNL     1     -41.921 -52.724  12.962  1.00  0.00    -0.185 N 
ATOM      3  HN  UNL     1     -40.934 -52.946  13.097  1.00  0.00     0.185 HD
HETATM    4  C   UNL     1     -42.960 -53.459  13.258  1.00  0.00     0.218 C 
HETATM    5  N   UNL     1     -44.098 -52.773  12.957  1.00  0.00    -0.268 N 
HETATM    6  N   UNL     1     -43.801 -51.538  12.496  1.00  0.00    -0.128 N 
ATOM      7  HN  UNL     1     -44.429 -50.769  12.261  1.00  0.00     0.206 HD
ENDROOT
BRANCH   1   8
HETATM    8  N   UNL     1     -41.711 -50.595  11.862  1.00  0.00    -0.140 N 
HETATM    9  C   UNL     1     -42.064 -49.275  12.005  1.00  0.00     0.335 C 
HETATM   10  N   UNL     1     -41.189 -48.423  11.361  1.00  0.00    -0.332 N 
HETATM   11  O   UNL     1     -43.007 -48.852  12.658  1.00  0.00    -0.246 OA
HETATM   12  H   UNL     1     -40.613 -48.804  10.624  1.00  0.00     0.165 HD
HETATM   13  H   UNL     1     -40.752 -50.835  11.708  1.00  0.00     0.189 HD
BRANCH  10  14
HETATM   14  C   UNL     1     -41.271 -46.948  11.473  1.00  0.00     0.048 C 
HETATM   15  C   UNL     1     -40.053 -46.298  10.786  1.00  0.00     0.040 C 
HETATM   16  C   UNL     1     -41.342 -46.507  12.948  1.00  0.00     0.040 C 
BRANCH  14  17
HETATM   17  C   UNL     1     -42.566 -46.435  10.778  1.00  0.00     0.197 C 
BRANCH  17  18
HETATM   18  O   UNL     1     -42.725 -47.040   9.490  1.00  0.00    -0.394 OA
HETATM   19  C   UNL     1     -43.539 -46.246   8.636  1.00  0.00     0.201 C 
ENDBRANCH  17  18
ENDBRANCH  14  17
ENDBRANCH  10  14
ENDBRANCH   1   8
BRANCH   5  20
HETATM   20  C   UNL     1     -45.442 -53.337  12.951  1.00  0.00     0.109 C 
HETATM   21  C   UNL     1     -46.502 -52.223  12.903  1.00  0.00     0.027 C 
HETATM   22  C   UNL     1     -46.564 -51.461  14.224  1.00  0.00     0.002 C 
HETATM   23  C   UNL     1     -46.897 -52.399  15.380  1.00  0.00     0.000 C 
HETATM   24  C   UNL     1     -45.980 -53.620  15.451  1.00  0.00     0.002 C 
HETATM   25  C   UNL     1     -45.769 -54.307  14.099  1.00  0.00     0.027 C 
ENDBRANCH   5  20
TORSDOF 5
ENDMDL
MODEL 5
REMARK VINA RESULT:      -5.9      3.390      4.102
REMARK  5 active torsions:
REMARK  status: ('A' for Active; 'I' for Inactive)
REMARK    1  A    between atoms: O_2  and  C_3 
REMARK    2  A    between atoms: C_3  and  C_4 
REMARK    3  A    between atoms: C_4  and  N_7 
REMARK       I    between atoms: N_7  and  C_8 
REMARK       I    between atoms: C_8  and  N_10 
REMARK    4  A    between atoms: N_10  and  C_11 
REMARK    5  A    between atoms: N_15  and  C_18 
ROOT
HETATM    1  C   UNL     1     -41.236 -51.133  11.805  1.00  0.00     0.702 C 
HETATM    2  N   UNL     1     -41.112 -52.380  11.265  1.00  0.00    -0.185 N 
ATOM      3  HN  UNL     1     -40.612 -52.653  10.419  1.00  0.00     0.185 HD
HETATM    4  C   UNL     1     -41.784 -53.143  12.087  1.00  0.00     0.218 C 
HETATM    5  N   UNL     1     -42.261 -52.387  13.116  1.00  0.00    -0.268 N 
HETATM    6  N   UNL     1     -41.852 -51.106  12.994  1.00  0.00    -0.128 N 
ATOM      7  HN  UNL     1     -41.980 -50.324  13.637  1.00  0.00     0.206 HD
ENDROOT
BRANCH   1   8
HETATM    8  N   UNL     1     -40.781 -49.998  11.180  1.00  0.00    -0.140 N 
HETATM    9  C   UNL     1     -41.244 -48.758  11.545  1.00  0.00     0.335 C 
HETATM   10  N   UNL     1     -40.676 -47.743  10.803  1.00  0.00    -0.332 N 
HETATM   11  O   UNL     1     -42.033 -48.525  12.450  1.00  0.00    -0.246 OA
HETATM   12  H   UNL     1     -40.265 -47.982   9.911  1.00  0.00     0.165 HD
HETATM   13  H   UNL     1     -39.871 -50.085  10.773  1.00  0.00     0.189 HD
BRANCH  10  14
HETATM   14  C   UNL     1     -40.906 -46.309  11.088  1.00  0.00     0.048 C 
HETATM   15  C   UNL     1     -39.950 -45.442  10.244  1.00  0.00     0.040 C 
HETATM   16  C   UNL     1     -40.711 -46.002  12.586  1.00  0.00     0.040 C 
BRANCH  14  17
HETATM   17  C   UNL     1     -42.371 -45.926  10.728  1.00  0.00     0.197 C 
BRANCH  17  18
HETATM   18  O   UNL     1     -42.474 -45.544   9.353  1.00  0.00    -0.394 OA
HETATM   19  C   UNL     1     -43.492 -46.274   8.681  1.00  0.00     0.201 C 
ENDBRANCH  17  18
ENDBRANCH  14  17
ENDBRANCH  10  14
ENDBRANCH   1   8
BRANCH   5  20
HETATM   20  C   UNL     1     -43.224 -52.838  14.112  1.00  0.00     0.109 C 
HETATM   21  C   UNL     1     -44.297 -53.733  13.469  1.00  0.00     0.027 C 
HETATM   22  C   UNL     1     -45.233 -52.922  12.577  1.00  0.00     0.002 C 
HETATM   23  C   UNL     1     -45.930 -51.823  13.372  1.00  0.00     0.000 C 
HETATM   24  C   UNL     1     -44.962 -50.942  14.161  1.00  0.00     0.002 C 
HETATM   25  C   UNL     1     -43.905 -51.733  14.937  1.00  0.00     0.027 C 
ENDBRANCH   5  20
TORSDOF 5
ENDMDL
MODEL 6
REMARK VINA RESULT:      -5.8      2.843      6.785
REMARK  5 active torsions:
REMARK  status: ('A' for Active; 'I' for Inactive)
REMARK    1  A    between atoms: O_2  and  C_3 
REMARK    2  A    between atoms: C_3  and  C_4 
REMARK    3  A    between atoms: C_4  and  N_7 
REMARK       I    between atoms: N_7  and  C_8 
REMARK       I    between atoms: C_8  and  N_10 
REMARK    4  A    between atoms: N_10  and  C_11 
REMARK    5  A    between atoms: N_15  and  C_18 
ROOT
HETATM    1  C   UNL     1     -41.348 -51.258  11.720  1.00  0.00     0.702 C 
HETATM    2  N   UNL     1     -40.035 -51.385  12.066  1.00  0.00    -0.185 N 
ATOM      3  HN  UNL     1     -39.538 -52.230  12.352  1.00  0.00     0.185 HD
HETATM    4  C   UNL     1     -39.561 -50.174  11.946  1.00  0.00     0.218 C 
HETATM    5  N   UNL     1     -40.547 -49.347  11.497  1.00  0.00    -0.268 N 
HETATM    6  N   UNL     1     -41.684 -50.041  11.271  1.00  0.00    -0.128 N 
ATOM      7  HN  UNL     1     -42.564 -49.723  10.865  1.00  0.00     0.206 HD
ENDROOT
BRANCH   1   8
HETATM    8  N   UNL     1     -42.256 -52.281  11.834  1.00  0.00    -0.140 N 
HETATM    9  C   UNL     1     -42.670 -52.723  13.066  1.00  0.00     0.335 C 
HETATM   10  N   UNL     1     -43.578 -53.758  12.977  1.00  0.00    -0.332 N 
HETATM   11  O   UNL     1     -42.339 -52.252  14.146  1.00  0.00    -0.246 OA
HETATM   12  H   UNL     1     -43.608 -54.290  12.118  1.00  0.00     0.165 HD
HETATM   13  H   UNL     1     -42.857 -52.393  11.042  1.00  0.00     0.189 HD
BRANCH  10  14
HETATM   14  C   UNL     1     -44.277 -54.322  14.155  1.00  0.00     0.048 C 
HETATM   15  C   UNL     1     -43.280 -55.100  15.038  1.00  0.00     0.040 C 
HETATM   16  C   UNL     1     -45.433 -55.247  13.725  1.00  0.00     0.040 C 
BRANCH  14  17
HETATM   17  C   UNL     1     -44.899 -53.174  15.002  1.00  0.00     0.197 C 
BRANCH  17  18
HETATM   18  O   UNL     1     -46.228 -52.880  14.560  1.00  0.00    -0.394 OA
HETATM   19  C   UNL     1     -46.342 -51.542  14.092  1.00  0.00     0.201 C 
ENDBRANCH  17  18
ENDBRANCH  14  17
ENDBRANCH  10  14
ENDBRANCH   1   8
BRANCH   5  20
HETATM   20  C   UNL     1     -40.462 -47.893  11.439  1.00  0.00     0.109 C 
HETATM   21  C   UNL     1     -40.344 -47.295  12.851  1.00  0.00     0.027 C 
HETATM   22  C   UNL     1     -41.656 -47.431  13.620  1.00  0.00     0.002 C 
HETATM   23  C   UNL     1     -42.794 -46.727  12.888  1.00  0.00     0.000 C 
HETATM   24  C   UNL     1     -42.926 -47.152  11.426  1.00  0.00     0.002 C 
HETATM   25  C   UNL     1     -41.592 -47.184  10.674  1.00  0.00     0.027 C 
ENDBRANCH   5  20
TORSDOF 5
ENDMDL
MODEL 7
REMARK VINA RESULT:      -5.7      3.299      4.430
REMARK  5 active torsions:
REMARK  status: ('A' for Active; 'I' for Inactive)
REMARK    1  A    between atoms: O_2  and  C_3 
REMARK    2  A    between atoms: C_3  and  C_4 
REMARK    3  A    between atoms: C_4  and  N_7 
REMARK       I    between atoms: N_7  and  C_8 
REMARK       I    between atoms: C_8  and  N_10 
REMARK    4  A    between atoms: N_10  and  C_11 
REMARK    5  A    between atoms: N_15  and  C_18 
ROOT
HETATM    1  C   UNL     1     -40.836 -52.135  12.219  1.00  0.00     0.702 C 
HETATM    2  N   UNL     1     -40.748 -53.408  11.736  1.00  0.00    -0.185 N 
ATOM      3  HN  UNL     1     -40.484 -53.708  10.796  1.00  0.00     0.185 HD
HETATM    4  C   UNL     1     -41.079 -54.153  12.756  1.00  0.00     0.218 C 
HETATM    5  N   UNL     1     -41.316 -53.357  13.837  1.00  0.00    -0.268 N 
HETATM    6  N   UNL     1     -41.088 -52.061  13.532  1.00  0.00    -0.128 N 
ATOM      7  HN  UNL     1     -41.104 -51.242  14.141  1.00  0.00     0.206 HD
ENDROOT
BRANCH   1   8
HETATM    8  N   UNL     1     -40.692 -51.022  11.428  1.00  0.00    -0.140 N 
HETATM    9  C   UNL     1     -41.529 -49.943  11.570  1.00  0.00     0.335 C 
HETATM   10  N   UNL     1     -41.232 -48.925  10.686  1.00  0.00    -0.332 N 
HETATM   11  O   UNL     1     -42.419 -49.830  12.402  1.00  0.00    -0.246 OA
HETATM   12  H   UNL     1     -40.702 -49.157   9.858  1.00  0.00     0.165 HD
HETATM   13  H   UNL     1     -39.769 -50.886  11.066  1.00  0.00     0.189 HD
BRANCH  10  14
HETATM   14  C   UNL     1     -41.900 -47.604  10.724  1.00  0.00     0.048 C 
HETATM   15  C   UNL     1     -40.860 -46.481  10.535  1.00  0.00     0.040 C 
HETATM   16  C   UNL     1     -42.657 -47.402  12.052  1.00  0.00     0.040 C 
BRANCH  14  17
HETATM   17  C   UNL     1     -42.949 -47.507   9.578  1.00  0.00     0.197 C 
BRANCH  17  18
HETATM   18  O   UNL     1     -44.264 -47.315  10.108  1.00  0.00    -0.394 OA
HETATM   19  C   UNL     1     -45.266 -47.585   9.136  1.00  0.00     0.201 C 
ENDBRANCH  17  18
ENDBRANCH  14  17
ENDBRANCH  10  14
ENDBRANCH   1   8
BRANCH   5  20
HETATM   20  C   UNL     1     -41.907 -53.800  15.093  1.00  0.00     0.109 C 
HETATM   21  C   UNL     1     -42.864 -54.982  14.860  1.00  0.00     0.027 C 
HETATM   22  C   UNL     1     -44.133 -54.531  14.140  1.00  0.00     0.002 C 
HETATM   23  C   UNL     1     -44.867 -53.463  14.944  1.00  0.00     0.000 C 
HETATM   24  C   UNL     1     -43.974 -52.290  15.346  1.00  0.00     0.002 C 
HETATM   25  C   UNL     1     -42.620 -52.718  15.920  1.00  0.00     0.027 C 
ENDBRANCH   5  20
TORSDOF 5
ENDMDL
MODEL 8
REMARK VINA RESULT:      -5.6      1.665      2.165
REMARK  5 active torsions:
REMARK  status: ('A' for Active; 'I' for Inactive)
REMARK    1  A    between atoms: O_2  and  C_3 
REMARK    2  A    between atoms: C_3  and  C_4 
REMARK    3  A    between atoms: C_4  and  N_7 
REMARK       I    between atoms: N_7  and  C_8 
REMARK       I    between atoms: C_8  and  N_10 
REMARK    4  A    between atoms: N_10  and  C_11 
REMARK    5  A    between atoms: N_15  and  C_18 
ROOT
HETATM    1  C   UNL     1     -42.492 -53.390  12.951  1.00  0.00     0.702 C 
HETATM    2  N   UNL     1     -43.484 -53.853  12.137  1.00  0.00    -0.185 N 
ATOM      3  HN  UNL     1     -43.462 -53.973  11.124  1.00  0.00     0.185 HD
HETATM    4  C   UNL     1     -44.468 -54.108  12.958  1.00  0.00     0.218 C 
HETATM    5  N   UNL     1     -44.068 -53.850  14.235  1.00  0.00    -0.268 N 
HETATM    6  N   UNL     1     -42.774 -53.461  14.259  1.00  0.00    -0.128 N 
ATOM      7  HN  UNL     1     -42.172 -53.273  15.061  1.00  0.00     0.206 HD
ENDROOT
BRANCH   1   8
HETATM    8  N   UNL     1     -41.309 -52.880  12.476  1.00  0.00    -0.140 N 
HETATM    9  C   UNL     1     -41.020 -51.543  12.593  1.00  0.00     0.335 C 
HETATM   10  N   UNL     1     -39.791 -51.220  12.054  1.00  0.00    -0.332 N 
HETATM   11  O   UNL     1     -41.717 -50.704  13.148  1.00  0.00    -0.246 OA
HETATM   12  H   UNL     1     -39.389 -51.855  11.378  1.00  0.00     0.165 HD
HETATM   13  H   UNL     1     -40.562 -53.544  12.422  1.00  0.00     0.189 HD
BRANCH  10  14
HETATM   14  C   UNL     1     -39.188 -49.872  12.171  1.00  0.00     0.048 C 
HETATM   15  C   UNL     1     -37.845 -49.827  11.414  1.00  0.00     0.040 C 
HETATM   16  C   UNL     1     -38.973 -49.487  13.648  1.00  0.00     0.040 C 
BRANCH  14  17
HETATM   17  C   UNL     1     -40.142 -48.809  11.554  1.00  0.00     0.197 C 
BRANCH  17  18
HETATM   18  O   UNL     1     -39.542 -47.510  11.581  1.00  0.00    -0.394 OA
HETATM   19  C   UNL     1     -40.369 -46.537  10.955  1.00  0.00     0.201 C 
ENDBRANCH  17  18
ENDBRANCH  14  17
ENDBRANCH  10  14
ENDBRANCH   1   8
BRANCH   5  20
HETATM   20  C   UNL     1     -44.945 -53.814  15.398  1.00  0.00     0.109 C 
HETATM   21  C   UNL     1     -46.421 -53.762  14.968  1.00  0.00     0.027 C 
HETATM   22  C   UNL     1     -46.772 -52.407  14.358  1.00  0.00     0.002 C 
HETATM   23  C   UNL     1     -46.515 -51.278  15.350  1.00  0.00     0.000 C 
HETATM   24  C   UNL     1     -45.108 -51.305  15.945  1.00  0.00     0.002 C 
HETATM   25  C   UNL     1     -44.667 -52.694  16.415  1.00  0.00     0.027 C 
ENDBRANCH   5  20
TORSDOF 5
ENDMDL
MODEL 9
REMARK VINA RESULT:      -5.5      3.876      5.373
REMARK  5 active torsions:
REMARK  status: ('A' for Active; 'I' for Inactive)
REMARK    1  A    between atoms: O_2  and  C_3 
REMARK    2  A    between atoms: C_3  and  C_4 
REMARK    3  A    between atoms: C_4  and  N_7 
REMARK       I    between atoms: N_7  and  C_8 
REMARK       I    between atoms: C_8  and  N_10 
REMARK    4  A    between atoms: N_10  and  C_11 
REMARK    5  A    between atoms: N_15  and  C_18 
ROOT
HETATM    1  C   UNL     1     -41.252 -52.152  12.315  1.00  0.00     0.702 C 
HETATM    2  N   UNL     1     -40.803 -53.368  11.889  1.00  0.00    -0.185 N 
ATOM      3  HN  UNL     1     -40.598 -53.664  10.934  1.00  0.00     0.185 HD
HETATM    4  C   UNL     1     -40.695 -54.064  12.989  1.00  0.00     0.218 C 
HETATM    5  N   UNL     1     -41.025 -53.279  14.053  1.00  0.00    -0.268 N 
HETATM    6  N   UNL     1     -41.311 -52.023  13.647  1.00  0.00    -0.128 N 
ATOM      7  HN  UNL     1     -41.517 -51.195  14.206  1.00  0.00     0.206 HD
ENDROOT
BRANCH   1   8
HETATM    8  N   UNL     1     -41.626 -51.149  11.456  1.00  0.00    -0.140 N 
HETATM    9  C   UNL     1     -41.658 -49.840  11.871  1.00  0.00     0.335 C 
HETATM   10  N   UNL     1     -42.063 -48.980  10.871  1.00  0.00    -0.332 N 
HETATM   11  O   UNL     1     -41.329 -49.430  12.975  1.00  0.00    -0.246 OA
HETATM   12  H   UNL     1     -42.581 -49.366  10.094  1.00  0.00     0.165 HD
HETATM   13  H   UNL     1     -41.483 -51.356  10.487  1.00  0.00     0.189 HD
BRANCH  10  14
HETATM   14  C   UNL     1     -42.054 -47.506  11.022  1.00  0.00     0.048 C 
HETATM   15  C   UNL     1     -40.606 -47.000  11.178  1.00  0.00     0.040 C 
HETATM   16  C   UNL     1     -42.899 -47.068  12.234  1.00  0.00     0.040 C 
BRANCH  14  17
HETATM   17  C   UNL     1     -42.679 -46.841   9.762  1.00  0.00     0.197 C 
BRANCH  17  18
HETATM   18  O   UNL     1     -43.708 -47.668   9.208  1.00  0.00    -0.394 OA
HETATM   19  C   UNL     1     -43.554 -47.825   7.803  1.00  0.00     0.201 C 
ENDBRANCH  17  18
ENDBRANCH  14  17
ENDBRANCH  10  14
ENDBRANCH   1   8
BRANCH   5  20
HETATM   20  C   UNL     1     -41.226 -53.753  15.416  1.00  0.00     0.109 C 
HETATM   21  C   UNL     1     -40.799 -52.684  16.436  1.00  0.00     0.027 C 
HETATM   22  C   UNL     1     -39.282 -52.516  16.459  1.00  0.00     0.002 C 
HETATM   23  C   UNL     1     -38.593 -53.829  16.814  1.00  0.00     0.000 C 
HETATM   24  C   UNL     1     -39.039 -55.002  15.942  1.00  0.00     0.002 C 
HETATM   25  C   UNL     1     -40.558 -55.093  15.767  1.00  0.00     0.027 C 
ENDBRANCH   5  20
TORSDOF 5
ENDMDL
