MODEL 1
REMARK VINA RESULT:      -5.8      0.000      0.000
REMARK  4 active torsions:
REMARK  status: ('A' for Active; 'I' for Inactive)
REMARK    1  A    between atoms: C_8  and  N_9 
REMARK       I    between atoms: N_9  and  C_10 
REMARK       I    between atoms: C_10  and  N_12 
REMARK    2  A    between atoms: N_12  and  C_13 
REMARK    3  A    between atoms: C_13  and  C_14 
REMARK    4  A    between atoms: C_14  and  C_15 
ROOT
HETATM    1  N   UNL     1     -43.829 -52.526  12.194  1.00  0.00    -0.306 N 
HETATM    2  C   UNL     1     -42.625 -52.059  12.669  1.00  0.00     0.320 C 
HETATM    3  O   UNL     1     -42.197 -52.245  13.803  1.00  0.00    -0.247 OA
HETATM    4  N   UNL     1     -41.927 -51.300  11.751  1.00  0.00    -0.343 N 
HETATM    5  H   UNL     1     -43.974 -52.542  11.194  1.00  0.00     0.171 HD
HETATM    6  H   UNL     1     -42.052 -51.541  10.780  1.00  0.00     0.164 HD
ENDROOT
BRANCH   1   7
HETATM    7  C   UNL     1     -44.794 -53.199  12.990  1.00  0.00     0.077 A 
HETATM    8  C   UNL     1     -45.850 -52.476  13.536  1.00  0.00     0.158 A 
HETATM    9  F   UNL     1     -45.965 -51.156  13.319  1.00  0.00    -0.202 F 
HETATM   10  C   UNL     1     -46.804 -53.145  14.288  1.00  0.00     0.132 A 
HETATM   11  N   UNL     1     -46.767 -54.474  14.546  1.00  0.00    -0.372 N 
HETATM   12  C   UNL     1     -45.724 -55.153  14.023  1.00  0.00     0.090 A 
ATOM     13  HN  UNL     1     -47.486 -54.936  15.104  1.00  0.00     0.164 HD
HETATM   14  C   UNL     1     -44.728 -54.568  13.258  1.00  0.00     0.050 A 
ENDBRANCH   1   7
BRANCH   4  15
HETATM   15  C   UNL     1     -40.610 -50.830  12.154  1.00  0.00     0.127 C 
BRANCH  15  16
HETATM   16  C   UNL     1     -40.573 -49.345  12.494  1.00  0.00     0.051 C 
BRANCH  16  17
HETATM   17  C   UNL     1     -40.646 -48.506  11.203  1.00  0.00     0.123 C 
HETATM   18  C   UNL     1     -40.163 -47.066  11.382  1.00  0.00     0.032 C 
HETATM   19  C   UNL     1     -41.164 -46.231  12.171  1.00  0.00     0.004 C 
HETATM   20  C   UNL     1     -42.556 -46.353  11.563  1.00  0.00     0.026 C 
HETATM   21  C   UNL     1     -42.946 -47.810  11.361  1.00  0.00     0.168 C 
HETATM   22  O   UNL     1     -41.955 -48.520  10.622  1.00  0.00    -0.386 OA
ENDBRANCH  16  17
ENDBRANCH  15  16
ENDBRANCH   4  15
TORSDOF 4
ENDMDL
MODEL 2
REMARK VINA RESULT:      -5.6      1.905      2.924
REMARK  4 active torsions:
REMARK  status: ('A' for Active; 'I' for Inactive)
REMARK    1  A    between atoms: C_8  and  N_9 
REMARK       I    between atoms: N_9  and  C_10 
REMARK       I    between atoms: C_10  and  N_12 
REMARK    2  A    between atoms: N_12  and  C_13 
REMARK    3  A    between atoms: C_13  and  C_14 
REMARK    4  A    between atoms: C_14  and  C_15 
ROOT
HETATM    1  N   UNL     1     -44.378 -51.875  12.465  1.00  0.00    -0.306 N 
HETATM    2  C   UNL     1     -43.257 -51.245  12.955  1.00  0.00     0.320 C 
HETATM    3  O   UNL     1     -42.706 -51.514  14.017  1.00  0.00    -0.247 OA
HETATM    4  N   UNL     1     -42.805 -50.220  12.150  1.00  0.00    -0.343 N 
HETATM    5  H   UNL     1     -44.601 -51.761  11.486  1.00  0.00     0.171 HD
HETATM    6  H   UNL     1     -42.960 -50.324  11.158  1.00  0.00     0.164 HD
ENDROOT
BRANCH   1   7
HETATM    7  C   UNL     1     -45.119 -52.854  13.179  1.00  0.00     0.077 A 
HETATM    8  C   UNL     1     -46.216 -52.459  13.940  1.00  0.00     0.158 A 
HETATM    9  F   UNL     1     -46.580 -51.169  14.003  1.00  0.00    -0.202 F 
HETATM   10  C   UNL     1     -46.952 -53.425  14.610  1.00  0.00     0.132 A 
HETATM   11  N   UNL     1     -46.657 -54.748  14.590  1.00  0.00    -0.372 N 
HETATM   12  C   UNL     1     -45.579 -55.107  13.863  1.00  0.00     0.090 A 
ATOM     13  HN  UNL     1     -47.220 -55.433  15.095  1.00  0.00     0.164 HD
HETATM   14  C   UNL     1     -44.789 -54.211  13.159  1.00  0.00     0.050 A 
ENDBRANCH   1   7
BRANCH   4  15
HETATM   15  C   UNL     1     -41.580 -49.551  12.562  1.00  0.00     0.127 C 
BRANCH  15  16
HETATM   16  C   UNL     1     -40.344 -50.028  11.809  1.00  0.00     0.051 C 
BRANCH  16  17
HETATM   17  C   UNL     1     -39.141 -49.125  12.143  1.00  0.00     0.123 C 
HETATM   18  C   UNL     1     -37.813 -49.650  11.596  1.00  0.00     0.032 C 
HETATM   19  C   UNL     1     -37.322 -50.863  12.376  1.00  0.00     0.004 C 
HETATM   20  C   UNL     1     -37.309 -50.565  13.870  1.00  0.00     0.026 C 
HETATM   21  C   UNL     1     -38.642 -49.994  14.333  1.00  0.00     0.168 C 
HETATM   22  O   UNL     1     -39.030 -48.869  13.548  1.00  0.00    -0.386 OA
ENDBRANCH  16  17
ENDBRANCH  15  16
ENDBRANCH   4  15
TORSDOF 4
ENDMDL
MODEL 3
REMARK VINA RESULT:      -5.5      2.674      7.068
REMARK  4 active torsions:
REMARK  status: ('A' for Active; 'I' for Inactive)
REMARK    1  A    between atoms: C_8  and  N_9 
REMARK       I    between atoms: N_9  and  C_10 
REMARK       I    between atoms: C_10  and  N_12 
REMARK    2  A    between atoms: N_12  and  C_13 
REMARK    3  A    between atoms: C_13  and  C_14 
REMARK    4  A    between atoms: C_14  and  C_15 
ROOT
HETATM    1  N   UNL     1     -41.143 -49.115  10.589  1.00  0.00    -0.306 N 
HETATM    2  C   UNL     1     -40.996 -49.917  11.697  1.00  0.00     0.320 C 
HETATM    3  O   UNL     1     -41.086 -49.536  12.859  1.00  0.00    -0.247 OA
HETATM    4  N   UNL     1     -40.689 -51.228  11.391  1.00  0.00    -0.343 N 
HETATM    5  H   UNL     1     -41.305 -49.558   9.695  1.00  0.00     0.171 HD
HETATM    6  H   UNL     1     -41.062 -51.587  10.525  1.00  0.00     0.164 HD
ENDROOT
BRANCH   1   7
HETATM    7  C   UNL     1     -41.309 -47.705  10.642  1.00  0.00     0.077 A 
HETATM    8  C   UNL     1     -42.541 -47.150  10.307  1.00  0.00     0.158 A 
HETATM    9  F   UNL     1     -43.568 -47.931   9.936  1.00  0.00    -0.202 F 
HETATM   10  C   UNL     1     -42.703 -45.776  10.390  1.00  0.00     0.132 A 
HETATM   11  N   UNL     1     -41.721 -44.920  10.763  1.00  0.00    -0.372 N 
HETATM   12  C   UNL     1     -40.530 -45.476  11.065  1.00  0.00     0.090 A 
ATOM     13  HN  UNL     1     -41.875 -43.912  10.813  1.00  0.00     0.164 HD
HETATM   14  C   UNL     1     -40.278 -46.838  11.013  1.00  0.00     0.050 A 
ENDBRANCH   1   7
BRANCH   4  15
HETATM   15  C   UNL     1     -40.590 -52.157  12.507  1.00  0.00     0.127 C 
BRANCH  15  16
HETATM   16  C   UNL     1     -41.731 -53.166  12.560  1.00  0.00     0.051 C 
BRANCH  16  17
HETATM   17  C   UNL     1     -42.761 -52.740  13.625  1.00  0.00     0.123 C 
HETATM   18  C   UNL     1     -42.657 -53.534  14.928  1.00  0.00     0.032 C 
HETATM   19  C   UNL     1     -43.176 -54.957  14.764  1.00  0.00     0.004 C 
HETATM   20  C   UNL     1     -44.570 -54.947  14.147  1.00  0.00     0.026 C 
HETATM   21  C   UNL     1     -44.612 -54.093  12.888  1.00  0.00     0.168 C 
HETATM   22  O   UNL     1     -44.104 -52.783  13.126  1.00  0.00    -0.386 OA
ENDBRANCH  16  17
ENDBRANCH  15  16
ENDBRANCH   4  15
TORSDOF 4
ENDMDL
MODEL 4
REMARK VINA RESULT:      -5.5      4.950      6.366
REMARK  4 active torsions:
REMARK  status: ('A' for Active; 'I' for Inactive)
REMARK    1  A    between atoms: C_8  and  N_9 
REMARK       I    between atoms: N_9  and  C_10 
REMARK       I    between atoms: C_10  and  N_12 
REMARK    2  A    between atoms: N_12  and  C_13 
REMARK    3  A    between atoms: C_13  and  C_14 
REMARK    4  A    between atoms: C_14  and  C_15 
ROOT
HETATM    1  N   UNL     1     -41.918 -48.323   9.524  1.00  0.00    -0.306 N 
HETATM    2  C   UNL     1     -41.494 -48.856  10.720  1.00  0.00     0.320 C 
HETATM    3  O   UNL     1     -42.013 -48.641  11.809  1.00  0.00    -0.247 OA
HETATM    4  N   UNL     1     -40.371 -49.650  10.601  1.00  0.00    -0.343 N 
HETATM    5  H   UNL     1     -41.595 -48.752   8.668  1.00  0.00     0.171 HD
HETATM    6  H   UNL     1     -40.263 -50.152   9.733  1.00  0.00     0.164 HD
ENDROOT
BRANCH   1   7
HETATM    7  C   UNL     1     -42.954 -47.359   9.404  1.00  0.00     0.077 A 
HETATM    8  C   UNL     1     -42.664 -46.015   9.625  1.00  0.00     0.158 A 
HETATM    9  F   UNL     1     -41.421 -45.624   9.949  1.00  0.00    -0.202 F 
HETATM   10  C   UNL     1     -43.674 -45.077   9.477  1.00  0.00     0.132 A 
HETATM   11  N   UNL     1     -44.951 -45.387   9.143  1.00  0.00    -0.372 N 
HETATM   12  C   UNL     1     -45.215 -46.696   8.952  1.00  0.00     0.090 A 
ATOM     13  HN  UNL     1     -45.671 -44.671   9.042  1.00  0.00     0.164 HD
HETATM   14  C   UNL     1     -44.268 -47.701   9.075  1.00  0.00     0.050 A 
ENDBRANCH   1   7
BRANCH   4  15
HETATM   15  C   UNL     1     -39.902 -50.310  11.811  1.00  0.00     0.127 C 
BRANCH  15  16
HETATM   16  C   UNL     1     -38.613 -49.717  12.366  1.00  0.00     0.051 C 
BRANCH  16  17
HETATM   17  C   UNL     1     -38.613 -49.800  13.904  1.00  0.00     0.123 C 
HETATM   18  C   UNL     1     -39.854 -49.180  14.550  1.00  0.00     0.032 C 
HETATM   19  C   UNL     1     -39.828 -47.659  14.473  1.00  0.00     0.004 C 
HETATM   20  C   UNL     1     -38.507 -47.122  15.012  1.00  0.00     0.026 C 
HETATM   21  C   UNL     1     -37.320 -47.822  14.367  1.00  0.00     0.168 C 
HETATM   22  O   UNL     1     -37.426 -49.240  14.478  1.00  0.00    -0.386 OA
ENDBRANCH  16  17
ENDBRANCH  15  16
ENDBRANCH   4  15
TORSDOF 4
ENDMDL
MODEL 5
REMARK VINA RESULT:      -5.4      1.592      1.922
REMARK  4 active torsions:
REMARK  status: ('A' for Active; 'I' for Inactive)
REMARK    1  A    between atoms: C_8  and  N_9 
REMARK       I    between atoms: N_9  and  C_10 
REMARK       I    between atoms: C_10  and  N_12 
REMARK    2  A    between atoms: N_12  and  C_13 
REMARK    3  A    between atoms: C_13  and  C_14 
REMARK    4  A    between atoms: C_14  and  C_15 
ROOT
HETATM    1  N   UNL     1     -42.586 -52.473  11.774  1.00  0.00    -0.306 N 
HETATM    2  C   UNL     1     -41.557 -51.693  12.252  1.00  0.00     0.320 C 
HETATM    3  O   UNL     1     -41.291 -51.528  13.437  1.00  0.00    -0.247 OA
HETATM    4  N   UNL     1     -40.844 -51.054  11.258  1.00  0.00    -0.343 N 
HETATM    5  H   UNL     1     -42.567 -52.747  10.802  1.00  0.00     0.171 HD
HETATM    6  H   UNL     1     -40.775 -51.533  10.373  1.00  0.00     0.164 HD
ENDROOT
BRANCH   1   7
HETATM    7  C   UNL     1     -43.553 -53.108  12.597  1.00  0.00     0.077 A 
HETATM    8  C   UNL     1     -43.170 -54.181  13.396  1.00  0.00     0.158 A 
HETATM    9  F   UNL     1     -41.901 -54.619  13.397  1.00  0.00    -0.202 F 
HETATM   10  C   UNL     1     -44.114 -54.777  14.219  1.00  0.00     0.132 A 
HETATM   11  N   UNL     1     -45.411 -54.389  14.285  1.00  0.00    -0.372 N 
HETATM   12  C   UNL     1     -45.766 -53.360  13.489  1.00  0.00     0.090 A 
ATOM     13  HN  UNL     1     -46.081 -54.850  14.902  1.00  0.00     0.164 HD
HETATM   14  C   UNL     1     -44.890 -52.704  12.639  1.00  0.00     0.050 A 
ENDBRANCH   1   7
BRANCH   4  15
HETATM   15  C   UNL     1     -39.693 -50.268  11.678  1.00  0.00     0.127 C 
BRANCH  15  16
HETATM   16  C   UNL     1     -40.045 -48.839  12.071  1.00  0.00     0.051 C 
BRANCH  16  17
HETATM   17  C   UNL     1     -40.871 -48.172  10.954  1.00  0.00     0.123 C 
HETATM   18  C   UNL     1     -40.746 -46.648  10.927  1.00  0.00     0.032 C 
HETATM   19  C   UNL     1     -41.493 -46.000  12.086  1.00  0.00     0.004 C 
HETATM   20  C   UNL     1     -42.929 -46.509  12.143  1.00  0.00     0.026 C 
HETATM   21  C   UNL     1     -42.980 -48.030  12.110  1.00  0.00     0.168 C 
HETATM   22  O   UNL     1     -42.252 -48.553  11.001  1.00  0.00    -0.386 OA
ENDBRANCH  16  17
ENDBRANCH  15  16
ENDBRANCH   4  15
TORSDOF 4
ENDMDL
MODEL 6
REMARK VINA RESULT:      -5.4      1.881      2.496
REMARK  4 active torsions:
REMARK  status: ('A' for Active; 'I' for Inactive)
REMARK    1  A    between atoms: C_8  and  N_9 
REMARK       I    between atoms: N_9  and  C_10 
REMARK       I    between atoms: C_10  and  N_12 
REMARK    2  A    between atoms: N_12  and  C_13 
REMARK    3  A    between atoms: C_13  and  C_14 
REMARK    4  A    between atoms: C_14  and  C_15 
ROOT
HETATM    1  N   UNL     1     -43.235 -52.653  11.948  1.00  0.00    -0.306 N 
HETATM    2  C   UNL     1     -42.083 -52.139  12.499  1.00  0.00     0.320 C 
HETATM    3  O   UNL     1     -41.816 -52.139  13.696  1.00  0.00    -0.247 OA
HETATM    4  N   UNL     1     -41.237 -51.566  11.572  1.00  0.00    -0.343 N 
HETATM    5  H   UNL     1     -43.249 -52.836  10.954  1.00  0.00     0.171 HD
HETATM    6  H   UNL     1     -41.245 -51.968  10.646  1.00  0.00     0.164 HD
ENDROOT
BRANCH   1   7
HETATM    7  C   UNL     1     -44.326 -53.155  12.705  1.00  0.00     0.077 A 
HETATM    8  C   UNL     1     -45.336 -52.285  13.107  1.00  0.00     0.158 A 
HETATM    9  F   UNL     1     -45.289 -50.982  12.786  1.00  0.00    -0.202 F 
HETATM   10  C   UNL     1     -46.413 -52.789  13.821  1.00  0.00     0.132 A 
HETATM   11  N   UNL     1     -46.541 -54.090  14.176  1.00  0.00    -0.372 N 
HETATM   12  C   UNL     1     -45.542 -54.913  13.795  1.00  0.00     0.090 A 
ATOM     13  HN  UNL     1     -47.347 -54.429  14.703  1.00  0.00     0.164 HD
HETATM   14  C   UNL     1     -44.431 -54.498  13.077  1.00  0.00     0.050 A 
ENDBRANCH   1   7
BRANCH   4  15
HETATM   15  C   UNL     1     -39.963 -51.065  12.066  1.00  0.00     0.127 C 
BRANCH  15  16
HETATM   16  C   UNL     1     -39.912 -49.547  12.185  1.00  0.00     0.051 C 
BRANCH  16  17
HETATM   17  C   UNL     1     -40.053 -49.129  13.661  1.00  0.00     0.123 C 
HETATM   18  C   UNL     1     -40.270 -47.627  13.853  1.00  0.00     0.032 C 
HETATM   19  C   UNL     1     -38.997 -46.835  13.584  1.00  0.00     0.004 C 
HETATM   20  C   UNL     1     -37.835 -47.407  14.387  1.00  0.00     0.026 C 
HETATM   21  C   UNL     1     -37.714 -48.911  14.193  1.00  0.00     0.168 C 
HETATM   22  O   UNL     1     -38.948 -49.574  14.458  1.00  0.00    -0.386 OA
ENDBRANCH  16  17
ENDBRANCH  15  16
ENDBRANCH   4  15
TORSDOF 4
ENDMDL
MODEL 7
REMARK VINA RESULT:      -5.3      2.719      7.359
REMARK  4 active torsions:
REMARK  status: ('A' for Active; 'I' for Inactive)
REMARK    1  A    between atoms: C_8  and  N_9 
REMARK       I    between atoms: N_9  and  C_10 
REMARK       I    between atoms: C_10  and  N_12 
REMARK    2  A    between atoms: N_12  and  C_13 
REMARK    3  A    between atoms: C_13  and  C_14 
REMARK    4  A    between atoms: C_14  and  C_15 
ROOT
HETATM    1  N   UNL     1     -40.970 -51.346  11.319  1.00  0.00    -0.306 N 
HETATM    2  C   UNL     1     -41.541 -52.004  12.385  1.00  0.00     0.320 C 
HETATM    3  O   UNL     1     -41.853 -51.482  13.449  1.00  0.00    -0.247 OA
HETATM    4  N   UNL     1     -41.706 -53.358  12.172  1.00  0.00    -0.343 N 
HETATM    5  H   UNL     1     -40.987 -51.796  10.415  1.00  0.00     0.171 HD
HETATM    6  H   UNL     1     -41.877 -53.647  11.221  1.00  0.00     0.164 HD
ENDROOT
BRANCH   1   7
HETATM    7  C   UNL     1     -40.561 -49.987  11.349  1.00  0.00     0.077 A 
HETATM    8  C   UNL     1     -39.272 -49.671  11.769  1.00  0.00     0.158 A 
HETATM    9  F   UNL     1     -38.416 -50.635  12.144  1.00  0.00    -0.202 F 
HETATM   10  C   UNL     1     -38.871 -48.344  11.766  1.00  0.00     0.132 A 
HETATM   11  N   UNL     1     -39.668 -47.314  11.394  1.00  0.00    -0.372 N 
HETATM   12  C   UNL     1     -40.920 -47.639  11.009  1.00  0.00     0.090 A 
ATOM     13  HN  UNL     1     -39.341 -46.347  11.404  1.00  0.00     0.164 HD
HETATM   14  C   UNL     1     -41.405 -48.937  10.977  1.00  0.00     0.050 A 
ENDBRANCH   1   7
BRANCH   4  15
HETATM   15  C   UNL     1     -42.370 -54.113  13.224  1.00  0.00     0.127 C 
BRANCH  15  16
HETATM   16  C   UNL     1     -43.890 -54.017  13.173  1.00  0.00     0.051 C 
BRANCH  16  17
HETATM   17  C   UNL     1     -44.516 -55.033  14.148  1.00  0.00     0.123 C 
HETATM   18  C   UNL     1     -46.045 -55.018  14.149  1.00  0.00     0.032 C 
HETATM   19  C   UNL     1     -46.596 -53.776  14.838  1.00  0.00     0.004 C 
HETATM   20  C   UNL     1     -45.968 -53.611  16.216  1.00  0.00     0.026 C 
HETATM   21  C   UNL     1     -44.450 -53.692  16.147  1.00  0.00     0.168 C 
HETATM   22  O   UNL     1     -44.020 -54.878  15.483  1.00  0.00    -0.386 OA
ENDBRANCH  16  17
ENDBRANCH  15  16
ENDBRANCH   4  15
TORSDOF 4
ENDMDL
MODEL 8
REMARK VINA RESULT:      -5.3      3.729      4.850
REMARK  4 active torsions:
REMARK  status: ('A' for Active; 'I' for Inactive)
REMARK    1  A    between atoms: C_8  and  N_9 
REMARK       I    between atoms: N_9  and  C_10 
REMARK       I    between atoms: C_10  and  N_12 
REMARK    2  A    between atoms: N_12  and  C_13 
REMARK    3  A    between atoms: C_13  and  C_14 
REMARK    4  A    between atoms: C_14  and  C_15 
ROOT
HETATM    1  N   UNL     1     -40.404 -50.203  11.052  1.00  0.00    -0.306 N 
HETATM    2  C   UNL     1     -41.320 -49.187  11.203  1.00  0.00     0.320 C 
HETATM    3  O   UNL     1     -41.892 -48.906  12.250  1.00  0.00    -0.247 OA
HETATM    4  N   UNL     1     -41.587 -48.508  10.031  1.00  0.00    -0.343 N 
HETATM    5  H   UNL     1     -39.808 -50.193  10.236  1.00  0.00     0.171 HD
HETATM    6  H   UNL     1     -40.830 -48.442   9.367  1.00  0.00     0.164 HD
ENDROOT
BRANCH   1   7
HETATM    7  C   UNL     1     -40.077 -51.139  12.069  1.00  0.00     0.077 A 
HETATM    8  C   UNL     1     -40.901 -52.243  12.271  1.00  0.00     0.158 A 
HETATM    9  F   UNL     1     -41.995 -52.431  11.516  1.00  0.00    -0.202 F 
HETATM   10  C   UNL     1     -40.558 -53.168  13.246  1.00  0.00     0.132 A 
HETATM   11  N   UNL     1     -39.468 -53.057  14.042  1.00  0.00    -0.372 N 
HETATM   12  C   UNL     1     -38.694 -51.970  13.844  1.00  0.00     0.090 A 
ATOM     13  HN  UNL     1     -39.245 -53.756  14.751  1.00  0.00     0.164 HD
HETATM   14  C   UNL     1     -38.957 -50.998  12.892  1.00  0.00     0.050 A 
ENDBRANCH   1   7
BRANCH   4  15
HETATM   15  C   UNL     1     -42.491 -47.372  10.122  1.00  0.00     0.127 C 
BRANCH  15  16
HETATM   16  C   UNL     1     -41.777 -46.026  10.131  1.00  0.00     0.051 C 
BRANCH  16  17
HETATM   17  C   UNL     1     -42.075 -45.280  11.446  1.00  0.00     0.123 C 
HETATM   18  C   UNL     1     -41.929 -43.761  11.334  1.00  0.00     0.032 C 
HETATM   19  C   UNL     1     -40.467 -43.342  11.241  1.00  0.00     0.004 C 
HETATM   20  C   UNL     1     -39.662 -43.966  12.375  1.00  0.00     0.026 C 
HETATM   21  C   UNL     1     -39.900 -45.467  12.462  1.00  0.00     0.168 C 
HETATM   22  O   UNL     1     -41.290 -45.772  12.539  1.00  0.00    -0.386 OA
ENDBRANCH  16  17
ENDBRANCH  15  16
ENDBRANCH   4  15
TORSDOF 4
ENDMDL
MODEL 9
REMARK VINA RESULT:      -5.2      3.722      4.502
REMARK  4 active torsions:
REMARK  status: ('A' for Active; 'I' for Inactive)
REMARK    1  A    between atoms: C_8  and  N_9 
REMARK       I    between atoms: N_9  and  C_10 
REMARK       I    between atoms: C_10  and  N_12 
REMARK    2  A    between atoms: N_12  and  C_13 
REMARK    3  A    between atoms: C_13  and  C_14 
REMARK    4  A    between atoms: C_14  and  C_15 
ROOT
HETATM    1  N   UNL     1     -40.147 -50.992  11.667  1.00  0.00    -0.306 N 
HETATM    2  C   UNL     1     -41.117 -50.018  11.606  1.00  0.00     0.320 C 
HETATM    3  O   UNL     1     -42.051 -49.905  12.391  1.00  0.00    -0.247 OA
HETATM    4  N   UNL     1     -40.975 -49.167  10.528  1.00  0.00    -0.343 N 
HETATM    5  H   UNL     1     -39.294 -50.852  11.143  1.00  0.00     0.171 HD
HETATM    6  H   UNL     1     -40.033 -48.993  10.212  1.00  0.00     0.164 HD
ENDROOT
BRANCH   1   7
HETATM    7  C   UNL     1     -40.160 -52.073  12.588  1.00  0.00     0.077 A 
HETATM    8  C   UNL     1     -39.340 -52.020  13.713  1.00  0.00     0.158 A 
HETATM    9  F   UNL     1     -38.543 -50.963  13.933  1.00  0.00    -0.202 F 
HETATM   10  C   UNL     1     -39.380 -53.066  14.623  1.00  0.00     0.132 A 
HETATM   11  N   UNL     1     -40.163 -54.162  14.480  1.00  0.00    -0.372 N 
HETATM   12  C   UNL     1     -40.935 -54.203  13.374  1.00  0.00     0.090 A 
ATOM     13  HN  UNL     1     -40.168 -54.915  15.169  1.00  0.00     0.164 HD
HETATM   14  C   UNL     1     -40.961 -53.203  12.414  1.00  0.00     0.050 A 
ENDBRANCH   1   7
BRANCH   4  15
HETATM   15  C   UNL     1     -41.919 -48.063  10.434  1.00  0.00     0.127 C 
BRANCH  15  16
HETATM   16  C   UNL     1     -41.483 -46.823  11.204  1.00  0.00     0.051 C 
BRANCH  16  17
HETATM   17  C   UNL     1     -41.162 -45.679  10.223  1.00  0.00     0.123 C 
HETATM   18  C   UNL     1     -39.777 -45.064  10.432  1.00  0.00     0.032 C 
HETATM   19  C   UNL     1     -39.724 -44.212  11.694  1.00  0.00     0.004 C 
HETATM   20  C   UNL     1     -40.865 -43.201  11.701  1.00  0.00     0.026 C 
HETATM   21  C   UNL     1     -42.203 -43.874  11.430  1.00  0.00     0.168 C 
HETATM   22  O   UNL     1     -42.164 -44.655  10.238  1.00  0.00    -0.386 OA
ENDBRANCH  16  17
ENDBRANCH  15  16
ENDBRANCH   4  15
TORSDOF 4
ENDMDL
