MODEL 1
REMARK VINA RESULT:      -5.9      0.000      0.000
REMARK  7 active torsions:
REMARK  status: ('A' for Active; 'I' for Inactive)
REMARK    1  A    between atoms: C_2  and  S_3 
REMARK    2  A    between atoms: S_3  and  C_4 
REMARK    3  A    between atoms: C_4  and  C_5 
REMARK    4  A    between atoms: C_5  and  C_6 
REMARK       I    between atoms: C_6  and  N_8 
REMARK    5  A    between atoms: N_8  and  C_9 
REMARK    6  A    between atoms: C_9  and  C_10 
REMARK    7  A    between atoms: C_15  and  N_17 
ROOT
HETATM    1  C   UNL     1     -41.490 -52.055  12.412  1.00  0.00    -0.036 A 
HETATM    2  C   UNL     1     -40.650 -53.006  12.978  1.00  0.00     0.026 A 
HETATM    3  C   UNL     1     -41.230 -54.139  13.506  1.00  0.00     0.090 A 
HETATM    4  N   UNL     1     -42.562 -54.376  13.510  1.00  0.00    -0.352 N 
ATOM      5  HN  UNL     1     -42.928 -55.239  13.910  1.00  0.00     0.166 HD
HETATM    6  C   UNL     1     -43.406 -53.462  12.981  1.00  0.00     0.103 A 
HETATM    7  C   UNL     1     -42.878 -52.285  12.442  1.00  0.00     0.057 A 
ENDROOT
BRANCH   1   8
HETATM    8  C   UNL     1     -40.936 -50.809  11.782  1.00  0.00     0.161 C 
BRANCH   8   9
HETATM    9  N   UNL     1     -41.969 -49.854  11.457  1.00  0.00    -0.357 N 
HETATM   10  C   UNL     1     -41.656 -48.513  11.389  1.00  0.00     0.218 C 
HETATM   11  O   UNL     1     -40.541 -48.074  11.655  1.00  0.00    -0.274 OA
HETATM   12  H   UNL     1     -42.820 -50.191  11.025  1.00  0.00     0.162 HD
BRANCH  10  13
HETATM   13  C   UNL     1     -42.790 -47.611  10.955  1.00  0.00     0.113 C 
BRANCH  13  14
HETATM   14  C   UNL     1     -42.982 -47.671   9.446  1.00  0.00     0.083 C 
BRANCH  14  15
HETATM   15  S   UNL     1     -44.402 -46.639   8.960  1.00  0.00    -0.169 SA
BRANCH  15  16
HETATM   16  C   UNL     1     -45.531 -47.958   8.419  1.00  0.00     0.069 C 
HETATM   17  C   UNL     1     -46.863 -47.825   9.135  1.00  0.00     0.016 C 
ENDBRANCH  15  16
ENDBRANCH  14  15
ENDBRANCH  13  14
ENDBRANCH  10  13
ENDBRANCH   8   9
ENDBRANCH   1   8
BRANCH   6  18
HETATM   18  N   UNL     1     -44.759 -53.719  13.036  1.00  0.00    -0.363 N 
HETATM   19  C   UNL     1     -45.715 -52.655  12.676  1.00  0.00     0.150 C 
HETATM   20  C   UNL     1     -46.538 -52.235  13.906  1.00  0.00     0.187 C 
HETATM   21  O   UNL     1     -47.182 -53.362  14.528  1.00  0.00    -0.388 OA
HETATM   22  C   UNL     1     -46.201 -54.326  14.940  1.00  0.00     0.187 C 
HETATM   23  C   UNL     1     -45.383 -54.842  13.745  1.00  0.00     0.150 C 
ENDBRANCH   6  18
TORSDOF 7
ENDMDL
MODEL 2
REMARK VINA RESULT:      -5.5      1.583      2.429
REMARK  7 active torsions:
REMARK  status: ('A' for Active; 'I' for Inactive)
REMARK    1  A    between atoms: C_2  and  S_3 
REMARK    2  A    between atoms: S_3  and  C_4 
REMARK    3  A    between atoms: C_4  and  C_5 
REMARK    4  A    between atoms: C_5  and  C_6 
REMARK       I    between atoms: C_6  and  N_8 
REMARK    5  A    between atoms: N_8  and  C_9 
REMARK    6  A    between atoms: C_9  and  C_10 
REMARK    7  A    between atoms: C_15  and  N_17 
ROOT
HETATM    1  C   UNL     1     -41.418 -52.167  12.450  1.00  0.00    -0.036 A 
HETATM    2  C   UNL     1     -40.605 -53.104  13.076  1.00  0.00     0.026 A 
HETATM    3  C   UNL     1     -41.214 -54.206  13.637  1.00  0.00     0.090 A 
HETATM    4  N   UNL     1     -42.549 -54.424  13.619  1.00  0.00    -0.352 N 
ATOM      5  HN  UNL     1     -42.937 -55.265  14.046  1.00  0.00     0.166 HD
HETATM    6  C   UNL     1     -43.367 -53.522  13.031  1.00  0.00     0.103 A 
HETATM    7  C   UNL     1     -42.809 -52.377  12.457  1.00  0.00     0.057 A 
ENDROOT
BRANCH   1   8
HETATM    8  C   UNL     1     -40.831 -50.957  11.782  1.00  0.00     0.161 C 
BRANCH   8   9
HETATM    9  N   UNL     1     -41.835 -49.972  11.454  1.00  0.00    -0.357 N 
HETATM   10  C   UNL     1     -41.455 -48.667  11.224  1.00  0.00     0.218 C 
HETATM   11  O   UNL     1     -40.297 -48.278  11.346  1.00  0.00    -0.274 OA
HETATM   12  H   UNL     1     -42.739 -50.292  11.134  1.00  0.00     0.162 HD
BRANCH  10  13
HETATM   13  C   UNL     1     -42.571 -47.739  10.802  1.00  0.00     0.113 C 
BRANCH  13  14
HETATM   14  C   UNL     1     -42.012 -46.424  10.277  1.00  0.00     0.083 C 
BRANCH  14  15
HETATM   15  S   UNL     1     -42.097 -45.150  11.576  1.00  0.00    -0.169 SA
BRANCH  15  16
HETATM   16  C   UNL     1     -40.687 -44.127  11.054  1.00  0.00     0.069 C 
HETATM   17  C   UNL     1     -39.703 -44.967  10.261  1.00  0.00     0.016 C 
ENDBRANCH  15  16
ENDBRANCH  14  15
ENDBRANCH  13  14
ENDBRANCH  10  13
ENDBRANCH   8   9
ENDBRANCH   1   8
BRANCH   6  18
HETATM   18  N   UNL     1     -44.725 -53.758  13.064  1.00  0.00    -0.363 N 
HETATM   19  C   UNL     1     -45.658 -52.678  12.695  1.00  0.00     0.150 C 
HETATM   20  C   UNL     1     -46.493 -52.251  13.914  1.00  0.00     0.187 C 
HETATM   21  O   UNL     1     -47.164 -53.370  14.520  1.00  0.00    -0.388 OA
HETATM   22  C   UNL     1     -46.205 -54.352  14.944  1.00  0.00     0.187 C 
HETATM   23  C   UNL     1     -45.377 -54.875  13.758  1.00  0.00     0.150 C 
ENDBRANCH   6  18
TORSDOF 7
ENDMDL
MODEL 3
REMARK VINA RESULT:      -5.4      3.140      7.179
REMARK  7 active torsions:
REMARK  status: ('A' for Active; 'I' for Inactive)
REMARK    1  A    between atoms: C_2  and  S_3 
REMARK    2  A    between atoms: S_3  and  C_4 
REMARK    3  A    between atoms: C_4  and  C_5 
REMARK    4  A    between atoms: C_5  and  C_6 
REMARK       I    between atoms: C_6  and  N_8 
REMARK    5  A    between atoms: N_8  and  C_9 
REMARK    6  A    between atoms: C_9  and  C_10 
REMARK    7  A    between atoms: C_15  and  N_17 
ROOT
HETATM    1  C   UNL     1     -42.496 -49.708  12.801  1.00  0.00    -0.036 A 
HETATM    2  C   UNL     1     -41.418 -50.547  12.545  1.00  0.00     0.026 A 
HETATM    3  C   UNL     1     -40.648 -50.277  11.435  1.00  0.00     0.090 A 
HETATM    4  N   UNL     1     -40.881 -49.253  10.582  1.00  0.00    -0.352 N 
ATOM      5  HN  UNL     1     -40.268 -49.103   9.782  1.00  0.00     0.166 HD
HETATM    6  C   UNL     1     -41.932 -48.430  10.796  1.00  0.00     0.103 A 
HETATM    7  C   UNL     1     -42.759 -48.661  11.899  1.00  0.00     0.057 A 
ENDROOT
BRANCH   1   8
HETATM    8  C   UNL     1     -43.364 -49.911  14.010  1.00  0.00     0.161 C 
BRANCH   8   9
HETATM    9  N   UNL     1     -44.536 -50.703  13.716  1.00  0.00    -0.357 N 
HETATM   10  C   UNL     1     -45.401 -51.038  14.734  1.00  0.00     0.218 C 
HETATM   11  O   UNL     1     -45.194 -50.747  15.909  1.00  0.00    -0.274 OA
HETATM   12  H   UNL     1     -44.847 -50.766  12.755  1.00  0.00     0.162 HD
BRANCH  10  13
HETATM   13  C   UNL     1     -46.640 -51.790  14.303  1.00  0.00     0.113 C 
BRANCH  13  14
HETATM   14  C   UNL     1     -46.268 -53.026  13.496  1.00  0.00     0.083 C 
BRANCH  14  15
HETATM   15  S   UNL     1     -45.664 -54.335  14.610  1.00  0.00    -0.169 SA
BRANCH  15  16
HETATM   16  C   UNL     1     -43.899 -54.277  14.174  1.00  0.00     0.069 C 
HETATM   17  C   UNL     1     -43.114 -55.222  15.065  1.00  0.00     0.016 C 
ENDBRANCH  15  16
ENDBRANCH  14  15
ENDBRANCH  13  14
ENDBRANCH  10  13
ENDBRANCH   8   9
ENDBRANCH   1   8
BRANCH   6  18
HETATM   18  N   UNL     1     -42.162 -47.420   9.887  1.00  0.00    -0.363 N 
HETATM   19  C   UNL     1     -41.665 -46.061  10.170  1.00  0.00     0.150 C 
HETATM   20  C   UNL     1     -42.843 -45.090  10.365  1.00  0.00     0.187 C 
HETATM   21  O   UNL     1     -43.749 -45.119   9.248  1.00  0.00    -0.388 OA
HETATM   22  C   UNL     1     -44.273 -46.445   9.071  1.00  0.00     0.187 C 
HETATM   23  C   UNL     1     -43.151 -47.461   8.804  1.00  0.00     0.150 C 
ENDBRANCH   6  18
TORSDOF 7
ENDMDL
MODEL 4
REMARK VINA RESULT:      -5.4      3.021      6.710
REMARK  7 active torsions:
REMARK  status: ('A' for Active; 'I' for Inactive)
REMARK    1  A    between atoms: C_2  and  S_3 
REMARK    2  A    between atoms: S_3  and  C_4 
REMARK    3  A    between atoms: C_4  and  C_5 
REMARK    4  A    between atoms: C_5  and  C_6 
REMARK       I    between atoms: C_6  and  N_8 
REMARK    5  A    between atoms: N_8  and  C_9 
REMARK    6  A    between atoms: C_9  and  C_10 
REMARK    7  A    between atoms: C_15  and  N_17 
ROOT
HETATM    1  C   UNL     1     -40.377 -51.432  12.399  1.00  0.00    -0.036 A 
HETATM    2  C   UNL     1     -39.499 -51.104  13.424  1.00  0.00     0.026 A 
HETATM    3  C   UNL     1     -39.171 -49.775  13.585  1.00  0.00     0.090 A 
HETATM    4  N   UNL     1     -39.648 -48.777  12.805  1.00  0.00    -0.352 N 
ATOM      5  HN  UNL     1     -39.372 -47.812  12.982  1.00  0.00     0.166 HD
HETATM    6  C   UNL     1     -40.492 -49.067  11.790  1.00  0.00     0.103 A 
HETATM    7  C   UNL     1     -40.851 -50.400  11.568  1.00  0.00     0.057 A 
ENDROOT
BRANCH   1   8
HETATM    8  C   UNL     1     -40.814 -52.852  12.178  1.00  0.00     0.161 C 
BRANCH   8   9
HETATM    9  N   UNL     1     -42.249 -52.971  12.059  1.00  0.00    -0.357 N 
HETATM   10  C   UNL     1     -42.949 -53.696  12.998  1.00  0.00     0.218 C 
HETATM   11  O   UNL     1     -42.403 -54.307  13.912  1.00  0.00    -0.274 OA
HETATM   12  H   UNL     1     -42.740 -52.315  11.466  1.00  0.00     0.162 HD
BRANCH  10  13
HETATM   13  C   UNL     1     -44.451 -53.683  12.829  1.00  0.00     0.113 C 
BRANCH  13  14
HETATM   14  C   UNL     1     -45.095 -54.811  13.622  1.00  0.00     0.083 C 
BRANCH  14  15
HETATM   15  S   UNL     1     -46.305 -54.129  14.801  1.00  0.00    -0.169 SA
BRANCH  15  16
HETATM   16  C   UNL     1     -46.645 -52.549  13.967  1.00  0.00     0.069 C 
HETATM   17  C   UNL     1     -46.799 -51.443  14.994  1.00  0.00     0.016 C 
ENDBRANCH  15  16
ENDBRANCH  14  15
ENDBRANCH  13  14
ENDBRANCH  10  13
ENDBRANCH   8   9
ENDBRANCH   1   8
BRANCH   6  18
HETATM   18  N   UNL     1     -40.928 -48.031  10.992  1.00  0.00    -0.363 N 
HETATM   19  C   UNL     1     -40.361 -46.683  11.180  1.00  0.00     0.150 C 
HETATM   20  C   UNL     1     -41.442 -45.712  11.686  1.00  0.00     0.187 C 
HETATM   21  O   UNL     1     -42.597 -45.705  10.828  1.00  0.00    -0.388 OA
HETATM   22  C   UNL     1     -43.164 -47.023  10.752  1.00  0.00     0.187 C 
HETATM   23  C   UNL     1     -42.155 -48.036  10.188  1.00  0.00     0.150 C 
ENDBRANCH   6  18
TORSDOF 7
ENDMDL
MODEL 5
REMARK VINA RESULT:      -5.3      3.385      6.695
REMARK  7 active torsions:
REMARK  status: ('A' for Active; 'I' for Inactive)
REMARK    1  A    between atoms: C_2  and  S_3 
REMARK    2  A    between atoms: S_3  and  C_4 
REMARK    3  A    between atoms: C_4  and  C_5 
REMARK    4  A    between atoms: C_5  and  C_6 
REMARK       I    between atoms: C_6  and  N_8 
REMARK    5  A    between atoms: N_8  and  C_9 
REMARK    6  A    between atoms: C_9  and  C_10 
REMARK    7  A    between atoms: C_15  and  N_17 
ROOT
HETATM    1  C   UNL     1     -38.692 -50.821  13.242  1.00  0.00    -0.036 A 
HETATM    2  C   UNL     1     -37.551 -50.922  12.455  1.00  0.00     0.026 A 
HETATM    3  C   UNL     1     -37.432 -50.061  11.386  1.00  0.00     0.090 A 
HETATM    4  N   UNL     1     -38.359 -49.132  11.056  1.00  0.00    -0.352 N 
ATOM      5  HN  UNL     1     -38.207 -48.519  10.255  1.00  0.00     0.166 HD
HETATM    6  C   UNL     1     -39.486 -49.020  11.793  1.00  0.00     0.103 A 
HETATM    7  C   UNL     1     -39.670 -49.875  12.883  1.00  0.00     0.057 A 
ENDROOT
BRANCH   1   8
HETATM    8  C   UNL     1     -38.881 -51.697  14.447  1.00  0.00     0.161 C 
BRANCH   8   9
HETATM    9  N   UNL     1     -40.160 -52.368  14.439  1.00  0.00    -0.357 N 
HETATM   10  C   UNL     1     -40.239 -53.671  13.998  1.00  0.00     0.218 C 
HETATM   11  O   UNL     1     -39.276 -54.281  13.544  1.00  0.00    -0.274 OA
HETATM   12  H   UNL     1     -40.910 -51.984  14.999  1.00  0.00     0.162 HD
BRANCH  10  13
HETATM   13  C   UNL     1     -41.606 -54.306  14.115  1.00  0.00     0.113 C 
BRANCH  13  14
HETATM   14  C   UNL     1     -42.576 -53.693  13.115  1.00  0.00     0.083 C 
BRANCH  14  15
HETATM   15  S   UNL     1     -43.882 -52.780  13.997  1.00  0.00    -0.169 SA
BRANCH  15  16
HETATM   16  C   UNL     1     -45.331 -53.656  13.331  1.00  0.00     0.069 C 
HETATM   17  C   UNL     1     -45.321 -55.100  13.795  1.00  0.00     0.016 C 
ENDBRANCH  15  16
ENDBRANCH  14  15
ENDBRANCH  13  14
ENDBRANCH  10  13
ENDBRANCH   8   9
ENDBRANCH   1   8
BRANCH   6  18
HETATM   18  N   UNL     1     -40.425 -48.088  11.406  1.00  0.00    -0.363 N 
HETATM   19  C   UNL     1     -40.462 -46.774  12.075  1.00  0.00     0.150 C 
HETATM   20  C   UNL     1     -41.772 -46.613  12.866  1.00  0.00     0.187 C 
HETATM   21  O   UNL     1     -42.927 -46.838  12.039  1.00  0.00    -0.388 OA
HETATM   22  C   UNL     1     -42.887 -48.163  11.484  1.00  0.00     0.187 C 
HETATM   23  C   UNL     1     -41.632 -48.372  10.621  1.00  0.00     0.150 C 
ENDBRANCH   6  18
TORSDOF 7
ENDMDL
MODEL 6
REMARK VINA RESULT:      -5.2      4.589      7.378
REMARK  7 active torsions:
REMARK  status: ('A' for Active; 'I' for Inactive)
REMARK    1  A    between atoms: C_2  and  S_3 
REMARK    2  A    between atoms: S_3  and  C_4 
REMARK    3  A    between atoms: C_4  and  C_5 
REMARK    4  A    between atoms: C_5  and  C_6 
REMARK       I    between atoms: C_6  and  N_8 
REMARK    5  A    between atoms: N_8  and  C_9 
REMARK    6  A    between atoms: C_9  and  C_10 
REMARK    7  A    between atoms: C_15  and  N_17 
ROOT
HETATM    1  C   UNL     1     -41.072 -53.846  13.755  1.00  0.00    -0.036 A 
HETATM    2  C   UNL     1     -40.643 -53.004  12.735  1.00  0.00     0.026 A 
HETATM    3  C   UNL     1     -41.601 -52.473  11.899  1.00  0.00     0.090 A 
HETATM    4  N   UNL     1     -42.926 -52.726  12.008  1.00  0.00    -0.352 N 
ATOM      5  HN  UNL     1     -43.585 -52.295  11.360  1.00  0.00     0.166 HD
HETATM    6  C   UNL     1     -43.371 -53.554  12.980  1.00  0.00     0.103 A 
HETATM    7  C   UNL     1     -42.445 -54.134  13.851  1.00  0.00     0.057 A 
ENDROOT
BRANCH   1   8
HETATM    8  C   UNL     1     -40.096 -54.437  14.732  1.00  0.00     0.161 C 
BRANCH   8   9
HETATM    9  N   UNL     1     -40.755 -55.165  15.791  1.00  0.00    -0.357 N 
HETATM   10  C   UNL     1     -40.049 -56.106  16.508  1.00  0.00     0.218 C 
HETATM   11  O   UNL     1     -38.888 -56.408  16.249  1.00  0.00    -0.274 OA
HETATM   12  H   UNL     1     -41.618 -54.793  16.168  1.00  0.00     0.162 HD
BRANCH  10  13
HETATM   13  C   UNL     1     -40.808 -56.744  17.650  1.00  0.00     0.113 C 
BRANCH  13  14
HETATM   14  C   UNL     1     -40.408 -56.121  18.980  1.00  0.00     0.083 C 
BRANCH  14  15
HETATM   15  S   UNL     1     -41.715 -54.987  19.551  1.00  0.00    -0.169 SA
BRANCH  15  16
HETATM   16  C   UNL     1     -43.155 -55.843  18.842  1.00  0.00     0.069 C 
HETATM   17  C   UNL     1     -43.806 -56.719  19.895  1.00  0.00     0.016 C 
ENDBRANCH  15  16
ENDBRANCH  14  15
ENDBRANCH  13  14
ENDBRANCH  10  13
ENDBRANCH   8   9
ENDBRANCH   1   8
BRANCH   6  18
HETATM   18  N   UNL     1     -44.723 -53.819  13.038  1.00  0.00    -0.363 N 
HETATM   19  C   UNL     1     -45.685 -52.773  12.643  1.00  0.00     0.150 C 
HETATM   20  C   UNL     1     -46.516 -52.323  13.857  1.00  0.00     0.187 C 
HETATM   21  O   UNL     1     -47.153 -53.435  14.510  1.00  0.00    -0.388 OA
HETATM   22  C   UNL     1     -46.167 -54.380  14.955  1.00  0.00     0.187 C 
HETATM   23  C   UNL     1     -45.341 -54.925  13.778  1.00  0.00     0.150 C 
ENDBRANCH   6  18
TORSDOF 7
ENDMDL
MODEL 7
REMARK VINA RESULT:      -5.2      5.184      8.222
REMARK  7 active torsions:
REMARK  status: ('A' for Active; 'I' for Inactive)
REMARK    1  A    between atoms: C_2  and  S_3 
REMARK    2  A    between atoms: S_3  and  C_4 
REMARK    3  A    between atoms: C_4  and  C_5 
REMARK    4  A    between atoms: C_5  and  C_6 
REMARK       I    between atoms: C_6  and  N_8 
REMARK    5  A    between atoms: N_8  and  C_9 
REMARK    6  A    between atoms: C_9  and  C_10 
REMARK    7  A    between atoms: C_15  and  N_17 
ROOT
HETATM    1  C   UNL     1     -41.071 -53.689  13.706  1.00  0.00    -0.036 A 
HETATM    2  C   UNL     1     -40.637 -52.899  12.648  1.00  0.00     0.026 A 
HETATM    3  C   UNL     1     -41.590 -52.409  11.782  1.00  0.00     0.090 A 
HETATM    4  N   UNL     1     -42.916 -52.654  11.898  1.00  0.00    -0.352 N 
ATOM      5  HN  UNL     1     -43.571 -52.255  11.227  1.00  0.00     0.166 HD
HETATM    6  C   UNL     1     -43.367 -53.432  12.908  1.00  0.00     0.103 A 
HETATM    7  C   UNL     1     -42.445 -53.969  13.810  1.00  0.00     0.057 A 
ENDROOT
BRANCH   1   8
HETATM    8  C   UNL     1     -40.100 -54.232  14.715  1.00  0.00     0.161 C 
BRANCH   8   9
HETATM    9  N   UNL     1     -40.758 -54.986  15.756  1.00  0.00    -0.357 N 
HETATM   10  C   UNL     1     -40.072 -55.992  16.401  1.00  0.00     0.218 C 
HETATM   11  O   UNL     1     -38.933 -56.328  16.091  1.00  0.00    -0.274 OA
HETATM   12  H   UNL     1     -41.593 -54.600  16.178  1.00  0.00     0.162 HD
BRANCH  10  13
HETATM   13  C   UNL     1     -40.823 -56.657  17.532  1.00  0.00     0.113 C 
BRANCH  13  14
HETATM   14  C   UNL     1     -40.123 -56.417  18.862  1.00  0.00     0.083 C 
BRANCH  14  15
HETATM   15  S   UNL     1     -40.022 -57.976  19.800  1.00  0.00    -0.169 SA
BRANCH  15  16
HETATM   16  C   UNL     1     -39.137 -58.983  18.570  1.00  0.00     0.069 C 
HETATM   17  C   UNL     1     -38.119 -59.870  19.263  1.00  0.00     0.016 C 
ENDBRANCH  15  16
ENDBRANCH  14  15
ENDBRANCH  13  14
ENDBRANCH  10  13
ENDBRANCH   8   9
ENDBRANCH   1   8
BRANCH   6  18
HETATM   18  N   UNL     1     -44.719 -53.691  12.973  1.00  0.00    -0.363 N 
HETATM   19  C   UNL     1     -45.680 -52.618  12.660  1.00  0.00     0.150 C 
HETATM   20  C   UNL     1     -46.487 -52.237  13.913  1.00  0.00     0.187 C 
HETATM   21  O   UNL     1     -47.121 -53.384  14.508  1.00  0.00    -0.388 OA
HETATM   22  C   UNL     1     -46.134 -54.360  14.877  1.00  0.00     0.187 C 
HETATM   23  C   UNL     1     -45.332 -54.837  13.655  1.00  0.00     0.150 C 
ENDBRANCH   6  18
TORSDOF 7
ENDMDL
MODEL 8
REMARK VINA RESULT:      -5.1      2.848      3.465
REMARK  7 active torsions:
REMARK  status: ('A' for Active; 'I' for Inactive)
REMARK    1  A    between atoms: C_2  and  S_3 
REMARK    2  A    between atoms: S_3  and  C_4 
REMARK    3  A    between atoms: C_4  and  C_5 
REMARK    4  A    between atoms: C_5  and  C_6 
REMARK       I    between atoms: C_6  and  N_8 
REMARK    5  A    between atoms: N_8  and  C_9 
REMARK    6  A    between atoms: C_9  and  C_10 
REMARK    7  A    between atoms: C_15  and  N_17 
ROOT
HETATM    1  C   UNL     1     -40.508 -53.736  14.482  1.00  0.00    -0.036 A 
HETATM    2  C   UNL     1     -40.449 -54.594  15.574  1.00  0.00     0.026 A 
HETATM    3  C   UNL     1     -41.590 -55.296  15.899  1.00  0.00     0.090 A 
HETATM    4  N   UNL     1     -42.759 -55.196  15.223  1.00  0.00    -0.352 N 
ATOM      5  HN  UNL     1     -43.565 -55.749  15.510  1.00  0.00     0.166 HD
HETATM    6  C   UNL     1     -42.851 -54.358  14.166  1.00  0.00     0.103 A 
HETATM    7  C   UNL     1     -41.730 -53.608  13.798  1.00  0.00     0.057 A 
ENDROOT
BRANCH   1   8
HETATM    8  C   UNL     1     -39.299 -52.962  14.041  1.00  0.00     0.161 C 
BRANCH   8   9
HETATM    9  N   UNL     1     -39.652 -51.764  13.315  1.00  0.00    -0.357 N 
HETATM   10  C   UNL     1     -38.675 -51.075  12.629  1.00  0.00     0.218 C 
HETATM   11  O   UNL     1     -37.491 -51.396  12.653  1.00  0.00    -0.274 OA
HETATM   12  H   UNL     1     -40.626 -51.602  13.095  1.00  0.00     0.162 HD
BRANCH  10  13
HETATM   13  C   UNL     1     -39.168 -49.888  11.833  1.00  0.00     0.113 C 
BRANCH  13  14
HETATM   14  C   UNL     1     -40.644 -50.037  11.494  1.00  0.00     0.083 C 
BRANCH  14  15
HETATM   15  S   UNL     1     -41.344 -48.417  11.042  1.00  0.00    -0.169 SA
BRANCH  15  16
HETATM   16  C   UNL     1     -39.940 -47.365  11.523  1.00  0.00     0.069 C 
HETATM   17  C   UNL     1     -40.032 -46.025  10.817  1.00  0.00     0.016 C 
ENDBRANCH  15  16
ENDBRANCH  14  15
ENDBRANCH  13  14
ENDBRANCH  10  13
ENDBRANCH   8   9
ENDBRANCH   1   8
BRANCH   6  18
HETATM   18  N   UNL     1     -44.067 -54.253  13.525  1.00  0.00    -0.363 N 
HETATM   19  C   UNL     1     -44.273 -53.183  12.532  1.00  0.00     0.150 C 
HETATM   20  C   UNL     1     -45.333 -52.186  13.031  1.00  0.00     0.187 C 
HETATM   21  O   UNL     1     -46.561 -52.846  13.387  1.00  0.00    -0.388 OA
HETATM   22  C   UNL     1     -46.320 -53.814  14.421  1.00  0.00     0.187 C 
HETATM   23  C   UNL     1     -45.316 -54.885  13.964  1.00  0.00     0.150 C 
ENDBRANCH   6  18
TORSDOF 7
ENDMDL
MODEL 9
REMARK VINA RESULT:      -5.1      3.029      6.249
REMARK  7 active torsions:
REMARK  status: ('A' for Active; 'I' for Inactive)
REMARK    1  A    between atoms: C_2  and  S_3 
REMARK    2  A    between atoms: S_3  and  C_4 
REMARK    3  A    between atoms: C_4  and  C_5 
REMARK    4  A    between atoms: C_5  and  C_6 
REMARK       I    between atoms: C_6  and  N_8 
REMARK    5  A    between atoms: N_8  and  C_9 
REMARK    6  A    between atoms: C_9  and  C_10 
REMARK    7  A    between atoms: C_15  and  N_17 
ROOT
HETATM    1  C   UNL     1     -41.350 -54.626  15.088  1.00  0.00    -0.036 A 
HETATM    2  C   UNL     1     -40.151 -54.990  15.690  1.00  0.00     0.026 A 
HETATM    3  C   UNL     1     -39.013 -54.312  15.311  1.00  0.00     0.090 A 
HETATM    4  N   UNL     1     -38.993 -53.323  14.388  1.00  0.00    -0.352 N 
ATOM      5  HN  UNL     1     -38.117 -52.855  14.158  1.00  0.00     0.166 HD
HETATM    6  C   UNL     1     -40.140 -52.957  13.774  1.00  0.00     0.103 A 
HETATM    7  C   UNL     1     -41.326 -53.618  14.106  1.00  0.00     0.057 A 
ENDROOT
BRANCH   1   8
HETATM    8  C   UNL     1     -42.641 -55.290  15.471  1.00  0.00     0.161 C 
BRANCH   8   9
HETATM    9  N   UNL     1     -43.700 -55.011  14.529  1.00  0.00    -0.357 N 
HETATM   10  C   UNL     1     -44.909 -54.537  14.990  1.00  0.00     0.218 C 
HETATM   11  O   UNL     1     -45.159 -54.395  16.183  1.00  0.00    -0.274 OA
HETATM   12  H   UNL     1     -43.462 -54.906  13.551  1.00  0.00     0.162 HD
BRANCH  10  13
HETATM   13  C   UNL     1     -45.916 -54.195  13.914  1.00  0.00     0.113 C 
BRANCH  13  14
HETATM   14  C   UNL     1     -45.333 -53.195  12.926  1.00  0.00     0.083 C 
BRANCH  14  15
HETATM   15  S   UNL     1     -45.124 -51.575  13.733  1.00  0.00    -0.169 SA
BRANCH  15  16
HETATM   16  C   UNL     1     -46.793 -51.398  14.435  1.00  0.00     0.069 C 
HETATM   17  C   UNL     1     -46.705 -51.207  15.938  1.00  0.00     0.016 C 
ENDBRANCH  15  16
ENDBRANCH  14  15
ENDBRANCH  13  14
ENDBRANCH  10  13
ENDBRANCH   8   9
ENDBRANCH   1   8
BRANCH   6  18
HETATM   18  N   UNL     1     -40.076 -51.972  12.812  1.00  0.00    -0.363 N 
HETATM   19  C   UNL     1     -39.006 -50.960  12.880  1.00  0.00     0.150 C 
HETATM   20  C   UNL     1     -39.601 -49.567  13.151  1.00  0.00     0.187 C 
HETATM   21  O   UNL     1     -40.617 -49.225  12.191  1.00  0.00    -0.388 OA
HETATM   22  C   UNL     1     -41.679 -50.193  12.229  1.00  0.00     0.187 C 
HETATM   23  C   UNL     1     -41.164 -51.603  11.899  1.00  0.00     0.150 C 
ENDBRANCH   6  18
TORSDOF 7
ENDMDL
