MODEL 1
REMARK VINA RESULT:      -5.4      0.000      0.000
REMARK  3 active torsions:
REMARK  status: ('A' for Active; 'I' for Inactive)
REMARK       I    between atoms: N_2  and  C_3 
REMARK    1  A    between atoms: C_3  and  C_5 
REMARK    2  A    between atoms: C_10  and  O_11 
REMARK    3  A    between atoms: O_11  and  C_12 
ROOT
HETATM    1  C   UNL     1     -43.223 -46.824   9.748  1.00  0.00     0.037 A 
HETATM    2  C   UNL     1     -42.643 -48.040  10.104  1.00  0.00     0.034 A 
HETATM    3  C   UNL     1     -41.336 -48.027  10.555  1.00  0.00     0.091 A 
HETATM    4  N   UNL     1     -40.597 -46.903  10.678  1.00  0.00    -0.347 N 
ATOM      5  HN  UNL     1     -39.639 -46.929  11.027  1.00  0.00     0.167 HD
HETATM    6  C   UNL     1     -41.184 -45.744  10.317  1.00  0.00     0.143 A 
HETATM    7  C   UNL     1     -42.473 -45.651   9.828  1.00  0.00     0.073 A 
ENDROOT
BRANCH   6   8
HETATM    8  O   UNL     1     -40.479 -44.563  10.408  1.00  0.00    -0.328 OA
BRANCH   8   9
HETATM    9  C   UNL     1     -40.541 -43.967  11.699  1.00  0.00     0.156 C 
HETATM   10  C   UNL     1     -40.604 -42.460  11.554  1.00  0.00     0.061 C 
HETATM   11  C   UNL     1     -40.070 -41.971  12.882  1.00  0.00     0.170 C 
HETATM   12  O   UNL     1     -39.251 -43.013  13.432  1.00  0.00    -0.389 OA
HETATM   13  C   UNL     1     -39.269 -44.118  12.514  1.00  0.00     0.200 C 
ENDBRANCH   8   9
ENDBRANCH   6   8
BRANCH   1  14
HETATM   14  C   UNL     1     -44.628 -46.814   9.276  1.00  0.00     0.251 C 
HETATM   15  N   UNL     1     -45.305 -48.013   9.367  1.00  0.00    -0.361 N 
HETATM   16  C   UNL     1     -46.670 -48.126   8.916  1.00  0.00     0.149 C 
HETATM   17  H   UNL     1     -44.803 -48.864   9.582  1.00  0.00     0.162 HD
HETATM   18  O   UNL     1     -45.111 -45.792   8.808  1.00  0.00    -0.268 OA
ENDBRANCH   1  14
TORSDOF 3
ENDMDL
MODEL 2
REMARK VINA RESULT:      -5.3      3.270      4.856
REMARK  3 active torsions:
REMARK  status: ('A' for Active; 'I' for Inactive)
REMARK       I    between atoms: N_2  and  C_3 
REMARK    1  A    between atoms: C_3  and  C_5 
REMARK    2  A    between atoms: C_10  and  O_11 
REMARK    3  A    between atoms: O_11  and  C_12 
ROOT
HETATM    1  C   UNL     1     -42.356 -46.801  10.128  1.00  0.00     0.037 A 
HETATM    2  C   UNL     1     -41.500 -45.786  10.551  1.00  0.00     0.034 A 
HETATM    3  C   UNL     1     -40.292 -46.151  11.116  1.00  0.00     0.091 A 
HETATM    4  N   UNL     1     -39.894 -47.432  11.272  1.00  0.00    -0.347 N 
ATOM      5  HN  UNL     1     -38.989 -47.664  11.681  1.00  0.00     0.167 HD
HETATM    6  C   UNL     1     -40.749 -48.391  10.861  1.00  0.00     0.143 A 
HETATM    7  C   UNL     1     -41.989 -48.134  10.309  1.00  0.00     0.073 A 
ENDROOT
BRANCH   6   8
HETATM    8  O   UNL     1     -40.405 -49.718  11.002  1.00  0.00    -0.328 OA
BRANCH   8   9
HETATM    9  C   UNL     1     -39.433 -49.946  12.015  1.00  0.00     0.156 C 
HETATM   10  C   UNL     1     -38.072 -50.128  11.375  1.00  0.00     0.061 C 
HETATM   11  C   UNL     1     -37.314 -50.924  12.415  1.00  0.00     0.170 C 
HETATM   12  O   UNL     1     -38.279 -51.616  13.221  1.00  0.00    -0.389 OA
HETATM   13  C   UNL     1     -39.586 -51.274  12.734  1.00  0.00     0.200 C 
ENDBRANCH   8   9
ENDBRANCH   6   8
BRANCH   1  14
HETATM   14  C   UNL     1     -43.649 -46.431   9.505  1.00  0.00     0.251 C 
HETATM   15  N   UNL     1     -44.716 -47.262   9.786  1.00  0.00    -0.361 N 
HETATM   16  C   UNL     1     -46.016 -47.011   9.215  1.00  0.00     0.149 C 
HETATM   17  H   UNL     1     -44.560 -48.148  10.245  1.00  0.00     0.162 HD
HETATM   18  O   UNL     1     -43.718 -45.459   8.765  1.00  0.00    -0.268 OA
ENDBRANCH   1  14
TORSDOF 3
ENDMDL
MODEL 3
REMARK VINA RESULT:      -5.1      6.255      7.423
REMARK  3 active torsions:
REMARK  status: ('A' for Active; 'I' for Inactive)
REMARK       I    between atoms: N_2  and  C_3 
REMARK    1  A    between atoms: C_3  and  C_5 
REMARK    2  A    between atoms: C_10  and  O_11 
REMARK    3  A    between atoms: O_11  and  C_12 
ROOT
HETATM    1  C   UNL     1     -43.182 -53.662  13.259  1.00  0.00     0.037 A 
HETATM    2  C   UNL     1     -42.822 -54.412  14.378  1.00  0.00     0.034 A 
HETATM    3  C   UNL     1     -41.485 -54.452  14.726  1.00  0.00     0.091 A 
HETATM    4  N   UNL     1     -40.514 -53.800  14.051  1.00  0.00    -0.347 N 
ATOM      5  HN  UNL     1     -39.538 -53.841  14.345  1.00  0.00     0.167 HD
HETATM    6  C   UNL     1     -40.894 -53.091  12.969  1.00  0.00     0.143 A 
HETATM    7  C   UNL     1     -42.198 -53.008  12.520  1.00  0.00     0.073 A 
ENDROOT
BRANCH   6   8
HETATM    8  O   UNL     1     -39.949 -52.411  12.231  1.00  0.00    -0.328 OA
BRANCH   8   9
HETATM    9  C   UNL     1     -39.674 -51.107  12.729  1.00  0.00     0.156 C 
HETATM   10  C   UNL     1     -40.023 -50.080  11.672  1.00  0.00     0.061 C 
HETATM   11  C   UNL     1     -39.163 -48.895  12.055  1.00  0.00     0.170 C 
HETATM   12  O   UNL     1     -38.052 -49.393  12.815  1.00  0.00    -0.389 OA
HETATM   13  C   UNL     1     -38.196 -50.817  12.926  1.00  0.00     0.200 C 
ENDBRANCH   8   9
ENDBRANCH   6   8
BRANCH   1  14
HETATM   14  C   UNL     1     -44.613 -53.593  12.877  1.00  0.00     0.251 C 
HETATM   15  N   UNL     1     -45.085 -52.346  12.520  1.00  0.00    -0.361 N 
HETATM   16  C   UNL     1     -46.467 -52.158  12.152  1.00  0.00     0.149 C 
HETATM   17  H   UNL     1     -44.519 -51.525  12.683  1.00  0.00     0.162 HD
HETATM   18  O   UNL     1     -45.309 -54.599  12.922  1.00  0.00    -0.268 OA
ENDBRANCH   1  14
TORSDOF 3
ENDMDL
MODEL 4
REMARK VINA RESULT:      -5.1      7.523      8.966
REMARK  3 active torsions:
REMARK  status: ('A' for Active; 'I' for Inactive)
REMARK       I    between atoms: N_2  and  C_3 
REMARK    1  A    between atoms: C_3  and  C_5 
REMARK    2  A    between atoms: C_10  and  O_11 
REMARK    3  A    between atoms: O_11  and  C_12 
ROOT
HETATM    1  C   UNL     1     -46.033 -52.011  14.762  1.00  0.00     0.037 A 
HETATM    2  C   UNL     1     -46.855 -51.462  13.779  1.00  0.00     0.034 A 
HETATM    3  C   UNL     1     -46.539 -51.713  12.457  1.00  0.00     0.091 A 
HETATM    4  N   UNL     1     -45.488 -52.467  12.068  1.00  0.00    -0.347 N 
ATOM      5  HN  UNL     1     -45.293 -52.642  11.081  1.00  0.00     0.167 HD
HETATM    6  C   UNL     1     -44.707 -52.976  13.042  1.00  0.00     0.143 A 
HETATM    7  C   UNL     1     -44.918 -52.762  14.391  1.00  0.00     0.073 A 
ENDROOT
BRANCH   6   8
HETATM    8  O   UNL     1     -43.613 -53.745  12.709  1.00  0.00    -0.328 OA
BRANCH   8   9
HETATM    9  C   UNL     1     -42.378 -53.190  13.148  1.00  0.00     0.156 C 
HETATM   10  C   UNL     1     -41.968 -52.072  12.212  1.00  0.00     0.061 C 
HETATM   11  C   UNL     1     -40.469 -52.004  12.404  1.00  0.00     0.170 C 
HETATM   12  O   UNL     1     -40.034 -53.286  12.882  1.00  0.00    -0.389 OA
HETATM   13  C   UNL     1     -41.192 -54.126  13.005  1.00  0.00     0.200 C 
ENDBRANCH   8   9
ENDBRANCH   6   8
BRANCH   1  14
HETATM   14  C   UNL     1     -46.362 -51.766  16.187  1.00  0.00     0.251 C 
HETATM   15  N   UNL     1     -47.641 -51.316  16.443  1.00  0.00    -0.361 N 
HETATM   16  C   UNL     1     -48.064 -51.022  17.791  1.00  0.00     0.149 C 
HETATM   17  H   UNL     1     -48.235 -51.017  15.682  1.00  0.00     0.162 HD
HETATM   18  O   UNL     1     -45.511 -51.933  17.051  1.00  0.00    -0.268 OA
ENDBRANCH   1  14
TORSDOF 3
ENDMDL
MODEL 5
REMARK VINA RESULT:      -5.0      7.120      8.563
REMARK  3 active torsions:
REMARK  status: ('A' for Active; 'I' for Inactive)
REMARK       I    between atoms: N_2  and  C_3 
REMARK    1  A    between atoms: C_3  and  C_5 
REMARK    2  A    between atoms: C_10  and  O_11 
REMARK    3  A    between atoms: O_11  and  C_12 
ROOT
HETATM    1  C   UNL     1     -42.490 -54.259  14.068  1.00  0.00     0.037 A 
HETATM    2  C   UNL     1     -43.726 -54.028  13.466  1.00  0.00     0.034 A 
HETATM    3  C   UNL     1     -43.760 -53.214  12.349  1.00  0.00     0.091 A 
HETATM    4  N   UNL     1     -42.664 -52.640  11.807  1.00  0.00    -0.347 N 
ATOM      5  HN  UNL     1     -42.725 -52.055  10.973  1.00  0.00     0.167 HD
HETATM    6  C   UNL     1     -41.486 -52.875  12.418  1.00  0.00     0.143 A 
HETATM    7  C   UNL     1     -41.346 -53.649  13.554  1.00  0.00     0.073 A 
ENDROOT
BRANCH   6   8
HETATM    8  O   UNL     1     -40.332 -52.309  11.919  1.00  0.00    -0.328 OA
BRANCH   8   9
HETATM    9  C   UNL     1     -40.008 -51.062  12.523  1.00  0.00     0.156 C 
HETATM   10  C   UNL     1     -40.061 -49.967  11.478  1.00  0.00     0.061 C 
HETATM   11  C   UNL     1     -39.157 -48.902  12.058  1.00  0.00     0.170 C 
HETATM   12  O   UNL     1     -38.250 -49.547  12.963  1.00  0.00    -0.389 OA
HETATM   13  C   UNL     1     -38.562 -50.949  12.975  1.00  0.00     0.200 C 
ENDBRANCH   8   9
ENDBRANCH   6   8
BRANCH   1  14
HETATM   14  C   UNL     1     -42.430 -55.141  15.258  1.00  0.00     0.251 C 
HETATM   15  N   UNL     1     -41.233 -55.149  15.946  1.00  0.00    -0.361 N 
HETATM   16  C   UNL     1     -41.054 -55.987  17.105  1.00  0.00     0.149 C 
HETATM   17  H   UNL     1     -40.416 -54.708  15.546  1.00  0.00     0.162 HD
HETATM   18  O   UNL     1     -43.394 -55.831  15.560  1.00  0.00    -0.268 OA
ENDBRANCH   1  14
TORSDOF 3
ENDMDL
MODEL 6
REMARK VINA RESULT:      -4.8      3.584      5.053
REMARK  3 active torsions:
REMARK  status: ('A' for Active; 'I' for Inactive)
REMARK       I    between atoms: N_2  and  C_3 
REMARK    1  A    between atoms: C_3  and  C_5 
REMARK    2  A    between atoms: C_10  and  O_11 
REMARK    3  A    between atoms: O_11  and  C_12 
ROOT
HETATM    1  C   UNL     1     -42.619 -50.334  12.657  1.00  0.00     0.037 A 
HETATM    2  C   UNL     1     -41.694 -51.354  12.441  1.00  0.00     0.034 A 
HETATM    3  C   UNL     1     -40.645 -51.103  11.576  1.00  0.00     0.091 A 
HETATM    4  N   UNL     1     -40.463 -49.926  10.939  1.00  0.00    -0.347 N 
ATOM      5  HN  UNL     1     -39.669 -49.771  10.318  1.00  0.00     0.167 HD
HETATM    6  C   UNL     1     -41.381 -48.963  11.163  1.00  0.00     0.143 A 
HETATM    7  C   UNL     1     -42.480 -49.121  11.985  1.00  0.00     0.073 A 
ENDROOT
BRANCH   6   8
HETATM    8  O   UNL     1     -41.258 -47.743  10.534  1.00  0.00    -0.328 OA
BRANCH   8   9
HETATM    9  C   UNL     1     -42.501 -47.077  10.345  1.00  0.00     0.156 C 
HETATM   10  C   UNL     1     -43.079 -47.465   9.000  1.00  0.00     0.061 C 
HETATM   11  C   UNL     1     -43.995 -46.304   8.679  1.00  0.00     0.170 C 
HETATM   12  O   UNL     1     -43.526 -45.164   9.413  1.00  0.00    -0.389 OA
HETATM   13  C   UNL     1     -42.379 -45.573  10.175  1.00  0.00     0.200 C 
ENDBRANCH   8   9
ENDBRANCH   6   8
BRANCH   1  14
HETATM   14  C   UNL     1     -43.744 -50.577  13.592  1.00  0.00     0.251 C 
HETATM   15  N   UNL     1     -44.882 -51.128  13.040  1.00  0.00    -0.361 N 
HETATM   16  C   UNL     1     -46.046 -51.386  13.852  1.00  0.00     0.149 C 
HETATM   17  H   UNL     1     -44.979 -51.190  12.036  1.00  0.00     0.162 HD
HETATM   18  O   UNL     1     -43.641 -50.263  14.771  1.00  0.00    -0.268 OA
ENDBRANCH   1  14
TORSDOF 3
ENDMDL
MODEL 7
REMARK VINA RESULT:      -4.7      7.129      9.942
REMARK  3 active torsions:
REMARK  status: ('A' for Active; 'I' for Inactive)
REMARK       I    between atoms: N_2  and  C_3 
REMARK    1  A    between atoms: C_3  and  C_5 
REMARK    2  A    between atoms: C_10  and  O_11 
REMARK    3  A    between atoms: O_11  and  C_12 
ROOT
HETATM    1  C   UNL     1     -39.205 -52.117  14.075  1.00  0.00     0.037 A 
HETATM    2  C   UNL     1     -38.996 -52.434  15.416  1.00  0.00     0.034 A 
HETATM    3  C   UNL     1     -39.814 -53.389  15.991  1.00  0.00     0.091 A 
HETATM    4  N   UNL     1     -40.795 -54.035  15.323  1.00  0.00    -0.347 N 
ATOM      5  HN  UNL     1     -41.371 -54.745  15.776  1.00  0.00     0.167 HD
HETATM    6  C   UNL     1     -40.977 -53.699  14.030  1.00  0.00     0.143 A 
HETATM    7  C   UNL     1     -40.233 -52.740  13.370  1.00  0.00     0.073 A 
ENDROOT
BRANCH   6   8
HETATM    8  O   UNL     1     -41.968 -54.316  13.297  1.00  0.00    -0.328 OA
BRANCH   8   9
HETATM    9  C   UNL     1     -43.275 -53.848  13.609  1.00  0.00     0.156 C 
HETATM   10  C   UNL     1     -44.083 -54.979  14.212  1.00  0.00     0.061 C 
HETATM   11  C   UNL     1     -45.510 -54.561  13.930  1.00  0.00     0.170 C 
HETATM   12  O   UNL     1     -45.488 -53.672  12.804  1.00  0.00    -0.389 OA
HETATM   13  C   UNL     1     -44.121 -53.515  12.393  1.00  0.00     0.200 C 
ENDBRANCH   8   9
ENDBRANCH   6   8
BRANCH   1  14
HETATM   14  C   UNL     1     -38.328 -51.106  13.436  1.00  0.00     0.251 C 
HETATM   15  N   UNL     1     -38.527 -50.900  12.086  1.00  0.00    -0.361 N 
HETATM   16  C   UNL     1     -37.715 -49.957  11.357  1.00  0.00     0.149 C 
HETATM   17  H   UNL     1     -39.115 -51.530  11.559  1.00  0.00     0.162 HD
HETATM   18  O   UNL     1     -37.469 -50.535  14.094  1.00  0.00    -0.268 OA
ENDBRANCH   1  14
TORSDOF 3
ENDMDL
MODEL 8
REMARK VINA RESULT:      -4.7      7.265      8.387
REMARK  3 active torsions:
REMARK  status: ('A' for Active; 'I' for Inactive)
REMARK       I    between atoms: N_2  and  C_3 
REMARK    1  A    between atoms: C_3  and  C_5 
REMARK    2  A    between atoms: C_10  and  O_11 
REMARK    3  A    between atoms: O_11  and  C_12 
ROOT
HETATM    1  C   UNL     1     -41.707 -54.411  14.636  1.00  0.00     0.037 A 
HETATM    2  C   UNL     1     -40.775 -54.819  15.589  1.00  0.00     0.034 A 
HETATM    3  C   UNL     1     -39.488 -54.323  15.490  1.00  0.00     0.091 A 
HETATM    4  N   UNL     1     -39.089 -53.462  14.530  1.00  0.00    -0.347 N 
ATOM      5  HN  UNL     1     -38.133 -53.106  14.496  1.00  0.00     0.167 HD
HETATM    6  C   UNL     1     -40.011 -53.094  13.618  1.00  0.00     0.143 A 
HETATM    7  C   UNL     1     -41.315 -53.552  13.610  1.00  0.00     0.073 A 
ENDROOT
BRANCH   6   8
HETATM    8  O   UNL     1     -39.663 -52.225  12.606  1.00  0.00    -0.328 OA
BRANCH   8   9
HETATM    9  C   UNL     1     -38.905 -51.108  13.057  1.00  0.00     0.156 C 
HETATM   10  C   UNL     1     -39.814 -49.902  13.186  1.00  0.00     0.061 C 
HETATM   11  C   UNL     1     -38.853 -48.740  13.066  1.00  0.00     0.170 C 
HETATM   12  O   UNL     1     -37.697 -49.205  12.354  1.00  0.00    -0.389 OA
HETATM   13  C   UNL     1     -37.898 -50.593  12.045  1.00  0.00     0.200 C 
ENDBRANCH   8   9
ENDBRANCH   6   8
BRANCH   1  14
HETATM   14  C   UNL     1     -43.096 -54.919  14.733  1.00  0.00     0.251 C 
HETATM   15  N   UNL     1     -43.977 -54.458  13.776  1.00  0.00    -0.361 N 
HETATM   16  C   UNL     1     -45.360 -54.868  13.788  1.00  0.00     0.149 C 
HETATM   17  H   UNL     1     -43.712 -53.695  13.169  1.00  0.00     0.162 HD
HETATM   18  O   UNL     1     -43.411 -55.675  15.642  1.00  0.00    -0.268 OA
ENDBRANCH   1  14
TORSDOF 3
ENDMDL
MODEL 9
REMARK VINA RESULT:      -4.6      4.983      7.040
REMARK  3 active torsions:
REMARK  status: ('A' for Active; 'I' for Inactive)
REMARK       I    between atoms: N_2  and  C_3 
REMARK    1  A    between atoms: C_3  and  C_5 
REMARK    2  A    between atoms: C_10  and  O_11 
REMARK    3  A    between atoms: O_11  and  C_12 
ROOT
HETATM    1  C   UNL     1     -40.758 -48.529  11.402  1.00  0.00     0.037 A 
HETATM    2  C   UNL     1     -39.715 -47.852  12.032  1.00  0.00     0.034 A 
HETATM    3  C   UNL     1     -38.753 -48.604  12.679  1.00  0.00     0.091 A 
HETATM    4  N   UNL     1     -38.762 -49.954  12.725  1.00  0.00    -0.347 N 
ATOM      5  HN  UNL     1     -38.026 -50.477  13.201  1.00  0.00     0.167 HD
HETATM    6  C   UNL     1     -39.788 -50.578  12.114  1.00  0.00     0.143 A 
HETATM    7  C   UNL     1     -40.815 -49.921  11.464  1.00  0.00     0.073 A 
ENDROOT
BRANCH   6   8
HETATM    8  O   UNL     1     -39.860 -51.954  12.134  1.00  0.00    -0.328 OA
BRANCH   8   9
HETATM    9  C   UNL     1     -40.547 -52.467  13.270  1.00  0.00     0.156 C 
HETATM   10  C   UNL     1     -39.642 -53.428  14.013  1.00  0.00     0.061 C 
HETATM   11  C   UNL     1     -40.622 -54.305  14.761  1.00  0.00     0.170 C 
HETATM   12  O   UNL     1     -41.873 -54.255  14.060  1.00  0.00    -0.389 OA
HETATM   13  C   UNL     1     -41.710 -53.383  12.930  1.00  0.00     0.200 C 
ENDBRANCH   8   9
ENDBRANCH   6   8
BRANCH   1  14
HETATM   14  C   UNL     1     -41.793 -47.742  10.690  1.00  0.00     0.251 C 
HETATM   15  N   UNL     1     -42.285 -48.300   9.527  1.00  0.00    -0.361 N 
HETATM   16  C   UNL     1     -43.278 -47.611   8.741  1.00  0.00     0.149 C 
HETATM   17  H   UNL     1     -41.831 -49.107   9.121  1.00  0.00     0.162 HD
HETATM   18  O   UNL     1     -42.138 -46.650  11.121  1.00  0.00    -0.268 OA
ENDBRANCH   1  14
TORSDOF 3
ENDMDL
