MODEL 1
REMARK VINA RESULT:      -6.2      0.000      0.000
REMARK  6 active torsions:
REMARK  status: ('A' for Active; 'I' for Inactive)
REMARK    1  A    between atoms: O_2  and  C_3 
REMARK    2  A    between atoms: C_3  and  C_4 
REMARK    3  A    between atoms: C_4  and  N_5 
REMARK    4  A    between atoms: C_8  and  C_13 
REMARK       I    between atoms: C_13  and  N_15 
REMARK    5  A    between atoms: N_15  and  C_16 
REMARK    6  A    between atoms: C_16  and  C_17 
ROOT
HETATM    1  N   UNL     1     -42.266 -47.247  10.183  1.00  0.00    -0.255 N 
HETATM    2  N   UNL     1     -42.106 -48.578  10.552  1.00  0.00    -0.290 N 
ATOM      3  HN  UNL     1     -42.796 -49.288  10.306  1.00  0.00     0.187 HD
HETATM    4  C   UNL     1     -41.033 -48.873  11.224  1.00  0.00     0.116 A 
HETATM    5  C   UNL     1     -39.981 -47.909  11.604  1.00  0.00     0.042 A 
HETATM    6  C   UNL     1     -40.146 -46.647  11.214  1.00  0.00     0.078 A 
HETATM    7  C   UNL     1     -41.335 -46.245  10.439  1.00  0.00     0.262 A 
HETATM    8  O   UNL     1     -41.432 -45.078  10.070  1.00  0.00    -0.267 OA
ENDROOT
BRANCH   4   9
HETATM    9  C   UNL     1     -40.790 -50.316  11.682  1.00  0.00     0.269 C 
HETATM   10  O   UNL     1     -39.654 -50.684  11.946  1.00  0.00    -0.266 OA
HETATM   11  N   UNL     1     -41.905 -51.116  11.759  1.00  0.00    -0.353 N 
HETATM   12  H   UNL     1     -42.806 -50.726  11.498  1.00  0.00     0.162 HD
BRANCH  11  13
HETATM   13  C   UNL     1     -41.832 -52.501  12.200  1.00  0.00     0.155 C 
BRANCH  13  14
HETATM   14  C   UNL     1     -42.992 -52.908  13.109  1.00  0.00     0.139 C 
HETATM   15  C   UNL     1     -42.666 -53.960  14.159  1.00  0.00     0.035 C 
HETATM   16  C   UNL     1     -43.925 -54.798  14.260  1.00  0.00     0.029 C 
HETATM   17  C   UNL     1     -44.878 -54.203  13.245  1.00  0.00     0.168 C 
HETATM   18  O   UNL     1     -44.069 -53.456  12.331  1.00  0.00    -0.384 OA
ENDBRANCH  13  14
ENDBRANCH  11  13
ENDBRANCH   4   9
BRANCH   1  19
HETATM   19  C   UNL     1     -43.465 -46.910   9.420  1.00  0.00     0.178 C 
BRANCH  19  20
HETATM   20  C   UNL     1     -43.554 -47.687   8.107  1.00  0.00     0.189 C 
BRANCH  20  21
HETATM   21  O   UNL     1     -44.888 -48.176   7.934  1.00  0.00    -0.394 OA
HETATM   22  C   UNL     1     -45.748 -47.730   8.976  1.00  0.00     0.201 C 
ENDBRANCH  20  21
ENDBRANCH  19  20
ENDBRANCH   1  19
TORSDOF 6
ENDMDL
MODEL 2
REMARK VINA RESULT:      -6.0      2.180      6.725
REMARK  6 active torsions:
REMARK  status: ('A' for Active; 'I' for Inactive)
REMARK    1  A    between atoms: O_2  and  C_3 
REMARK    2  A    between atoms: C_3  and  C_4 
REMARK    3  A    between atoms: C_4  and  N_5 
REMARK    4  A    between atoms: C_8  and  C_13 
REMARK       I    between atoms: C_13  and  N_15 
REMARK    5  A    between atoms: N_15  and  C_16 
REMARK    6  A    between atoms: C_16  and  C_17 
ROOT
HETATM    1  N   UNL     1     -44.685 -53.306  13.011  1.00  0.00    -0.255 N 
HETATM    2  N   UNL     1     -43.693 -52.489  12.478  1.00  0.00    -0.290 N 
ATOM      3  HN  UNL     1     -43.919 -51.698  11.874  1.00  0.00     0.187 HD
HETATM    4  C   UNL     1     -42.465 -52.781  12.789  1.00  0.00     0.116 A 
HETATM    5  C   UNL     1     -42.057 -53.897  13.667  1.00  0.00     0.042 A 
HETATM    6  C   UNL     1     -43.027 -54.646  14.186  1.00  0.00     0.078 A 
HETATM    7  C   UNL     1     -44.443 -54.363  13.884  1.00  0.00     0.262 A 
HETATM    8  O   UNL     1     -45.309 -55.057  14.409  1.00  0.00    -0.267 OA
ENDROOT
BRANCH   4   9
HETATM    9  C   UNL     1     -41.313 -51.939  12.229  1.00  0.00     0.269 C 
HETATM   10  O   UNL     1     -40.172 -52.378  12.259  1.00  0.00    -0.266 OA
HETATM   11  N   UNL     1     -41.660 -50.709  11.724  1.00  0.00    -0.353 N 
HETATM   12  H   UNL     1     -42.634 -50.421  11.762  1.00  0.00     0.162 HD
BRANCH  11  13
HETATM   13  C   UNL     1     -40.677 -49.809  11.139  1.00  0.00     0.155 C 
BRANCH  13  14
HETATM   14  C   UNL     1     -41.159 -48.360  11.053  1.00  0.00     0.139 C 
HETATM   15  C   UNL     1     -41.982 -47.871  12.236  1.00  0.00     0.035 C 
HETATM   16  C   UNL     1     -43.011 -46.942  11.622  1.00  0.00     0.029 C 
HETATM   17  C   UNL     1     -42.741 -46.981  10.133  1.00  0.00     0.168 C 
HETATM   18  O   UNL     1     -41.992 -48.177   9.897  1.00  0.00    -0.384 OA
ENDBRANCH  13  14
ENDBRANCH  11  13
ENDBRANCH   4   9
BRANCH   1  19
HETATM   19  C   UNL     1     -46.067 -52.978  12.673  1.00  0.00     0.178 C 
BRANCH  19  20
HETATM   20  C   UNL     1     -46.413 -51.526  12.995  1.00  0.00     0.189 C 
BRANCH  20  21
HETATM   21  O   UNL     1     -45.906 -51.193  14.292  1.00  0.00    -0.394 OA
HETATM   22  C   UNL     1     -46.878 -51.417  15.306  1.00  0.00     0.201 C 
ENDBRANCH  20  21
ENDBRANCH  19  20
ENDBRANCH   1  19
TORSDOF 6
ENDMDL
MODEL 3
REMARK VINA RESULT:      -5.8      2.015      3.083
REMARK  6 active torsions:
REMARK  status: ('A' for Active; 'I' for Inactive)
REMARK    1  A    between atoms: O_2  and  C_3 
REMARK    2  A    between atoms: C_3  and  C_4 
REMARK    3  A    between atoms: C_4  and  N_5 
REMARK    4  A    between atoms: C_8  and  C_13 
REMARK       I    between atoms: C_13  and  N_15 
REMARK    5  A    between atoms: N_15  and  C_16 
REMARK    6  A    between atoms: C_16  and  C_17 
ROOT
HETATM    1  N   UNL     1     -41.344 -49.102  11.403  1.00  0.00    -0.255 N 
HETATM    2  N   UNL     1     -42.133 -50.200  11.731  1.00  0.00    -0.290 N 
ATOM      3  HN  UNL     1     -43.062 -50.330  11.330  1.00  0.00     0.187 HD
HETATM    4  C   UNL     1     -41.628 -51.053  12.571  1.00  0.00     0.116 A 
HETATM    5  C   UNL     1     -40.287 -50.945  13.184  1.00  0.00     0.042 A 
HETATM    6  C   UNL     1     -39.542 -49.900  12.832  1.00  0.00     0.078 A 
HETATM    7  C   UNL     1     -40.050 -48.899  11.873  1.00  0.00     0.262 A 
HETATM    8  O   UNL     1     -39.318 -47.968  11.550  1.00  0.00    -0.267 OA
ENDROOT
BRANCH   4   9
HETATM    9  C   UNL     1     -42.440 -52.282  12.997  1.00  0.00     0.269 C 
HETATM   10  O   UNL     1     -42.069 -52.953  13.949  1.00  0.00    -0.266 OA
HETATM   11  N   UNL     1     -43.559 -52.550  12.245  1.00  0.00    -0.353 N 
HETATM   12  H   UNL     1     -43.775 -51.946  11.456  1.00  0.00     0.162 HD
BRANCH  11  13
HETATM   13  C   UNL     1     -44.439 -53.669  12.543  1.00  0.00     0.155 C 
BRANCH  13  14
HETATM   14  C   UNL     1     -45.730 -53.252  13.249  1.00  0.00     0.139 C 
HETATM   15  C   UNL     1     -46.154 -51.805  13.041  1.00  0.00     0.035 C 
HETATM   16  C   UNL     1     -46.764 -51.396  14.366  1.00  0.00     0.029 C 
HETATM   17  C   UNL     1     -46.623 -52.610  15.259  1.00  0.00     0.168 C 
HETATM   18  O   UNL     1     -45.600 -53.419  14.670  1.00  0.00    -0.384 OA
ENDBRANCH  13  14
ENDBRANCH  11  13
ENDBRANCH   4   9
BRANCH   1  19
HETATM   19  C   UNL     1     -41.902 -48.145  10.452  1.00  0.00     0.178 C 
BRANCH  19  20
HETATM   20  C   UNL     1     -43.250 -47.591  10.910  1.00  0.00     0.189 C 
BRANCH  20  21
HETATM   21  O   UNL     1     -44.156 -47.570   9.802  1.00  0.00    -0.394 OA
HETATM   22  C   UNL     1     -43.464 -47.611   8.560  1.00  0.00     0.201 C 
ENDBRANCH  20  21
ENDBRANCH  19  20
ENDBRANCH   1  19
TORSDOF 6
ENDMDL
MODEL 4
REMARK VINA RESULT:      -5.5      1.733      3.220
REMARK  6 active torsions:
REMARK  status: ('A' for Active; 'I' for Inactive)
REMARK    1  A    between atoms: O_2  and  C_3 
REMARK    2  A    between atoms: C_3  and  C_4 
REMARK    3  A    between atoms: C_4  and  N_5 
REMARK    4  A    between atoms: C_8  and  C_13 
REMARK       I    between atoms: C_13  and  N_15 
REMARK    5  A    between atoms: N_15  and  C_16 
REMARK    6  A    between atoms: C_16  and  C_17 
ROOT
HETATM    1  N   UNL     1     -40.828 -46.092  10.594  1.00  0.00    -0.255 N 
HETATM    2  N   UNL     1     -40.385 -47.368  10.929  1.00  0.00    -0.290 N 
ATOM      3  HN  UNL     1     -39.400 -47.562  11.108  1.00  0.00     0.187 HD
HETATM    4  C   UNL     1     -41.289 -48.299  11.004  1.00  0.00     0.116 A 
HETATM    5  C   UNL     1     -42.734 -48.096  10.776  1.00  0.00     0.042 A 
HETATM    6  C   UNL     1     -43.134 -46.861  10.483  1.00  0.00     0.078 A 
HETATM    7  C   UNL     1     -42.163 -45.754  10.393  1.00  0.00     0.262 A 
HETATM    8  O   UNL     1     -42.577 -44.623  10.154  1.00  0.00    -0.267 OA
ENDROOT
BRANCH   4   9
HETATM    9  C   UNL     1     -40.880 -49.735  11.352  1.00  0.00     0.269 C 
HETATM   10  O   UNL     1     -39.705 -50.064  11.283  1.00  0.00    -0.266 OA
HETATM   11  N   UNL     1     -41.902 -50.576  11.722  1.00  0.00    -0.353 N 
HETATM   12  H   UNL     1     -42.853 -50.217  11.728  1.00  0.00     0.162 HD
BRANCH  11  13
HETATM   13  C   UNL     1     -41.664 -51.960  12.101  1.00  0.00     0.155 C 
BRANCH  13  14
HETATM   14  C   UNL     1     -42.757 -52.538  13.002  1.00  0.00     0.139 C 
HETATM   15  C   UNL     1     -42.292 -53.568  14.020  1.00  0.00     0.035 C 
HETATM   16  C   UNL     1     -43.434 -54.563  14.101  1.00  0.00     0.029 C 
HETATM   17  C   UNL     1     -44.461 -54.066  13.106  1.00  0.00     0.168 C 
HETATM   18  O   UNL     1     -43.760 -53.198  12.212  1.00  0.00    -0.384 OA
ENDBRANCH  13  14
ENDBRANCH  11  13
ENDBRANCH   4   9
BRANCH   1  19
HETATM   19  C   UNL     1     -39.818 -45.040  10.517  1.00  0.00     0.178 C 
BRANCH  19  20
HETATM   20  C   UNL     1     -39.461 -44.477  11.891  1.00  0.00     0.189 C 
BRANCH  20  21
HETATM   21  O   UNL     1     -40.045 -45.298  12.907  1.00  0.00    -0.394 OA
HETATM   22  C   UNL     1     -40.726 -44.517  13.882  1.00  0.00     0.201 C 
ENDBRANCH  20  21
ENDBRANCH  19  20
ENDBRANCH   1  19
TORSDOF 6
ENDMDL
MODEL 5
REMARK VINA RESULT:      -5.3      3.095      6.696
REMARK  6 active torsions:
REMARK  status: ('A' for Active; 'I' for Inactive)
REMARK    1  A    between atoms: O_2  and  C_3 
REMARK    2  A    between atoms: C_3  and  C_4 
REMARK    3  A    between atoms: C_4  and  N_5 
REMARK    4  A    between atoms: C_8  and  C_13 
REMARK       I    between atoms: C_13  and  N_15 
REMARK    5  A    between atoms: N_15  and  C_16 
REMARK    6  A    between atoms: C_16  and  C_17 
ROOT
HETATM    1  N   UNL     1     -44.201 -52.886  14.222  1.00  0.00    -0.255 N 
HETATM    2  N   UNL     1     -43.306 -52.166  13.438  1.00  0.00    -0.290 N 
ATOM      3  HN  UNL     1     -43.544 -51.249  13.059  1.00  0.00     0.187 HD
HETATM    4  C   UNL     1     -42.152 -52.718  13.211  1.00  0.00     0.116 A 
HETATM    5  C   UNL     1     -41.725 -54.033  13.734  1.00  0.00     0.042 A 
HETATM    6  C   UNL     1     -42.590 -54.688  14.505  1.00  0.00     0.078 A 
HETATM    7  C   UNL     1     -43.914 -54.114  14.811  1.00  0.00     0.262 A 
HETATM    8  O   UNL     1     -44.669 -54.735  15.554  1.00  0.00    -0.267 OA
ENDROOT
BRANCH   4   9
HETATM    9  C   UNL     1     -41.115 -51.997  12.341  1.00  0.00     0.269 C 
HETATM   10  O   UNL     1     -40.054 -52.546  12.083  1.00  0.00    -0.266 OA
HETATM   11  N   UNL     1     -41.467 -50.741  11.907  1.00  0.00    -0.353 N 
HETATM   12  H   UNL     1     -42.364 -50.358  12.192  1.00  0.00     0.162 HD
BRANCH  11  13
HETATM   13  C   UNL     1     -40.594 -49.946  11.057  1.00  0.00     0.155 C 
BRANCH  13  14
HETATM   14  C   UNL     1     -39.691 -48.993  11.841  1.00  0.00     0.139 C 
HETATM   15  C   UNL     1     -38.245 -49.441  12.000  1.00  0.00     0.035 C 
HETATM   16  C   UNL     1     -37.851 -48.964  13.384  1.00  0.00     0.029 C 
HETATM   17  C   UNL     1     -39.095 -48.309  13.945  1.00  0.00     0.168 C 
HETATM   18  O   UNL     1     -40.191 -48.813  13.176  1.00  0.00    -0.384 OA
ENDBRANCH  13  14
ENDBRANCH  11  13
ENDBRANCH   4   9
BRANCH   1  19
HETATM   19  C   UNL     1     -45.496 -52.266  14.488  1.00  0.00     0.178 C 
BRANCH  19  20
HETATM   20  C   UNL     1     -46.585 -52.769  13.542  1.00  0.00     0.189 C 
BRANCH  20  21
HETATM   21  O   UNL     1     -46.130 -52.652  12.190  1.00  0.00    -0.394 OA
HETATM   22  C   UNL     1     -47.008 -51.849  11.411  1.00  0.00     0.201 C 
ENDBRANCH  20  21
ENDBRANCH  19  20
ENDBRANCH   1  19
TORSDOF 6
ENDMDL
MODEL 6
REMARK VINA RESULT:      -5.1      4.588      7.703
REMARK  6 active torsions:
REMARK  status: ('A' for Active; 'I' for Inactive)
REMARK    1  A    between atoms: O_2  and  C_3 
REMARK    2  A    between atoms: C_3  and  C_4 
REMARK    3  A    between atoms: C_4  and  N_5 
REMARK    4  A    between atoms: C_8  and  C_13 
REMARK       I    between atoms: C_13  and  N_15 
REMARK    5  A    between atoms: N_15  and  C_16 
REMARK    6  A    between atoms: C_16  and  C_17 
ROOT
HETATM    1  N   UNL     1     -45.850 -52.393  16.293  1.00  0.00    -0.255 N 
HETATM    2  N   UNL     1     -44.901 -52.811  15.366  1.00  0.00    -0.290 N 
ATOM      3  HN  UNL     1     -44.091 -53.366  15.643  1.00  0.00     0.187 HD
HETATM    4  C   UNL     1     -45.098 -52.461  14.130  1.00  0.00     0.116 A 
HETATM    5  C   UNL     1     -46.251 -51.673  13.647  1.00  0.00     0.042 A 
HETATM    6  C   UNL     1     -47.158 -51.310  14.550  1.00  0.00     0.078 A 
HETATM    7  C   UNL     1     -47.003 -51.684  15.969  1.00  0.00     0.262 A 
HETATM    8  O   UNL     1     -47.879 -51.358  16.764  1.00  0.00    -0.267 OA
ENDROOT
BRANCH   4   9
HETATM    9  C   UNL     1     -44.089 -52.868  13.050  1.00  0.00     0.269 C 
HETATM   10  O   UNL     1     -44.317 -53.839  12.343  1.00  0.00    -0.266 OA
HETATM   11  N   UNL     1     -42.962 -52.087  12.958  1.00  0.00    -0.353 N 
HETATM   12  H   UNL     1     -42.849 -51.311  13.605  1.00  0.00     0.162 HD
BRANCH  11  13
HETATM   13  C   UNL     1     -41.928 -52.338  11.966  1.00  0.00     0.155 C 
BRANCH  13  14
HETATM   14  C   UNL     1     -40.623 -52.858  12.571  1.00  0.00     0.139 C 
HETATM   15  C   UNL     1     -40.667 -54.285  13.100  1.00  0.00     0.035 C 
HETATM   16  C   UNL     1     -39.774 -54.262  14.325  1.00  0.00     0.029 C 
HETATM   17  C   UNL     1     -39.304 -52.828  14.445  1.00  0.00     0.168 C 
HETATM   18  O   UNL     1     -40.228 -52.042  13.686  1.00  0.00    -0.384 OA
ENDBRANCH  13  14
ENDBRANCH  11  13
ENDBRANCH   4   9
BRANCH   1  19
HETATM   19  C   UNL     1     -45.640 -52.791  17.683  1.00  0.00     0.178 C 
BRANCH  19  20
HETATM   20  C   UNL     1     -45.736 -54.303  17.874  1.00  0.00     0.189 C 
BRANCH  20  21
HETATM   21  O   UNL     1     -44.495 -54.910  17.499  1.00  0.00    -0.394 OA
HETATM   22  C   UNL     1     -43.448 -54.552  18.394  1.00  0.00     0.201 C 
ENDBRANCH  20  21
ENDBRANCH  19  20
ENDBRANCH   1  19
TORSDOF 6
ENDMDL
MODEL 7
REMARK VINA RESULT:      -5.1      2.507      7.902
REMARK  6 active torsions:
REMARK  status: ('A' for Active; 'I' for Inactive)
REMARK    1  A    between atoms: O_2  and  C_3 
REMARK    2  A    between atoms: C_3  and  C_4 
REMARK    3  A    between atoms: C_4  and  N_5 
REMARK    4  A    between atoms: C_8  and  C_13 
REMARK       I    between atoms: C_13  and  N_15 
REMARK    5  A    between atoms: N_15  and  C_16 
REMARK    6  A    between atoms: C_16  and  C_17 
ROOT
HETATM    1  N   UNL     1     -43.422 -53.989  15.016  1.00  0.00    -0.255 N 
HETATM    2  N   UNL     1     -42.401 -53.299  14.372  1.00  0.00    -0.290 N 
ATOM      3  HN  UNL     1     -41.526 -53.073  14.846  1.00  0.00     0.187 HD
HETATM    4  C   UNL     1     -42.615 -52.957  13.136  1.00  0.00     0.116 A 
HETATM    5  C   UNL     1     -43.845 -53.259  12.375  1.00  0.00     0.042 A 
HETATM    6  C   UNL     1     -44.795 -53.945  13.007  1.00  0.00     0.078 A 
HETATM    7  C   UNL     1     -44.613 -54.374  14.406  1.00  0.00     0.262 A 
HETATM    8  O   UNL     1     -45.499 -55.034  14.941  1.00  0.00    -0.267 OA
ENDROOT
BRANCH   4   9
HETATM    9  C   UNL     1     -41.545 -52.179  12.361  1.00  0.00     0.269 C 
HETATM   10  O   UNL     1     -40.482 -52.718  12.090  1.00  0.00    -0.266 OA
HETATM   11  N   UNL     1     -41.870 -50.887  12.024  1.00  0.00    -0.353 N 
HETATM   12  H   UNL     1     -42.772 -50.518  12.313  1.00  0.00     0.162 HD
BRANCH  11  13
HETATM   13  C   UNL     1     -40.963 -50.035  11.269  1.00  0.00     0.155 C 
BRANCH  13  14
HETATM   14  C   UNL     1     -41.432 -48.582  11.181  1.00  0.00     0.139 C 
HETATM   15  C   UNL     1     -42.580 -48.205  12.107  1.00  0.00     0.035 C 
HETATM   16  C   UNL     1     -43.402 -47.214  11.306  1.00  0.00     0.029 C 
HETATM   17  C   UNL     1     -42.702 -47.110   9.968  1.00  0.00     0.168 C 
HETATM   18  O   UNL     1     -41.889 -48.282   9.852  1.00  0.00    -0.384 OA
ENDBRANCH  13  14
ENDBRANCH  11  13
ENDBRANCH   4   9
BRANCH   1  19
HETATM   19  C   UNL     1     -43.184 -54.385  16.401  1.00  0.00     0.178 C 
BRANCH  19  20
HETATM   20  C   UNL     1     -42.321 -55.640  16.506  1.00  0.00     0.189 C 
BRANCH  20  21
HETATM   21  O   UNL     1     -41.014 -55.362  15.992  1.00  0.00    -0.394 OA
HETATM   22  C   UNL     1     -40.194 -54.728  16.966  1.00  0.00     0.201 C 
ENDBRANCH  20  21
ENDBRANCH  19  20
ENDBRANCH   1  19
TORSDOF 6
ENDMDL
MODEL 8
REMARK VINA RESULT:      -5.0      3.461      5.082
REMARK  6 active torsions:
REMARK  status: ('A' for Active; 'I' for Inactive)
REMARK    1  A    between atoms: O_2  and  C_3 
REMARK    2  A    between atoms: C_3  and  C_4 
REMARK    3  A    between atoms: C_4  and  N_5 
REMARK    4  A    between atoms: C_8  and  C_13 
REMARK       I    between atoms: C_13  and  N_15 
REMARK    5  A    between atoms: N_15  and  C_16 
REMARK    6  A    between atoms: C_16  and  C_17 
ROOT
HETATM    1  N   UNL     1     -42.353 -45.347  10.774  1.00  0.00    -0.255 N 
HETATM    2  N   UNL     1     -41.697 -46.443  11.325  1.00  0.00    -0.290 N 
ATOM      3  HN  UNL     1     -41.109 -46.354  12.154  1.00  0.00     0.187 HD
HETATM    4  C   UNL     1     -41.871 -47.587  10.732  1.00  0.00     0.116 A 
HETATM    5  C   UNL     1     -42.717 -47.802   9.540  1.00  0.00     0.042 A 
HETATM    6  C   UNL     1     -43.355 -46.742   9.050  1.00  0.00     0.078 A 
HETATM    7  C   UNL     1     -43.211 -45.416   9.681  1.00  0.00     0.262 A 
HETATM    8  O   UNL     1     -43.843 -44.470   9.218  1.00  0.00    -0.267 OA
ENDROOT
BRANCH   4   9
HETATM    9  C   UNL     1     -41.170 -48.841  11.267  1.00  0.00     0.269 C 
HETATM   10  O   UNL     1     -41.833 -49.739  11.766  1.00  0.00    -0.266 OA
HETATM   11  N   UNL     1     -39.801 -48.858  11.148  1.00  0.00    -0.353 N 
HETATM   12  H   UNL     1     -39.335 -48.053  10.739  1.00  0.00     0.162 HD
BRANCH  11  13
HETATM   13  C   UNL     1     -39.002 -49.991  11.591  1.00  0.00     0.155 C 
BRANCH  13  14
HETATM   14  C   UNL     1     -38.286 -49.743  12.920  1.00  0.00     0.139 C 
HETATM   15  C   UNL     1     -38.895 -50.433  14.133  1.00  0.00     0.035 C 
HETATM   16  C   UNL     1     -38.697 -49.448  15.268  1.00  0.00     0.029 C 
HETATM   17  C   UNL     1     -38.023 -48.248  14.637  1.00  0.00     0.168 C 
HETATM   18  O   UNL     1     -38.282 -48.341  13.233  1.00  0.00    -0.384 OA
ENDBRANCH  13  14
ENDBRANCH  11  13
ENDBRANCH   4   9
BRANCH   1  19
HETATM   19  C   UNL     1     -42.169 -44.061  11.442  1.00  0.00     0.178 C 
BRANCH  19  20
HETATM   20  C   UNL     1     -40.813 -43.433  11.126  1.00  0.00     0.189 C 
BRANCH  20  21
HETATM   21  O   UNL     1     -39.770 -44.321  11.538  1.00  0.00    -0.394 OA
HETATM   22  C   UNL     1     -39.319 -44.021  12.854  1.00  0.00     0.201 C 
ENDBRANCH  20  21
ENDBRANCH  19  20
ENDBRANCH   1  19
TORSDOF 6
ENDMDL
MODEL 9
REMARK VINA RESULT:      -5.0      2.116      2.412
REMARK  6 active torsions:
REMARK  status: ('A' for Active; 'I' for Inactive)
REMARK    1  A    between atoms: O_2  and  C_3 
REMARK    2  A    between atoms: C_3  and  C_4 
REMARK    3  A    between atoms: C_4  and  N_5 
REMARK    4  A    between atoms: C_8  and  C_13 
REMARK       I    between atoms: C_13  and  N_15 
REMARK    5  A    between atoms: N_15  and  C_16 
REMARK    6  A    between atoms: C_16  and  C_17 
ROOT
HETATM    1  N   UNL     1     -42.494 -47.245  10.769  1.00  0.00    -0.255 N 
HETATM    2  N   UNL     1     -41.750 -48.344  11.186  1.00  0.00    -0.290 N 
ATOM      3  HN  UNL     1     -42.174 -49.265  11.301  1.00  0.00     0.187 HD
HETATM    4  C   UNL     1     -40.488 -48.140  11.421  1.00  0.00     0.116 A 
HETATM    5  C   UNL     1     -39.797 -46.843  11.264  1.00  0.00     0.042 A 
HETATM    6  C   UNL     1     -40.526 -45.815  10.837  1.00  0.00     0.078 A 
HETATM    7  C   UNL     1     -41.962 -45.980  10.541  1.00  0.00     0.262 A 
HETATM    8  O   UNL     1     -42.591 -45.014  10.117  1.00  0.00    -0.267 OA
ENDROOT
BRANCH   4   9
HETATM    9  C   UNL     1     -39.602 -49.296  11.901  1.00  0.00     0.269 C 
HETATM   10  O   UNL     1     -38.752 -49.757  11.153  1.00  0.00    -0.266 OA
HETATM   11  N   UNL     1     -39.843 -49.746  13.176  1.00  0.00    -0.353 N 
HETATM   12  H   UNL     1     -40.588 -49.313  13.716  1.00  0.00     0.162 HD
BRANCH  11  13
HETATM   13  C   UNL     1     -39.066 -50.822  13.774  1.00  0.00     0.155 C 
BRANCH  13  14
HETATM   14  C   UNL     1     -39.875 -52.102  13.993  1.00  0.00     0.139 C 
HETATM   15  C   UNL     1     -39.174 -53.193  14.789  1.00  0.00     0.035 C 
HETATM   16  C   UNL     1     -39.642 -54.486  14.151  1.00  0.00     0.029 C 
HETATM   17  C   UNL     1     -40.548 -54.062  13.015  1.00  0.00     0.168 C 
HETATM   18  O   UNL     1     -40.217 -52.699  12.731  1.00  0.00    -0.384 OA
ENDBRANCH  13  14
ENDBRANCH  11  13
ENDBRANCH   4   9
BRANCH   1  19
HETATM   19  C   UNL     1     -43.911 -47.470  10.495  1.00  0.00     0.178 C 
BRANCH  19  20
HETATM   20  C   UNL     1     -44.214 -47.501   8.998  1.00  0.00     0.189 C 
BRANCH  20  21
HETATM   21  O   UNL     1     -45.259 -46.569   8.705  1.00  0.00    -0.394 OA
HETATM   22  C   UNL     1     -46.532 -47.075   9.087  1.00  0.00     0.201 C 
ENDBRANCH  20  21
ENDBRANCH  19  20
ENDBRANCH   1  19
TORSDOF 6
ENDMDL
