MODEL 1
REMARK VINA RESULT:      -6.4      0.000      0.000
REMARK  3 active torsions:
REMARK  status: ('A' for Active; 'I' for Inactive)
REMARK    1  A    between atoms: N_11  and  C_12 
REMARK    2  A    between atoms: C_12  and  C_13 
REMARK    3  A    between atoms: C_13  and  O_14 
ROOT
HETATM    1  C   UNL     1     -43.972 -46.154   8.857  1.00  0.00     0.164 C 
HETATM    2  N   UNL     1     -42.998 -45.895   9.900  1.00  0.00    -0.269 N 
HETATM    3  C   UNL     1     -42.794 -44.565  10.307  1.00  0.00     0.332 C 
HETATM    4  O   UNL     1     -43.504 -43.646   9.889  1.00  0.00    -0.246 OA
HETATM    5  N   UNL     1     -41.757 -44.333  11.214  1.00  0.00    -0.287 N 
HETATM    6  C   UNL     1     -41.519 -42.994  11.723  1.00  0.00     0.163 C 
HETATM    7  C   UNL     1     -41.012 -45.397  11.677  1.00  0.00     0.145 A 
HETATM    8  N   UNL     1     -39.953 -45.321  12.525  1.00  0.00    -0.336 N 
ATOM      9  HN  UNL     1     -39.513 -44.481  12.900  1.00  0.00     0.168 HD
HETATM   10  C   UNL     1     -39.624 -46.576  12.753  1.00  0.00     0.185 A 
HETATM   11  N   UNL     1     -40.456 -47.456  12.098  1.00  0.00    -0.333 N 
HETATM   12  C   UNL     1     -41.304 -46.689  11.338  1.00  0.00     0.149 A 
HETATM   13  C   UNL     1     -42.354 -47.018  10.437  1.00  0.00     0.282 C 
HETATM   14  O   UNL     1     -42.665 -48.171  10.150  1.00  0.00    -0.265 OA
ENDROOT
BRANCH  11  15
HETATM   15  C   UNL     1     -40.643 -48.846  12.467  1.00  0.00     0.168 C 
BRANCH  15  16
HETATM   16  C   UNL     1     -39.917 -49.951  11.654  1.00  0.00     0.074 C 
HETATM   17  C   UNL     1     -40.051 -51.382  12.196  1.00  0.00     0.039 C 
HETATM   18  C   UNL     1     -39.325 -51.621  13.517  1.00  0.00     0.003 C 
HETATM   19  C   UNL     1     -37.884 -51.108  13.536  1.00  0.00     0.000 C 
HETATM   20  C   UNL     1     -37.725 -49.712  12.944  1.00  0.00     0.003 C 
HETATM   21  C   UNL     1     -38.410 -49.608  11.583  1.00  0.00     0.039 C 
BRANCH  16  22
HETATM   22  O   UNL     1     -40.399 -49.921  10.302  1.00  0.00    -0.388 OA
HETATM   23  H   UNL     1     -39.900 -49.247   9.807  1.00  0.00     0.210 HD
ENDBRANCH  16  22
ENDBRANCH  15  16
ENDBRANCH  11  15
TORSDOF 3
ENDMDL
MODEL 2
REMARK VINA RESULT:      -6.1      4.369      6.577
REMARK  3 active torsions:
REMARK  status: ('A' for Active; 'I' for Inactive)
REMARK    1  A    between atoms: N_11  and  C_12 
REMARK    2  A    between atoms: C_12  and  C_13 
REMARK    3  A    between atoms: C_13  and  O_14 
ROOT
HETATM    1  C   UNL     1     -41.229 -48.080  11.187  1.00  0.00     0.164 C 
HETATM    2  N   UNL     1     -40.851 -49.305  11.867  1.00  0.00    -0.269 N 
HETATM    3  C   UNL     1     -39.483 -49.575  12.043  1.00  0.00     0.332 C 
HETATM    4  O   UNL     1     -38.618 -48.746  11.747  1.00  0.00    -0.246 OA
HETATM    5  N   UNL     1     -39.148 -50.821  12.578  1.00  0.00    -0.287 N 
HETATM    6  C   UNL     1     -37.759 -51.153  12.840  1.00  0.00     0.163 C 
HETATM    7  C   UNL     1     -40.151 -51.701  12.923  1.00  0.00     0.145 A 
HETATM    8  N   UNL     1     -39.978 -52.957  13.413  1.00  0.00    -0.336 N 
ATOM      9  HN  UNL     1     -39.101 -53.460  13.546  1.00  0.00     0.168 HD
HETATM   10  C   UNL     1     -41.198 -53.378  13.678  1.00  0.00     0.185 A 
HETATM   11  N   UNL     1     -42.148 -52.421  13.397  1.00  0.00    -0.333 N 
HETATM   12  C   UNL     1     -41.473 -51.366  12.833  1.00  0.00     0.149 A 
HETATM   13  C   UNL     1     -41.904 -50.111  12.318  1.00  0.00     0.282 C 
HETATM   14  O   UNL     1     -43.082 -49.769  12.268  1.00  0.00    -0.265 OA
ENDROOT
BRANCH  11  15
HETATM   15  C   UNL     1     -43.483 -52.393  13.960  1.00  0.00     0.168 C 
BRANCH  15  16
HETATM   16  C   UNL     1     -44.682 -52.858  13.092  1.00  0.00     0.074 C 
HETATM   17  C   UNL     1     -45.807 -51.831  12.892  1.00  0.00     0.039 C 
HETATM   18  C   UNL     1     -46.605 -51.524  14.156  1.00  0.00     0.003 C 
HETATM   19  C   UNL     1     -47.062 -52.768  14.920  1.00  0.00     0.000 C 
HETATM   20  C   UNL     1     -45.974 -53.825  15.072  1.00  0.00     0.003 C 
HETATM   21  C   UNL     1     -45.301 -54.122  13.734  1.00  0.00     0.039 C 
BRANCH  16  22
HETATM   22  O   UNL     1     -44.191 -53.262  11.804  1.00  0.00    -0.388 OA
HETATM   23  H   UNL     1     -44.412 -54.201  11.666  1.00  0.00     0.210 HD
ENDBRANCH  16  22
ENDBRANCH  15  16
ENDBRANCH  11  15
TORSDOF 3
ENDMDL
MODEL 3
REMARK VINA RESULT:      -6.0      5.880      8.794
REMARK  3 active torsions:
REMARK  status: ('A' for Active; 'I' for Inactive)
REMARK    1  A    between atoms: N_11  and  C_12 
REMARK    2  A    between atoms: C_12  and  C_13 
REMARK    3  A    between atoms: C_13  and  O_14 
ROOT
HETATM    1  C   UNL     1     -40.158 -51.326  12.440  1.00  0.00     0.164 C 
HETATM    2  N   UNL     1     -40.464 -52.323  13.449  1.00  0.00    -0.269 N 
HETATM    3  C   UNL     1     -39.415 -53.122  13.936  1.00  0.00     0.332 C 
HETATM    4  O   UNL     1     -38.241 -52.911  13.619  1.00  0.00    -0.246 OA
HETATM    5  N   UNL     1     -39.762 -54.161  14.804  1.00  0.00    -0.287 N 
HETATM    6  C   UNL     1     -38.730 -54.995  15.393  1.00  0.00     0.163 C 
HETATM    7  C   UNL     1     -41.084 -54.337  15.154  1.00  0.00     0.145 A 
HETATM    8  N   UNL     1     -41.574 -55.322  15.952  1.00  0.00    -0.336 N 
ATOM      9  HN  UNL     1     -41.065 -56.105  16.362  1.00  0.00     0.168 HD
HETATM   10  C   UNL     1     -42.854 -55.039  16.075  1.00  0.00     0.185 A 
HETATM   11  N   UNL     1     -43.196 -53.886  15.404  1.00  0.00    -0.333 N 
HETATM   12  C   UNL     1     -42.064 -53.478  14.742  1.00  0.00     0.149 A 
HETATM   13  C   UNL     1     -41.798 -52.383  13.873  1.00  0.00     0.282 C 
HETATM   14  O   UNL     1     -42.651 -51.573  13.524  1.00  0.00    -0.265 OA
ENDROOT
BRANCH  11  15
HETATM   15  C   UNL     1     -44.371 -53.085  15.684  1.00  0.00     0.168 C 
BRANCH  15  16
HETATM   16  C   UNL     1     -45.759 -53.574  15.189  1.00  0.00     0.074 C 
HETATM   17  C   UNL     1     -45.818 -54.073  13.737  1.00  0.00     0.039 C 
HETATM   18  C   UNL     1     -45.627 -52.978  12.692  1.00  0.00     0.003 C 
HETATM   19  C   UNL     1     -46.484 -51.734  12.931  1.00  0.00     0.000 C 
HETATM   20  C   UNL     1     -46.485 -51.262  14.380  1.00  0.00     0.003 C 
HETATM   21  C   UNL     1     -46.775 -52.418  15.336  1.00  0.00     0.039 C 
BRANCH  16  22
HETATM   22  O   UNL     1     -46.216 -54.622  16.058  1.00  0.00    -0.388 OA
HETATM   23  H   UNL     1     -47.053 -54.975  15.707  1.00  0.00     0.210 HD
ENDBRANCH  16  22
ENDBRANCH  15  16
ENDBRANCH  11  15
TORSDOF 3
ENDMDL
MODEL 4
REMARK VINA RESULT:      -5.9      5.115      6.897
REMARK  3 active torsions:
REMARK  status: ('A' for Active; 'I' for Inactive)
REMARK    1  A    between atoms: N_11  and  C_12 
REMARK    2  A    between atoms: C_12  and  C_13 
REMARK    3  A    between atoms: C_13  and  O_14 
ROOT
HETATM    1  C   UNL     1     -42.502 -47.807  14.889  1.00  0.00     0.164 C 
HETATM    2  N   UNL     1     -42.240 -48.973  14.067  1.00  0.00    -0.269 N 
HETATM    3  C   UNL     1     -41.192 -48.907  13.131  1.00  0.00     0.332 C 
HETATM    4  O   UNL     1     -40.427 -47.940  13.086  1.00  0.00    -0.246 OA
HETATM    5  N   UNL     1     -41.052 -49.992  12.262  1.00  0.00    -0.287 N 
HETATM    6  C   UNL     1     -39.960 -50.023  11.305  1.00  0.00     0.163 C 
HETATM    7  C   UNL     1     -41.911 -51.064  12.373  1.00  0.00     0.145 A 
HETATM    8  N   UNL     1     -41.921 -52.165  11.577  1.00  0.00    -0.336 N 
ATOM      9  HN  UNL     1     -41.348 -52.345  10.753  1.00  0.00     0.168 HD
HETATM   10  C   UNL     1     -42.838 -52.947  12.108  1.00  0.00     0.185 A 
HETATM   11  N   UNL     1     -43.399 -52.393  13.237  1.00  0.00    -0.333 N 
HETATM   12  C   UNL     1     -42.854 -51.139  13.360  1.00  0.00     0.149 A 
HETATM   13  C   UNL     1     -43.054 -50.089  14.300  1.00  0.00     0.282 C 
HETATM   14  O   UNL     1     -43.862 -50.150  15.221  1.00  0.00    -0.265 OA
ENDROOT
BRANCH  11  15
HETATM   15  C   UNL     1     -44.089 -53.142  14.269  1.00  0.00     0.168 C 
BRANCH  15  16
HETATM   16  C   UNL     1     -45.562 -53.573  14.039  1.00  0.00     0.074 C 
HETATM   17  C   UNL     1     -46.474 -52.525  13.385  1.00  0.00     0.039 C 
HETATM   18  C   UNL     1     -46.773 -51.317  14.269  1.00  0.00     0.003 C 
HETATM   19  C   UNL     1     -47.204 -51.679  15.691  1.00  0.00     0.000 C 
HETATM   20  C   UNL     1     -46.345 -52.764  16.332  1.00  0.00     0.003 C 
HETATM   21  C   UNL     1     -46.185 -53.963  15.400  1.00  0.00     0.039 C 
BRANCH  16  22
HETATM   22  O   UNL     1     -45.575 -54.763  13.236  1.00  0.00    -0.388 OA
HETATM   23  H   UNL     1     -45.725 -54.512  12.308  1.00  0.00     0.210 HD
ENDBRANCH  16  22
ENDBRANCH  15  16
ENDBRANCH  11  15
TORSDOF 3
ENDMDL
MODEL 5
REMARK VINA RESULT:      -5.8      6.590      9.390
REMARK  3 active torsions:
REMARK  status: ('A' for Active; 'I' for Inactive)
REMARK    1  A    between atoms: N_11  and  C_12 
REMARK    2  A    between atoms: C_12  and  C_13 
REMARK    3  A    between atoms: C_13  and  O_14 
ROOT
HETATM    1  C   UNL     1     -42.140 -55.784  17.697  1.00  0.00     0.164 C 
HETATM    2  N   UNL     1     -41.890 -55.235  16.378  1.00  0.00    -0.269 N 
HETATM    3  C   UNL     1     -40.571 -55.238  15.894  1.00  0.00     0.332 C 
HETATM    4  O   UNL     1     -39.659 -55.801  16.506  1.00  0.00    -0.246 OA
HETATM    5  N   UNL     1     -40.340 -54.582  14.682  1.00  0.00    -0.287 N 
HETATM    6  C   UNL     1     -39.015 -54.588  14.089  1.00  0.00     0.163 C 
HETATM    7  C   UNL     1     -41.397 -53.995  14.019  1.00  0.00     0.145 A 
HETATM    8  N   UNL     1     -41.319 -53.291  12.859  1.00  0.00    -0.336 N 
ATOM      9  HN  UNL     1     -40.481 -53.041  12.335  1.00  0.00     0.168 HD
HETATM   10  C   UNL     1     -42.571 -53.007  12.562  1.00  0.00     0.185 A 
HETATM   11  N   UNL     1     -43.452 -53.528  13.483  1.00  0.00    -0.333 N 
HETATM   12  C   UNL     1     -42.684 -54.099  14.468  1.00  0.00     0.149 A 
HETATM   13  C   UNL     1     -43.012 -54.765  15.681  1.00  0.00     0.282 C 
HETATM   14  O   UNL     1     -44.162 -54.910  16.085  1.00  0.00    -0.265 OA
ENDROOT
BRANCH  11  15
HETATM   15  C   UNL     1     -44.859 -53.770  13.234  1.00  0.00     0.168 C 
BRANCH  15  16
HETATM   16  C   UNL     1     -45.813 -52.562  13.034  1.00  0.00     0.074 C 
HETATM   17  C   UNL     1     -45.202 -51.174  13.279  1.00  0.00     0.039 C 
HETATM   18  C   UNL     1     -44.854 -50.893  14.738  1.00  0.00     0.003 C 
HETATM   19  C   UNL     1     -45.976 -51.233  15.721  1.00  0.00     0.000 C 
HETATM   20  C   UNL     1     -46.635 -52.581  15.453  1.00  0.00     0.003 C 
HETATM   21  C   UNL     1     -47.024 -52.722  13.982  1.00  0.00     0.039 C 
BRANCH  16  22
HETATM   22  O   UNL     1     -46.341 -52.606  11.699  1.00  0.00    -0.388 OA
HETATM   23  H   UNL     1     -47.291 -52.812  11.746  1.00  0.00     0.210 HD
ENDBRANCH  16  22
ENDBRANCH  15  16
ENDBRANCH  11  15
TORSDOF 3
ENDMDL
MODEL 6
REMARK VINA RESULT:      -5.8      2.091      3.381
REMARK  3 active torsions:
REMARK  status: ('A' for Active; 'I' for Inactive)
REMARK    1  A    between atoms: N_11  and  C_12 
REMARK    2  A    between atoms: C_12  and  C_13 
REMARK    3  A    between atoms: C_13  and  O_14 
ROOT
HETATM    1  C   UNL     1     -42.733 -43.441  11.214  1.00  0.00     0.164 C 
HETATM    2  N   UNL     1     -42.469 -44.824  10.866  1.00  0.00    -0.269 N 
HETATM    3  C   UNL     1     -43.128 -45.368   9.750  1.00  0.00     0.332 C 
HETATM    4  O   UNL     1     -43.817 -44.669   9.002  1.00  0.00    -0.246 OA
HETATM    5  N   UNL     1     -42.959 -46.737   9.521  1.00  0.00    -0.287 N 
HETATM    6  C   UNL     1     -43.563 -47.361   8.357  1.00  0.00     0.163 C 
HETATM    7  C   UNL     1     -42.154 -47.470  10.366  1.00  0.00     0.145 A 
HETATM    8  N   UNL     1     -41.929 -48.808  10.292  1.00  0.00    -0.336 N 
ATOM      9  HN  UNL     1     -42.355 -49.478   9.653  1.00  0.00     0.168 HD
HETATM   10  C   UNL     1     -41.038 -49.043  11.233  1.00  0.00     0.185 A 
HETATM   11  N   UNL     1     -40.663 -47.893  11.891  1.00  0.00    -0.333 N 
HETATM   12  C   UNL     1     -41.448 -46.888  11.381  1.00  0.00     0.149 A 
HETATM   13  C   UNL     1     -41.544 -45.499  11.674  1.00  0.00     0.282 C 
HETATM   14  O   UNL     1     -40.889 -44.944  12.551  1.00  0.00    -0.265 OA
ENDROOT
BRANCH  11  15
HETATM   15  C   UNL     1     -39.435 -47.735  12.645  1.00  0.00     0.168 C 
BRANCH  15  16
HETATM   16  C   UNL     1     -39.491 -47.733  14.196  1.00  0.00     0.074 C 
HETATM   17  C   UNL     1     -38.337 -47.013  14.909  1.00  0.00     0.039 C 
HETATM   18  C   UNL     1     -36.986 -47.712  14.776  1.00  0.00     0.003 C 
HETATM   19  C   UNL     1     -37.031 -49.211  15.075  1.00  0.00     0.000 C 
HETATM   20  C   UNL     1     -38.207 -49.929  14.424  1.00  0.00     0.003 C 
HETATM   21  C   UNL     1     -39.519 -49.196  14.695  1.00  0.00     0.039 C 
BRANCH  16  22
HETATM   22  O   UNL     1     -40.732 -47.143  14.612  1.00  0.00    -0.388 OA
HETATM   23  H   UNL     1     -40.653 -46.876  15.545  1.00  0.00     0.210 HD
ENDBRANCH  16  22
ENDBRANCH  15  16
ENDBRANCH  11  15
TORSDOF 3
ENDMDL
MODEL 7
REMARK VINA RESULT:      -5.7      4.765      7.447
REMARK  3 active torsions:
REMARK  status: ('A' for Active; 'I' for Inactive)
REMARK    1  A    between atoms: N_11  and  C_12 
REMARK    2  A    between atoms: C_12  and  C_13 
REMARK    3  A    between atoms: C_13  and  O_14 
ROOT
HETATM    1  C   UNL     1     -40.925 -55.364  16.191  1.00  0.00     0.164 C 
HETATM    2  N   UNL     1     -41.507 -54.475  15.203  1.00  0.00    -0.269 N 
HETATM    3  C   UNL     1     -42.782 -54.783  14.697  1.00  0.00     0.332 C 
HETATM    4  O   UNL     1     -43.455 -55.708  15.162  1.00  0.00    -0.246 OA
HETATM    5  N   UNL     1     -43.257 -53.987  13.651  1.00  0.00    -0.287 N 
HETATM    6  C   UNL     1     -44.587 -54.208  13.113  1.00  0.00     0.163 C 
HETATM    7  C   UNL     1     -42.482 -52.946  13.188  1.00  0.00     0.145 A 
HETATM    8  N   UNL     1     -42.793 -52.117  12.157  1.00  0.00    -0.336 N 
ATOM      9  HN  UNL     1     -43.601 -52.167  11.537  1.00  0.00     0.168 HD
HETATM   10  C   UNL     1     -41.815 -51.235  12.138  1.00  0.00     0.185 A 
HETATM   11  N   UNL     1     -40.899 -51.456  13.142  1.00  0.00    -0.333 N 
HETATM   12  C   UNL     1     -41.291 -52.612  13.771  1.00  0.00     0.149 A 
HETATM   13  C   UNL     1     -40.741 -53.355  14.852  1.00  0.00     0.282 C 
HETATM   14  O   UNL     1     -39.697 -53.051  15.421  1.00  0.00    -0.265 OA
ENDROOT
BRANCH  11  15
HETATM   15  C   UNL     1     -39.983 -50.458  13.658  1.00  0.00     0.168 C 
BRANCH  15  16
HETATM   16  C   UNL     1     -38.555 -50.355  13.058  1.00  0.00     0.074 C 
HETATM   17  C   UNL     1     -37.399 -50.702  14.009  1.00  0.00     0.039 C 
HETATM   18  C   UNL     1     -37.195 -49.695  15.137  1.00  0.00     0.003 C 
HETATM   19  C   UNL     1     -37.171 -48.238  14.673  1.00  0.00     0.000 C 
HETATM   20  C   UNL     1     -38.275 -47.894  13.681  1.00  0.00     0.003 C 
HETATM   21  C   UNL     1     -38.334 -48.914  12.545  1.00  0.00     0.039 C 
BRANCH  16  22
HETATM   22  O   UNL     1     -38.477 -51.208  11.905  1.00  0.00    -0.388 OA
HETATM   23  H   UNL     1     -38.148 -52.081  12.184  1.00  0.00     0.210 HD
ENDBRANCH  16  22
ENDBRANCH  15  16
ENDBRANCH  11  15
TORSDOF 3
ENDMDL
MODEL 8
REMARK VINA RESULT:      -5.7      1.937      3.166
REMARK  3 active torsions:
REMARK  status: ('A' for Active; 'I' for Inactive)
REMARK    1  A    between atoms: N_11  and  C_12 
REMARK    2  A    between atoms: C_12  and  C_13 
REMARK    3  A    between atoms: C_13  and  O_14 
ROOT
HETATM    1  C   UNL     1     -40.197 -45.284  10.489  1.00  0.00     0.164 C 
HETATM    2  N   UNL     1     -41.126 -46.356  10.793  1.00  0.00    -0.269 N 
HETATM    3  C   UNL     1     -42.349 -46.395  10.101  1.00  0.00     0.332 C 
HETATM    4  O   UNL     1     -42.589 -45.621   9.170  1.00  0.00    -0.246 OA
HETATM    5  N   UNL     1     -43.277 -47.357  10.510  1.00  0.00    -0.287 N 
HETATM    6  C   UNL     1     -44.541 -47.495   9.809  1.00  0.00     0.163 C 
HETATM    7  C   UNL     1     -42.950 -48.220  11.534  1.00  0.00     0.145 A 
HETATM    8  N   UNL     1     -43.760 -49.173  12.063  1.00  0.00    -0.336 N 
ATOM      9  HN  UNL     1     -44.736 -49.361  11.834  1.00  0.00     0.168 HD
HETATM   10  C   UNL     1     -43.002 -49.801  12.938  1.00  0.00     0.185 A 
HETATM   11  N   UNL     1     -41.721 -49.296  12.969  1.00  0.00    -0.333 N 
HETATM   12  C   UNL     1     -41.713 -48.220  12.116  1.00  0.00     0.149 A 
HETATM   13  C   UNL     1     -40.702 -47.289  11.748  1.00  0.00     0.282 C 
HETATM   14  O   UNL     1     -39.570 -47.296  12.224  1.00  0.00    -0.265 OA
ENDROOT
BRANCH  11  15
HETATM   15  C   UNL     1     -40.564 -50.010  13.473  1.00  0.00     0.168 C 
BRANCH  15  16
HETATM   16  C   UNL     1     -39.858 -51.050  12.564  1.00  0.00     0.074 C 
HETATM   17  C   UNL     1     -40.717 -52.241  12.112  1.00  0.00     0.039 C 
HETATM   18  C   UNL     1     -41.090 -53.204  13.235  1.00  0.00     0.003 C 
HETATM   19  C   UNL     1     -39.911 -53.619  14.116  1.00  0.00     0.000 C 
HETATM   20  C   UNL     1     -39.013 -52.456  14.522  1.00  0.00     0.003 C 
HETATM   21  C   UNL     1     -38.625 -51.610  13.311  1.00  0.00     0.039 C 
BRANCH  16  22
HETATM   22  O   UNL     1     -39.350 -50.378  11.400  1.00  0.00    -0.388 OA
HETATM   23  H   UNL     1     -39.963 -50.531  10.660  1.00  0.00     0.210 HD
ENDBRANCH  16  22
ENDBRANCH  15  16
ENDBRANCH  11  15
TORSDOF 3
ENDMDL
MODEL 9
REMARK VINA RESULT:      -5.4      5.269      7.229
REMARK  3 active torsions:
REMARK  status: ('A' for Active; 'I' for Inactive)
REMARK    1  A    between atoms: N_11  and  C_12 
REMARK    2  A    between atoms: C_12  and  C_13 
REMARK    3  A    between atoms: C_13  and  O_14 
ROOT
HETATM    1  C   UNL     1     -43.836 -54.083  16.968  1.00  0.00     0.164 C 
HETATM    2  N   UNL     1     -43.609 -53.610  15.616  1.00  0.00    -0.269 N 
HETATM    3  C   UNL     1     -44.727 -53.325  14.812  1.00  0.00     0.332 C 
HETATM    4  O   UNL     1     -45.874 -53.351  15.268  1.00  0.00    -0.246 OA
HETATM    5  N   UNL     1     -44.480 -53.002  13.475  1.00  0.00    -0.287 N 
HETATM    6  C   UNL     1     -45.578 -52.642  12.597  1.00  0.00     0.163 C 
HETATM    7  C   UNL     1     -43.180 -52.955  13.020  1.00  0.00     0.145 A 
HETATM    8  N   UNL     1     -42.790 -52.696  11.745  1.00  0.00    -0.336 N 
ATOM      9  HN  UNL     1     -43.382 -52.557  10.926  1.00  0.00     0.168 HD
HETATM   10  C   UNL     1     -41.474 -52.666  11.803  1.00  0.00     0.185 A 
HETATM   11  N   UNL     1     -41.008 -52.871  13.082  1.00  0.00    -0.333 N 
HETATM   12  C   UNL     1     -42.112 -53.138  13.854  1.00  0.00     0.149 A 
HETATM   13  C   UNL     1     -42.271 -53.451  15.233  1.00  0.00     0.282 C 
HETATM   14  O   UNL     1     -41.330 -53.577  16.011  1.00  0.00    -0.265 OA
ENDROOT
BRANCH  11  15
HETATM   15  C   UNL     1     -39.695 -52.479  13.556  1.00  0.00     0.168 C 
BRANCH  15  16
HETATM   16  C   UNL     1     -39.455 -51.011  13.998  1.00  0.00     0.074 C 
HETATM   17  C   UNL     1     -39.997 -49.926  13.055  1.00  0.00     0.039 C 
HETATM   18  C   UNL     1     -39.265 -49.836  11.719  1.00  0.00     0.003 C 
HETATM   19  C   UNL     1     -37.741 -49.809  11.847  1.00  0.00     0.000 C 
HETATM   20  C   UNL     1     -37.192 -50.838  12.827  1.00  0.00     0.003 C 
HETATM   21  C   UNL     1     -37.934 -50.782  14.160  1.00  0.00     0.039 C 
BRANCH  16  22
HETATM   22  O   UNL     1     -40.030 -50.821  15.300  1.00  0.00    -0.388 OA
HETATM   23  H   UNL     1     -39.391 -51.122  15.970  1.00  0.00     0.210 HD
ENDBRANCH  16  22
ENDBRANCH  15  16
ENDBRANCH  11  15
TORSDOF 3
ENDMDL
