MODEL 1
REMARK VINA RESULT:      -6.5      0.000      0.000
REMARK  8 active torsions:
REMARK  status: ('A' for Active; 'I' for Inactive)
REMARK    1  A    between atoms: N_2  and  C_3 
REMARK    2  A    between atoms: N_13  and  C_14 
REMARK    3  A    between atoms: C_14  and  C_15 
REMARK    4  A    between atoms: C_15  and  O_16 
REMARK    5  A    between atoms: C_15  and  C_17 
REMARK    6  A    between atoms: C_17  and  O_18 
REMARK    7  A    between atoms: O_18  and  C_19 
REMARK    8  A    between atoms: C_19  and  C_20 
ROOT
HETATM    1  C   UNL     1     -39.693 -50.157  11.375  1.00  0.00     0.112 A 
HETATM    2  N   UNL     1     -38.492 -49.808  10.865  1.00  0.00    -0.341 N 
ATOM      3  HN  UNL     1     -38.434 -49.281   9.994  1.00  0.00     0.167 HD
HETATM    4  C   UNL     1     -37.370 -50.163  11.522  1.00  0.00     0.183 A 
HETATM    5  N   UNL     1     -37.264 -50.866  12.652  1.00  0.00    -0.337 N 
ATOM      6  HN  UNL     1     -36.375 -51.099  13.094  1.00  0.00     0.168 HD
HETATM    7  C   UNL     1     -38.462 -51.232  13.141  1.00  0.00     0.137 A 
HETATM    8  N   UNL     1     -38.644 -51.983  14.269  1.00  0.00    -0.336 N 
ATOM      9  HN  UNL     1     -37.927 -52.359  14.888  1.00  0.00     0.168 HD
HETATM   10  C   UNL     1     -39.948 -52.114  14.380  1.00  0.00     0.185 A 
HETATM   11  N   UNL     1     -40.616 -51.461  13.382  1.00  0.00    -0.335 N 
HETATM   12  C   UNL     1     -39.670 -50.892  12.556  1.00  0.00     0.118 A 
ENDROOT
BRANCH  11  13
HETATM   13  C   UNL     1     -42.053 -51.353  13.197  1.00  0.00     0.164 C 
BRANCH  13  14
HETATM   14  C   UNL     1     -42.731 -52.375  12.271  1.00  0.00     0.160 C 
BRANCH  14  15
HETATM   15  O   UNL     1     -41.864 -52.764  11.200  1.00  0.00    -0.392 OA
HETATM   16  H   UNL     1     -41.898 -53.731  11.095  1.00  0.00     0.210 HD
ENDBRANCH  14  15
BRANCH  14  17
HETATM   17  C   UNL     1     -43.139 -53.628  13.062  1.00  0.00     0.201 C 
BRANCH  17  18
HETATM   18  O   UNL     1     -44.332 -54.164  12.508  1.00  0.00    -0.384 OA
BRANCH  18  19
HETATM   19  C   UNL     1     -45.239 -54.632  13.504  1.00  0.00     0.206 C 
BRANCH  19  20
HETATM   20  C   UNL     1     -45.738 -53.490  14.357  1.00  0.00    -0.035 A 
HETATM   21  C   UNL     1     -45.534 -53.445  15.745  1.00  0.00     0.009 A 
HETATM   22  C   UNL     1     -46.013 -52.377  16.505  1.00  0.00     0.001 A 
HETATM   23  C   UNL     1     -46.704 -51.338  15.888  1.00  0.00     0.000 A 
HETATM   24  C   UNL     1     -46.913 -51.365  14.510  1.00  0.00     0.001 A 
HETATM   25  C   UNL     1     -46.435 -52.433  13.749  1.00  0.00     0.009 A 
ENDBRANCH  19  20
ENDBRANCH  18  19
ENDBRANCH  17  18
ENDBRANCH  14  17
ENDBRANCH  13  14
ENDBRANCH  11  13
BRANCH   1  26
HETATM   26  N   UNL     1     -40.881 -49.799  10.734  1.00  0.00    -0.281 NA
HETATM   27  C   UNL     1     -41.303 -48.424  10.933  1.00  0.00     0.114 C 
HETATM   28  H   UNL     1     -41.613 -50.464  10.958  1.00  0.00     0.128 HD
ENDBRANCH   1  26
TORSDOF 8
ENDMDL
MODEL 2
REMARK VINA RESULT:      -6.4      2.778      5.014
REMARK  8 active torsions:
REMARK  status: ('A' for Active; 'I' for Inactive)
REMARK    1  A    between atoms: N_2  and  C_3 
REMARK    2  A    between atoms: N_13  and  C_14 
REMARK    3  A    between atoms: C_14  and  C_15 
REMARK    4  A    between atoms: C_15  and  O_16 
REMARK    5  A    between atoms: C_15  and  C_17 
REMARK    6  A    between atoms: C_17  and  O_18 
REMARK    7  A    between atoms: O_18  and  C_19 
REMARK    8  A    between atoms: C_19  and  C_20 
ROOT
HETATM    1  C   UNL     1     -42.818 -48.364  11.059  1.00  0.00     0.112 A 
HETATM    2  N   UNL     1     -43.960 -47.962  10.460  1.00  0.00    -0.341 N 
ATOM      3  HN  UNL     1     -44.795 -48.546  10.496  1.00  0.00     0.167 HD
HETATM    4  C   UNL     1     -43.983 -46.779   9.815  1.00  0.00     0.183 A 
HETATM    5  N   UNL     1     -42.983 -45.909   9.653  1.00  0.00    -0.337 N 
ATOM      6  HN  UNL     1     -43.075 -45.027   9.149  1.00  0.00     0.168 HD
HETATM    7  C   UNL     1     -41.843 -46.327  10.229  1.00  0.00     0.137 A 
HETATM    8  N   UNL     1     -40.658 -45.646  10.192  1.00  0.00    -0.336 N 
ATOM      9  HN  UNL     1     -40.470 -44.750   9.742  1.00  0.00     0.168 HD
HETATM   10  C   UNL     1     -39.814 -46.399  10.862  1.00  0.00     0.185 A 
HETATM   11  N   UNL     1     -40.410 -47.529  11.349  1.00  0.00    -0.335 N 
HETATM   12  C   UNL     1     -41.726 -47.511  10.938  1.00  0.00     0.118 A 
ENDROOT
BRANCH  11  13
HETATM   13  C   UNL     1     -39.807 -48.573  12.161  1.00  0.00     0.164 C 
BRANCH  13  14
HETATM   14  C   UNL     1     -39.497 -49.915  11.480  1.00  0.00     0.160 C 
BRANCH  14  15
HETATM   15  O   UNL     1     -38.185 -49.917  10.906  1.00  0.00    -0.392 OA
HETATM   16  H   UNL     1     -37.849 -50.830  10.876  1.00  0.00     0.210 HD
ENDBRANCH  14  15
BRANCH  14  17
HETATM   17  C   UNL     1     -39.599 -51.066  12.493  1.00  0.00     0.201 C 
BRANCH  17  18
HETATM   18  O   UNL     1     -40.787 -51.805  12.244  1.00  0.00    -0.384 OA
BRANCH  18  19
HETATM   19  C   UNL     1     -40.708 -53.149  12.713  1.00  0.00     0.206 C 
BRANCH  19  20
HETATM   20  C   UNL     1     -42.066 -53.646  13.150  1.00  0.00    -0.035 A 
HETATM   21  C   UNL     1     -42.238 -54.463  14.278  1.00  0.00     0.009 A 
HETATM   22  C   UNL     1     -43.506 -54.911  14.651  1.00  0.00     0.001 A 
HETATM   23  C   UNL     1     -44.622 -54.546  13.901  1.00  0.00     0.000 A 
HETATM   24  C   UNL     1     -44.469 -53.733  12.779  1.00  0.00     0.001 A 
HETATM   25  C   UNL     1     -43.200 -53.287  12.405  1.00  0.00     0.009 A 
ENDBRANCH  19  20
ENDBRANCH  18  19
ENDBRANCH  17  18
ENDBRANCH  14  17
ENDBRANCH  13  14
ENDBRANCH  11  13
BRANCH   1  26
HETATM   26  N   UNL     1     -42.752 -49.577  11.749  1.00  0.00    -0.281 NA
HETATM   27  C   UNL     1     -43.268 -49.547  13.106  1.00  0.00     0.114 C 
HETATM   28  H   UNL     1     -41.814 -49.957  11.700  1.00  0.00     0.128 HD
ENDBRANCH   1  26
TORSDOF 8
ENDMDL
MODEL 3
REMARK VINA RESULT:      -6.2      0.803      2.541
REMARK  8 active torsions:
REMARK  status: ('A' for Active; 'I' for Inactive)
REMARK    1  A    between atoms: N_2  and  C_3 
REMARK    2  A    between atoms: N_13  and  C_14 
REMARK    3  A    between atoms: C_14  and  C_15 
REMARK    4  A    between atoms: C_15  and  O_16 
REMARK    5  A    between atoms: C_15  and  C_17 
REMARK    6  A    between atoms: C_17  and  O_18 
REMARK    7  A    between atoms: O_18  and  C_19 
REMARK    8  A    between atoms: C_19  and  C_20 
ROOT
HETATM    1  C   UNL     1     -38.690 -51.337  12.805  1.00  0.00     0.112 A 
HETATM    2  N   UNL     1     -37.498 -50.826  12.428  1.00  0.00    -0.341 N 
ATOM      3  HN  UNL     1     -36.629 -51.255  12.746  1.00  0.00     0.167 HD
HETATM    4  C   UNL     1     -37.470 -49.744  11.626  1.00  0.00     0.183 A 
HETATM    5  N   UNL     1     -38.503 -49.051  11.141  1.00  0.00    -0.337 N 
ATOM      6  HN  UNL     1     -38.405 -48.236  10.535  1.00  0.00     0.168 HD
HETATM    7  C   UNL     1     -39.686 -49.549  11.540  1.00  0.00     0.137 A 
HETATM    8  N   UNL     1     -40.903 -49.017  11.215  1.00  0.00    -0.336 N 
ATOM      9  HN  UNL     1     -41.088 -48.197  10.639  1.00  0.00     0.168 HD
HETATM   10  C   UNL     1     -41.781 -49.794  11.809  1.00  0.00     0.185 A 
HETATM   11  N   UNL     1     -41.182 -50.819  12.487  1.00  0.00    -0.335 N 
HETATM   12  C   UNL     1     -39.820 -50.673  12.338  1.00  0.00     0.118 A 
ENDROOT
BRANCH  11  13
HETATM   13  C   UNL     1     -41.826 -51.890  13.230  1.00  0.00     0.164 C 
BRANCH  13  14
HETATM   14  C   UNL     1     -42.175 -53.178  12.465  1.00  0.00     0.160 C 
BRANCH  14  15
HETATM   15  O   UNL     1     -40.995 -53.898  12.092  1.00  0.00    -0.392 OA
HETATM   16  H   UNL     1     -40.287 -53.708  12.733  1.00  0.00     0.210 HD
ENDBRANCH  14  15
BRANCH  14  17
HETATM   17  C   UNL     1     -43.063 -54.089  13.328  1.00  0.00     0.201 C 
BRANCH  17  18
HETATM   18  O   UNL     1     -44.299 -54.302  12.662  1.00  0.00    -0.384 OA
BRANCH  18  19
HETATM   19  C   UNL     1     -45.333 -54.733  13.545  1.00  0.00     0.206 C 
BRANCH  19  20
HETATM   20  C   UNL     1     -45.925 -53.560  14.291  1.00  0.00    -0.035 A 
HETATM   21  C   UNL     1     -46.322 -52.381  13.642  1.00  0.00     0.009 A 
HETATM   22  C   UNL     1     -46.861 -51.313  14.362  1.00  0.00     0.001 A 
HETATM   23  C   UNL     1     -47.010 -51.410  15.743  1.00  0.00     0.000 A 
HETATM   24  C   UNL     1     -46.622 -52.575  16.404  1.00  0.00     0.001 A 
HETATM   25  C   UNL     1     -46.082 -53.642  15.683  1.00  0.00     0.009 A 
ENDBRANCH  19  20
ENDBRANCH  18  19
ENDBRANCH  17  18
ENDBRANCH  14  17
ENDBRANCH  13  14
ENDBRANCH  11  13
BRANCH   1  26
HETATM   26  N   UNL     1     -38.766 -52.465  13.625  1.00  0.00    -0.281 NA
HETATM   27  C   UNL     1     -38.800 -52.194  15.051  1.00  0.00     0.114 C 
HETATM   28  H   UNL     1     -38.042 -53.129  13.376  1.00  0.00     0.128 HD
ENDBRANCH   1  26
TORSDOF 8
ENDMDL
MODEL 4
REMARK VINA RESULT:      -6.2      2.808      4.288
REMARK  8 active torsions:
REMARK  status: ('A' for Active; 'I' for Inactive)
REMARK    1  A    between atoms: N_2  and  C_3 
REMARK    2  A    between atoms: N_13  and  C_14 
REMARK    3  A    between atoms: C_14  and  C_15 
REMARK    4  A    between atoms: C_15  and  O_16 
REMARK    5  A    between atoms: C_15  and  C_17 
REMARK    6  A    between atoms: C_17  and  O_18 
REMARK    7  A    between atoms: O_18  and  C_19 
REMARK    8  A    between atoms: C_19  and  C_20 
ROOT
HETATM    1  C   UNL     1     -41.316 -46.865  10.476  1.00  0.00     0.112 A 
HETATM    2  N   UNL     1     -40.988 -45.661   9.960  1.00  0.00    -0.341 N 
ATOM      3  HN  UNL     1     -41.334 -45.381   9.043  1.00  0.00     0.167 HD
HETATM    4  C   UNL     1     -40.198 -44.833  10.672  1.00  0.00     0.183 A 
HETATM    5  N   UNL     1     -39.645 -45.049  11.868  1.00  0.00    -0.337 N 
ATOM      6  HN  UNL     1     -39.054 -44.371  12.350  1.00  0.00     0.168 HD
HETATM    7  C   UNL     1     -39.954 -46.259  12.365  1.00  0.00     0.137 A 
HETATM    8  N   UNL     1     -39.499 -46.749  13.557  1.00  0.00    -0.336 N 
ATOM      9  HN  UNL     1     -38.884 -46.286  14.226  1.00  0.00     0.168 HD
HETATM   10  C   UNL     1     -40.028 -47.949  13.654  1.00  0.00     0.185 A 
HETATM   11  N   UNL     1     -40.824 -48.245  12.582  1.00  0.00    -0.335 N 
HETATM   12  C   UNL     1     -40.780 -47.167  11.724  1.00  0.00     0.118 A 
ENDROOT
BRANCH  11  13
HETATM   13  C   UNL     1     -41.597 -49.455  12.357  1.00  0.00     0.164 C 
BRANCH  13  14
HETATM   14  C   UNL     1     -40.912 -50.610  11.609  1.00  0.00     0.160 C 
BRANCH  14  15
HETATM   15  O   UNL     1     -40.305 -50.157  10.394  1.00  0.00    -0.392 OA
HETATM   16  H   UNL     1     -40.997 -49.843   9.787  1.00  0.00     0.210 HD
ENDBRANCH  14  15
BRANCH  14  17
HETATM   17  C   UNL     1     -39.834 -51.257  12.494  1.00  0.00     0.201 C 
BRANCH  17  18
HETATM   18  O   UNL     1     -40.457 -52.121  13.433  1.00  0.00    -0.384 OA
BRANCH  18  19
HETATM   19  C   UNL     1     -40.764 -53.401  12.884  1.00  0.00     0.206 C 
BRANCH  19  20
HETATM   20  C   UNL     1     -42.150 -53.842  13.291  1.00  0.00    -0.035 A 
HETATM   21  C   UNL     1     -43.298 -53.466  12.576  1.00  0.00     0.009 A 
HETATM   22  C   UNL     1     -44.565 -53.885  12.984  1.00  0.00     0.001 A 
HETATM   23  C   UNL     1     -44.703 -54.688  14.113  1.00  0.00     0.000 A 
HETATM   24  C   UNL     1     -43.574 -55.072  14.835  1.00  0.00     0.001 A 
HETATM   25  C   UNL     1     -42.306 -54.651  14.428  1.00  0.00     0.009 A 
ENDBRANCH  19  20
ENDBRANCH  18  19
ENDBRANCH  17  18
ENDBRANCH  14  17
ENDBRANCH  13  14
ENDBRANCH  11  13
BRANCH   1  26
HETATM   26  N   UNL     1     -42.142 -47.750   9.778  1.00  0.00    -0.281 NA
HETATM   27  C   UNL     1     -43.541 -47.368   9.710  1.00  0.00     0.114 C 
HETATM   28  H   UNL     1     -42.015 -48.694  10.125  1.00  0.00     0.128 HD
ENDBRANCH   1  26
TORSDOF 8
ENDMDL
MODEL 5
REMARK VINA RESULT:      -6.2      2.839      4.936
REMARK  8 active torsions:
REMARK  status: ('A' for Active; 'I' for Inactive)
REMARK    1  A    between atoms: N_2  and  C_3 
REMARK    2  A    between atoms: N_13  and  C_14 
REMARK    3  A    between atoms: C_14  and  C_15 
REMARK    4  A    between atoms: C_15  and  O_16 
REMARK    5  A    between atoms: C_15  and  C_17 
REMARK    6  A    between atoms: C_17  and  O_18 
REMARK    7  A    between atoms: O_18  and  C_19 
REMARK    8  A    between atoms: C_19  and  C_20 
ROOT
HETATM    1  C   UNL     1     -41.455 -46.728  10.339  1.00  0.00     0.112 A 
HETATM    2  N   UNL     1     -42.281 -45.948   9.608  1.00  0.00    -0.341 N 
ATOM      3  HN  UNL     1     -41.907 -45.177   9.054  1.00  0.00     0.167 HD
HETATM    4  C   UNL     1     -43.605 -46.199   9.620  1.00  0.00     0.183 A 
HETATM    5  N   UNL     1     -44.258 -47.144  10.300  1.00  0.00    -0.337 N 
ATOM      6  HN  UNL     1     -45.269 -47.277  10.259  1.00  0.00     0.168 HD
HETATM    7  C   UNL     1     -43.434 -47.901  11.044  1.00  0.00     0.137 A 
HETATM    8  N   UNL     1     -43.839 -48.920  11.861  1.00  0.00    -0.336 N 
ATOM      9  HN  UNL     1     -44.791 -49.250  12.017  1.00  0.00     0.168 HD
HETATM   10  C   UNL     1     -42.733 -49.382  12.400  1.00  0.00     0.185 A 
HETATM   11  N   UNL     1     -41.627 -48.717  11.949  1.00  0.00    -0.335 N 
HETATM   12  C   UNL     1     -42.059 -47.741  11.077  1.00  0.00     0.118 A 
ENDROOT
BRANCH  11  13
HETATM   13  C   UNL     1     -40.237 -48.969  12.292  1.00  0.00     0.164 C 
BRANCH  13  14
HETATM   14  C   UNL     1     -39.560 -50.199  11.666  1.00  0.00     0.160 C 
BRANCH  14  15
HETATM   15  O   UNL     1     -38.367 -49.836  10.963  1.00  0.00    -0.392 OA
HETATM   16  H   UNL     1     -38.443 -48.916  10.656  1.00  0.00     0.210 HD
ENDBRANCH  14  15
BRANCH  14  17
HETATM   17  C   UNL     1     -39.205 -51.226  12.753  1.00  0.00     0.201 C 
BRANCH  17  18
HETATM   18  O   UNL     1     -39.997 -52.391  12.573  1.00  0.00    -0.384 OA
BRANCH  18  19
HETATM   19  C   UNL     1     -40.492 -52.916  13.803  1.00  0.00     0.206 C 
BRANCH  19  20
HETATM   20  C   UNL     1     -41.907 -53.420  13.641  1.00  0.00    -0.035 A 
HETATM   21  C   UNL     1     -42.740 -52.994  12.596  1.00  0.00     0.009 A 
HETATM   22  C   UNL     1     -44.046 -53.474  12.480  1.00  0.00     0.001 A 
HETATM   23  C   UNL     1     -44.536 -54.389  13.408  1.00  0.00     0.000 A 
HETATM   24  C   UNL     1     -43.721 -54.825  14.452  1.00  0.00     0.001 A 
HETATM   25  C   UNL     1     -42.416 -54.343  14.569  1.00  0.00     0.009 A 
ENDBRANCH  19  20
ENDBRANCH  18  19
ENDBRANCH  17  18
ENDBRANCH  14  17
ENDBRANCH  13  14
ENDBRANCH  11  13
BRANCH   1  26
HETATM   26  N   UNL     1     -40.075 -46.511  10.347  1.00  0.00    -0.281 NA
HETATM   27  C   UNL     1     -39.667 -45.126  10.505  1.00  0.00     0.114 C 
HETATM   28  H   UNL     1     -39.647 -46.950   9.540  1.00  0.00     0.128 HD
ENDBRANCH   1  26
TORSDOF 8
ENDMDL
MODEL 6
REMARK VINA RESULT:      -6.2      1.726      2.747
REMARK  8 active torsions:
REMARK  status: ('A' for Active; 'I' for Inactive)
REMARK    1  A    between atoms: N_2  and  C_3 
REMARK    2  A    between atoms: N_13  and  C_14 
REMARK    3  A    between atoms: C_14  and  C_15 
REMARK    4  A    between atoms: C_15  and  O_16 
REMARK    5  A    between atoms: C_15  and  C_17 
REMARK    6  A    between atoms: C_17  and  O_18 
REMARK    7  A    between atoms: O_18  and  C_19 
REMARK    8  A    between atoms: C_19  and  C_20 
ROOT
HETATM    1  C   UNL     1     -39.616 -49.194  11.638  1.00  0.00     0.112 A 
HETATM    2  N   UNL     1     -39.596 -47.937  11.144  1.00  0.00    -0.341 N 
ATOM      3  HN  UNL     1     -39.046 -47.717  10.314  1.00  0.00     0.167 HD
HETATM    4  C   UNL     1     -40.311 -46.976  11.762  1.00  0.00     0.183 A 
HETATM    5  N   UNL     1     -41.060 -47.085  12.861  1.00  0.00    -0.337 N 
ATOM      6  HN  UNL     1     -41.578 -46.309  13.274  1.00  0.00     0.168 HD
HETATM    7  C   UNL     1     -41.056 -48.332  13.362  1.00  0.00     0.137 A 
HETATM    8  N   UNL     1     -41.714 -48.716  14.497  1.00  0.00    -0.336 N 
ATOM      9  HN  UNL     1     -42.289 -48.137  15.108  1.00  0.00     0.168 HD
HETATM   10  C   UNL     1     -41.443 -49.996  14.629  1.00  0.00     0.185 A 
HETATM   11  N   UNL     1     -40.653 -50.459  13.614  1.00  0.00    -0.335 N 
HETATM   12  C   UNL     1     -40.377 -49.392  12.785  1.00  0.00     0.118 A 
ENDROOT
BRANCH  11  13
HETATM   13  C   UNL     1     -40.180 -51.817  13.404  1.00  0.00     0.164 C 
BRANCH  13  14
HETATM   14  C   UNL     1     -41.080 -52.770  12.600  1.00  0.00     0.160 C 
BRANCH  14  15
HETATM   15  O   UNL     1     -40.454 -53.167  11.375  1.00  0.00    -0.392 OA
HETATM   16  H   UNL     1     -39.939 -52.421  11.021  1.00  0.00     0.210 HD
ENDBRANCH  14  15
BRANCH  14  17
HETATM   17  C   UNL     1     -41.404 -54.025  13.424  1.00  0.00     0.201 C 
BRANCH  17  18
HETATM   18  O   UNL     1     -42.761 -54.386  13.212  1.00  0.00    -0.384 OA
BRANCH  18  19
HETATM   19  C   UNL     1     -43.559 -54.246  14.385  1.00  0.00     0.206 C 
BRANCH  19  20
HETATM   20  C   UNL     1     -44.675 -53.253  14.161  1.00  0.00    -0.035 A 
HETATM   21  C   UNL     1     -45.309 -53.105  12.918  1.00  0.00     0.009 A 
HETATM   22  C   UNL     1     -46.333 -52.173  12.742  1.00  0.00     0.001 A 
HETATM   23  C   UNL     1     -46.738 -51.375  13.809  1.00  0.00     0.000 A 
HETATM   24  C   UNL     1     -46.121 -51.511  15.052  1.00  0.00     0.001 A 
HETATM   25  C   UNL     1     -45.095 -52.442  15.227  1.00  0.00     0.009 A 
ENDBRANCH  19  20
ENDBRANCH  18  19
ENDBRANCH  17  18
ENDBRANCH  14  17
ENDBRANCH  13  14
ENDBRANCH  11  13
BRANCH   1  26
HETATM   26  N   UNL     1     -38.899 -50.223  11.024  1.00  0.00    -0.281 NA
HETATM   27  C   UNL     1     -37.465 -50.205  11.255  1.00  0.00     0.114 C 
HETATM   28  H   UNL     1     -39.130 -50.271  10.038  1.00  0.00     0.128 HD
ENDBRANCH   1  26
TORSDOF 8
ENDMDL
MODEL 7
REMARK VINA RESULT:      -5.9      1.725      2.860
REMARK  8 active torsions:
REMARK  status: ('A' for Active; 'I' for Inactive)
REMARK    1  A    between atoms: N_2  and  C_3 
REMARK    2  A    between atoms: N_13  and  C_14 
REMARK    3  A    between atoms: C_14  and  C_15 
REMARK    4  A    between atoms: C_15  and  O_16 
REMARK    5  A    between atoms: C_15  and  C_17 
REMARK    6  A    between atoms: C_17  and  O_18 
REMARK    7  A    between atoms: O_18  and  C_19 
REMARK    8  A    between atoms: C_19  and  C_20 
ROOT
HETATM    1  C   UNL     1     -41.294 -48.819  12.928  1.00  0.00     0.112 A 
HETATM    2  N   UNL     1     -41.542 -47.547  12.548  1.00  0.00    -0.341 N 
ATOM      3  HN  UNL     1     -42.394 -47.075  12.850  1.00  0.00     0.167 HD
HETATM    4  C   UNL     1     -40.651 -46.909  11.764  1.00  0.00     0.183 A 
HETATM    5  N   UNL     1     -39.507 -47.382  11.264  1.00  0.00    -0.337 N 
ATOM      6  HN  UNL     1     -38.878 -46.837  10.674  1.00  0.00     0.168 HD
HETATM    7  C   UNL     1     -39.277 -48.656  11.625  1.00  0.00     0.137 A 
HETATM    8  N   UNL     1     -38.196 -49.394  11.230  1.00  0.00    -0.336 N 
ATOM      9  HN  UNL     1     -37.428 -49.097  10.629  1.00  0.00     0.168 HD
HETATM   10  C   UNL     1     -38.364 -50.569  11.795  1.00  0.00     0.185 A 
HETATM   11  N   UNL     1     -39.499 -50.614  12.556  1.00  0.00    -0.335 N 
HETATM   12  C   UNL     1     -40.117 -49.386  12.450  1.00  0.00     0.118 A 
ENDROOT
BRANCH  11  13
HETATM   13  C   UNL     1     -39.992 -51.725  13.353  1.00  0.00     0.164 C 
BRANCH  13  14
HETATM   14  C   UNL     1     -40.989 -52.690  12.691  1.00  0.00     0.160 C 
BRANCH  14  15
HETATM   15  O   UNL     1     -40.488 -53.180  11.442  1.00  0.00    -0.392 OA
HETATM   16  H   UNL     1     -40.364 -54.143  11.501  1.00  0.00     0.210 HD
ENDBRANCH  14  15
BRANCH  14  17
HETATM   17  C   UNL     1     -41.274 -53.884  13.616  1.00  0.00     0.201 C 
BRANCH  17  18
HETATM   18  O   UNL     1     -42.608 -54.326  13.411  1.00  0.00    -0.384 OA
BRANCH  18  19
HETATM   19  C   UNL     1     -43.455 -54.058  14.525  1.00  0.00     0.206 C 
BRANCH  19  20
HETATM   20  C   UNL     1     -44.625 -53.196  14.116  1.00  0.00    -0.035 A 
HETATM   21  C   UNL     1     -45.089 -53.140  12.793  1.00  0.00     0.009 A 
HETATM   22  C   UNL     1     -46.170 -52.327  12.447  1.00  0.00     0.001 A 
HETATM   23  C   UNL     1     -46.804 -51.559  13.420  1.00  0.00     0.000 A 
HETATM   24  C   UNL     1     -46.357 -51.604  14.740  1.00  0.00     0.001 A 
HETATM   25  C   UNL     1     -45.275 -52.416  15.086  1.00  0.00     0.009 A 
ENDBRANCH  19  20
ENDBRANCH  18  19
ENDBRANCH  17  18
ENDBRANCH  14  17
ENDBRANCH  13  14
ENDBRANCH  11  13
BRANCH   1  26
HETATM   26  N   UNL     1     -42.184 -49.514  13.750  1.00  0.00    -0.281 NA
HETATM   27  C   UNL     1     -43.476 -49.807  13.156  1.00  0.00     0.114 C 
HETATM   28  H   UNL     1     -42.267 -49.050  14.647  1.00  0.00     0.128 HD
ENDBRANCH   1  26
TORSDOF 8
ENDMDL
MODEL 8
REMARK VINA RESULT:      -5.9      3.326      5.064
REMARK  8 active torsions:
REMARK  status: ('A' for Active; 'I' for Inactive)
REMARK    1  A    between atoms: N_2  and  C_3 
REMARK    2  A    between atoms: N_13  and  C_14 
REMARK    3  A    between atoms: C_14  and  C_15 
REMARK    4  A    between atoms: C_15  and  O_16 
REMARK    5  A    between atoms: C_15  and  C_17 
REMARK    6  A    between atoms: C_17  and  O_18 
REMARK    7  A    between atoms: O_18  and  C_19 
REMARK    8  A    between atoms: C_19  and  C_20 
ROOT
HETATM    1  C   UNL     1     -42.703 -45.901  10.969  1.00  0.00     0.112 A 
HETATM    2  N   UNL     1     -43.432 -45.815   9.835  1.00  0.00    -0.341 N 
ATOM      3  HN  UNL     1     -44.042 -45.014   9.673  1.00  0.00     0.167 HD
HETATM    4  C   UNL     1     -43.343 -46.800   8.920  1.00  0.00     0.183 A 
HETATM    5  N   UNL     1     -42.618 -47.919   8.982  1.00  0.00    -0.337 N 
ATOM      6  HN  UNL     1     -42.599 -48.625   8.245  1.00  0.00     0.168 HD
HETATM    7  C   UNL     1     -41.915 -48.011  10.124  1.00  0.00     0.137 A 
HETATM    8  N   UNL     1     -41.113 -49.066  10.460  1.00  0.00    -0.336 N 
ATOM      9  HN  UNL     1     -40.930 -49.907   9.913  1.00  0.00     0.168 HD
HETATM   10  C   UNL     1     -40.628 -48.759  11.643  1.00  0.00     0.185 A 
HETATM   11  N   UNL     1     -41.068 -47.539  12.076  1.00  0.00    -0.335 N 
HETATM   12  C   UNL     1     -41.917 -47.040  11.111  1.00  0.00     0.118 A 
ENDROOT
BRANCH  11  13
HETATM   13  C   UNL     1     -40.721 -46.855  13.310  1.00  0.00     0.164 C 
BRANCH  13  14
HETATM   14  C   UNL     1     -41.620 -47.094  14.535  1.00  0.00     0.160 C 
BRANCH  14  15
HETATM   15  O   UNL     1     -42.973 -46.708  14.270  1.00  0.00    -0.392 OA
HETATM   16  H   UNL     1     -43.015 -45.743  14.153  1.00  0.00     0.210 HD
ENDBRANCH  14  15
BRANCH  14  17
HETATM   17  C   UNL     1     -41.593 -48.576  14.938  1.00  0.00     0.201 C 
BRANCH  17  18
HETATM   18  O   UNL     1     -42.897 -48.976  15.335  1.00  0.00    -0.384 OA
BRANCH  18  19
HETATM   19  C   UNL     1     -43.051 -50.393  15.372  1.00  0.00     0.206 C 
BRANCH  19  20
HETATM   20  C   UNL     1     -44.383 -50.805  14.790  1.00  0.00    -0.035 A 
HETATM   21  C   UNL     1     -44.571 -51.007  13.414  1.00  0.00     0.009 A 
HETATM   22  C   UNL     1     -45.817 -51.381  12.908  1.00  0.00     0.001 A 
HETATM   23  C   UNL     1     -46.894 -51.558  13.773  1.00  0.00     0.000 A 
HETATM   24  C   UNL     1     -46.725 -51.364  15.143  1.00  0.00     0.001 A 
HETATM   25  C   UNL     1     -45.479 -50.988  15.648  1.00  0.00     0.009 A 
ENDBRANCH  19  20
ENDBRANCH  18  19
ENDBRANCH  17  18
ENDBRANCH  14  17
ENDBRANCH  13  14
ENDBRANCH  11  13
BRANCH   1  26
HETATM   26  N   UNL     1     -42.755 -44.898  11.940  1.00  0.00    -0.281 NA
HETATM   27  C   UNL     1     -41.974 -43.710  11.646  1.00  0.00     0.114 C 
HETATM   28  H   UNL     1     -42.544 -45.283  12.853  1.00  0.00     0.128 HD
ENDBRANCH   1  26
TORSDOF 8
ENDMDL
MODEL 9
REMARK VINA RESULT:      -5.8      2.380      2.884
REMARK  8 active torsions:
REMARK  status: ('A' for Active; 'I' for Inactive)
REMARK    1  A    between atoms: N_2  and  C_3 
REMARK    2  A    between atoms: N_13  and  C_14 
REMARK    3  A    between atoms: C_14  and  C_15 
REMARK    4  A    between atoms: C_15  and  O_16 
REMARK    5  A    between atoms: C_15  and  C_17 
REMARK    6  A    between atoms: C_17  and  O_18 
REMARK    7  A    between atoms: O_18  and  C_19 
REMARK    8  A    between atoms: C_19  and  C_20 
ROOT
HETATM    1  C   UNL     1     -41.449 -47.625  10.678  1.00  0.00     0.112 A 
HETATM    2  N   UNL     1     -40.840 -46.517  10.202  1.00  0.00    -0.341 N 
ATOM      3  HN  UNL     1     -41.023 -46.196   9.251  1.00  0.00     0.167 HD
HETATM    4  C   UNL     1     -39.990 -45.840  10.998  1.00  0.00     0.183 A 
HETATM    5  N   UNL     1     -39.624 -46.131  12.248  1.00  0.00    -0.337 N 
ATOM      6  HN  UNL     1     -38.970 -45.568  12.794  1.00  0.00     0.168 HD
HETATM    7  C   UNL     1     -40.213 -47.248  12.708  1.00  0.00     0.137 A 
HETATM    8  N   UNL     1     -39.994 -47.790  13.944  1.00  0.00    -0.336 N 
ATOM      9  HN  UNL     1     -39.379 -47.439  14.677  1.00  0.00     0.168 HD
HETATM   10  C   UNL     1     -40.751 -48.865  13.980  1.00  0.00     0.185 A 
HETATM   11  N   UNL     1     -41.466 -49.027  12.826  1.00  0.00    -0.335 N 
HETATM   12  C   UNL     1     -41.122 -47.996  11.978  1.00  0.00     0.118 A 
ENDROOT
BRANCH  11  13
HETATM   13  C   UNL     1     -42.428 -50.072  12.515  1.00  0.00     0.164 C 
BRANCH  13  14
HETATM   14  C   UNL     1     -41.879 -51.462  12.154  1.00  0.00     0.160 C 
BRANCH  14  15
HETATM   15  O   UNL     1     -40.522 -51.385  11.705  1.00  0.00    -0.392 OA
HETATM   16  H   UNL     1     -40.456 -51.772  10.815  1.00  0.00     0.210 HD
ENDBRANCH  14  15
BRANCH  14  17
HETATM   17  C   UNL     1     -41.949 -52.398  13.370  1.00  0.00     0.201 C 
BRANCH  17  18
HETATM   18  O   UNL     1     -42.695 -53.557  13.026  1.00  0.00    -0.384 OA
BRANCH  18  19
HETATM   19  C   UNL     1     -43.919 -53.248  12.363  1.00  0.00     0.206 C 
BRANCH  19  20
HETATM   20  C   UNL     1     -45.017 -52.975  13.363  1.00  0.00    -0.035 A 
HETATM   21  C   UNL     1     -45.443 -53.937  14.292  1.00  0.00     0.009 A 
HETATM   22  C   UNL     1     -46.466 -53.654  15.199  1.00  0.00     0.001 A 
HETATM   23  C   UNL     1     -47.078 -52.404  15.190  1.00  0.00     0.000 A 
HETATM   24  C   UNL     1     -46.667 -51.435  14.275  1.00  0.00     0.001 A 
HETATM   25  C   UNL     1     -45.645 -51.719  13.367  1.00  0.00     0.009 A 
ENDBRANCH  19  20
ENDBRANCH  18  19
ENDBRANCH  17  18
ENDBRANCH  14  17
ENDBRANCH  13  14
ENDBRANCH  11  13
BRANCH   1  26
HETATM   26  N   UNL     1     -42.347 -48.350   9.892  1.00  0.00    -0.281 NA
HETATM   27  C   UNL     1     -43.401 -47.567   9.272  1.00  0.00     0.114 C 
HETATM   28  H   UNL     1     -42.709 -49.141  10.413  1.00  0.00     0.128 HD
ENDBRANCH   1  26
TORSDOF 8
ENDMDL
