MODEL 1
REMARK VINA RESULT:      -6.5      0.000      0.000
REMARK  3 active torsions:
REMARK  status: ('A' for Active; 'I' for Inactive)
REMARK    1  A    between atoms: C_4  and  N_5 
REMARK       I    between atoms: N_5  and  C_6 
REMARK       I    between atoms: C_6  and  N_8 
REMARK    2  A    between atoms: N_8  and  C_9 
REMARK    3  A    between atoms: C_12  and  O_13 
ROOT
HETATM    1  N   UNL     1     -41.505 -47.792  10.189  1.00  0.00    -0.293 N 
HETATM    2  C   UNL     1     -41.071 -48.708  11.113  1.00  0.00     0.322 C 
HETATM    3  O   UNL     1     -39.943 -48.616  11.590  1.00  0.00    -0.247 OA
HETATM    4  N   UNL     1     -41.941 -49.720  11.396  1.00  0.00    -0.338 N 
HETATM    5  H   UNL     1     -40.807 -47.122   9.905  1.00  0.00     0.172 HD
HETATM    6  H   UNL     1     -42.893 -49.564  11.077  1.00  0.00     0.164 HD
ENDROOT
BRANCH   1   7
HETATM    7  C   UNL     1     -42.745 -47.751   9.576  1.00  0.00     0.132 A 
HETATM    8  C   UNL     1     -43.959 -47.396  10.209  1.00  0.00     0.084 A 
HETATM    9  C   UNL     1     -44.883 -47.382   9.188  1.00  0.00     0.076 A 
HETATM   10  C   UNL     1     -46.300 -47.006   9.070  1.00  0.00     0.079 C 
HETATM   11  O   UNL     1     -44.286 -47.788   8.042  1.00  0.00    -0.241 OA
HETATM   12  N   UNL     1     -42.954 -48.022   8.282  1.00  0.00    -0.245 N 
ATOM     13  HN  UNL     1     -42.260 -48.341   7.606  1.00  0.00     0.196 HD
ENDBRANCH   1   7
BRANCH   4  14
HETATM   14  C   UNL     1     -41.769 -50.777  12.363  1.00  0.00     0.086 C 
HETATM   15  C   UNL     1     -43.060 -51.150  13.096  1.00  0.00     0.028 C 
HETATM   16  C   UNL     1     -42.781 -52.207  14.168  1.00  0.00     0.034 C 
HETATM   17  C   UNL     1     -42.034 -53.424  13.615  1.00  0.00     0.118 C 
HETATM   18  C   UNL     1     -40.783 -53.038  12.822  1.00  0.00     0.034 C 
HETATM   19  C   UNL     1     -41.079 -51.994  11.750  1.00  0.00     0.028 C 
BRANCH  17  20
HETATM   20  O   UNL     1     -42.904 -54.199  12.797  1.00  0.00    -0.396 OA
HETATM   21  H   UNL     1     -42.452 -54.402  11.959  1.00  0.00     0.210 HD
ENDBRANCH  17  20
ENDBRANCH   4  14
TORSDOF 3
ENDMDL
MODEL 2
REMARK VINA RESULT:      -6.2      2.784      3.616
REMARK  3 active torsions:
REMARK  status: ('A' for Active; 'I' for Inactive)
REMARK    1  A    between atoms: C_4  and  N_5 
REMARK       I    between atoms: N_5  and  C_6 
REMARK       I    between atoms: C_6  and  N_8 
REMARK    2  A    between atoms: N_8  and  C_9 
REMARK    3  A    between atoms: C_12  and  O_13 
ROOT
HETATM    1  N   UNL     1     -40.186 -50.577  11.422  1.00  0.00    -0.293 N 
HETATM    2  C   UNL     1     -40.973 -51.530  12.017  1.00  0.00     0.322 C 
HETATM    3  O   UNL     1     -40.545 -52.669  12.182  1.00  0.00    -0.247 OA
HETATM    4  N   UNL     1     -42.238 -51.135  12.339  1.00  0.00    -0.338 N 
HETATM    5  H   UNL     1     -39.299 -50.920  11.084  1.00  0.00     0.172 HD
HETATM    6  H   UNL     1     -42.387 -50.130  12.320  1.00  0.00     0.164 HD
ENDROOT
BRANCH   1   7
HETATM    7  C   UNL     1     -40.516 -49.255  11.182  1.00  0.00     0.132 A 
HETATM    8  C   UNL     1     -39.969 -48.140  11.857  1.00  0.00     0.084 A 
HETATM    9  C   UNL     1     -40.502 -47.051  11.204  1.00  0.00     0.076 A 
HETATM   10  C   UNL     1     -40.312 -45.595  11.277  1.00  0.00     0.079 C 
HETATM   11  O   UNL     1     -41.377 -47.482  10.264  1.00  0.00    -0.241 OA
HETATM   12  N   UNL     1     -41.391 -48.855  10.250  1.00  0.00    -0.245 N 
ATOM     13  HN  UNL     1     -41.957 -49.453   9.649  1.00  0.00     0.196 HD
ENDBRANCH   1   7
BRANCH   4  14
HETATM   14  C   UNL     1     -43.249 -51.906  13.020  1.00  0.00     0.086 C 
HETATM   15  C   UNL     1     -44.486 -51.089  13.404  1.00  0.00     0.028 C 
HETATM   16  C   UNL     1     -45.469 -51.949  14.203  1.00  0.00     0.034 C 
HETATM   17  C   UNL     1     -45.816 -53.261  13.494  1.00  0.00     0.118 C 
HETATM   18  C   UNL     1     -44.574 -54.037  13.050  1.00  0.00     0.034 C 
HETATM   19  C   UNL     1     -43.610 -53.171  12.244  1.00  0.00     0.028 C 
BRANCH  17  20
HETATM   20  O   UNL     1     -46.651 -53.000  12.370  1.00  0.00    -0.396 OA
HETATM   21  H   UNL     1     -47.563 -53.264  12.588  1.00  0.00     0.210 HD
ENDBRANCH  17  20
ENDBRANCH   4  14
TORSDOF 3
ENDMDL
MODEL 3
REMARK VINA RESULT:      -5.9      1.749      2.075
REMARK  3 active torsions:
REMARK  status: ('A' for Active; 'I' for Inactive)
REMARK    1  A    between atoms: C_4  and  N_5 
REMARK       I    between atoms: N_5  and  C_6 
REMARK       I    between atoms: C_6  and  N_8 
REMARK    2  A    between atoms: N_8  and  C_9 
REMARK    3  A    between atoms: C_12  and  O_13 
ROOT
HETATM    1  N   UNL     1     -41.529 -48.560  11.857  1.00  0.00    -0.293 N 
HETATM    2  C   UNL     1     -41.760 -49.600  12.721  1.00  0.00     0.322 C 
HETATM    3  O   UNL     1     -40.977 -49.823  13.642  1.00  0.00    -0.247 OA
HETATM    4  N   UNL     1     -42.853 -50.367  12.446  1.00  0.00    -0.338 N 
HETATM    5  H   UNL     1     -40.654 -48.080  12.006  1.00  0.00     0.172 HD
HETATM    6  H   UNL     1     -43.502 -49.957  11.780  1.00  0.00     0.164 HD
ENDROOT
BRANCH   1   7
HETATM    7  C   UNL     1     -42.319 -48.174  10.790  1.00  0.00     0.132 A 
HETATM    8  C   UNL     1     -43.522 -47.436  10.888  1.00  0.00     0.084 A 
HETATM    9  C   UNL     1     -43.878 -47.191   9.581  1.00  0.00     0.076 A 
HETATM   10  C   UNL     1     -44.930 -46.408   8.916  1.00  0.00     0.079 C 
HETATM   11  O   UNL     1     -43.002 -47.815   8.757  1.00  0.00    -0.241 OA
HETATM   12  N   UNL     1     -42.032 -48.431   9.508  1.00  0.00    -0.245 N 
ATOM     13  HN  UNL     1     -41.246 -48.979   9.158  1.00  0.00     0.196 HD
ENDBRANCH   1   7
BRANCH   4  14
HETATM   14  C   UNL     1     -43.360 -51.477  13.215  1.00  0.00     0.086 C 
HETATM   15  C   UNL     1     -44.803 -51.284  13.688  1.00  0.00     0.028 C 
HETATM   16  C   UNL     1     -45.238 -52.455  14.574  1.00  0.00     0.034 C 
HETATM   17  C   UNL     1     -45.003 -53.815  13.910  1.00  0.00     0.118 C 
HETATM   18  C   UNL     1     -43.578 -53.971  13.376  1.00  0.00     0.034 C 
HETATM   19  C   UNL     1     -43.164 -52.804  12.485  1.00  0.00     0.028 C 
BRANCH  17  20
HETATM   20  O   UNL     1     -45.939 -54.009  12.855  1.00  0.00    -0.396 OA
HETATM   21  H   UNL     1     -45.456 -54.075  12.012  1.00  0.00     0.210 HD
ENDBRANCH  17  20
ENDBRANCH   4  14
TORSDOF 3
ENDMDL
MODEL 4
REMARK VINA RESULT:      -5.7      2.302      5.755
REMARK  3 active torsions:
REMARK  status: ('A' for Active; 'I' for Inactive)
REMARK    1  A    between atoms: C_4  and  N_5 
REMARK       I    between atoms: N_5  and  C_6 
REMARK       I    between atoms: C_6  and  N_8 
REMARK    2  A    between atoms: N_8  and  C_9 
REMARK    3  A    between atoms: C_12  and  O_13 
ROOT
HETATM    1  N   UNL     1     -41.672 -51.827  12.418  1.00  0.00    -0.293 N 
HETATM    2  C   UNL     1     -41.172 -50.661  11.897  1.00  0.00     0.322 C 
HETATM    3  O   UNL     1     -39.958 -50.501  11.795  1.00  0.00    -0.247 OA
HETATM    4  N   UNL     1     -42.097 -49.714  11.571  1.00  0.00    -0.338 N 
HETATM    5  H   UNL     1     -40.970 -52.465  12.762  1.00  0.00     0.172 HD
HETATM    6  H   UNL     1     -43.055 -50.052  11.531  1.00  0.00     0.164 HD
ENDROOT
BRANCH   1   7
HETATM    7  C   UNL     1     -43.004 -52.162  12.581  1.00  0.00     0.132 A 
HETATM    8  C   UNL     1     -43.905 -51.525  13.464  1.00  0.00     0.084 A 
HETATM    9  C   UNL     1     -45.121 -52.112  13.192  1.00  0.00     0.076 A 
HETATM   10  C   UNL     1     -46.507 -51.891  13.630  1.00  0.00     0.079 C 
HETATM   11  O   UNL     1     -44.945 -53.094  12.276  1.00  0.00    -0.241 OA
HETATM   12  N   UNL     1     -43.626 -53.131  11.897  1.00  0.00    -0.245 N 
ATOM     13  HN  UNL     1     -43.202 -53.771  11.225  1.00  0.00     0.196 HD
ENDBRANCH   1   7
BRANCH   4  14
HETATM   14  C   UNL     1     -41.858 -48.431  10.956  1.00  0.00     0.086 C 
HETATM   15  C   UNL     1     -43.112 -47.806  10.339  1.00  0.00     0.028 C 
HETATM   16  C   UNL     1     -42.762 -46.497   9.626  1.00  0.00     0.034 C 
HETATM   17  C   UNL     1     -41.989 -45.526  10.522  1.00  0.00     0.118 C 
HETATM   18  C   UNL     1     -40.778 -46.179  11.191  1.00  0.00     0.034 C 
HETATM   19  C   UNL     1     -41.144 -47.474  11.909  1.00  0.00     0.028 C 
BRANCH  17  20
HETATM   20  O   UNL     1     -42.856 -44.984  11.513  1.00  0.00    -0.396 OA
HETATM   21  H   UNL     1     -43.625 -45.572  11.615  1.00  0.00     0.210 HD
ENDBRANCH  17  20
ENDBRANCH   4  14
TORSDOF 3
ENDMDL
MODEL 5
REMARK VINA RESULT:      -5.7      4.562      6.880
REMARK  3 active torsions:
REMARK  status: ('A' for Active; 'I' for Inactive)
REMARK    1  A    between atoms: C_4  and  N_5 
REMARK       I    between atoms: N_5  and  C_6 
REMARK       I    between atoms: C_6  and  N_8 
REMARK    2  A    between atoms: N_8  and  C_9 
REMARK    3  A    between atoms: C_12  and  O_13 
ROOT
HETATM    1  N   UNL     1     -43.543 -53.110  11.941  1.00  0.00    -0.293 N 
HETATM    2  C   UNL     1     -44.692 -52.998  12.683  1.00  0.00     0.322 C 
HETATM    3  O   UNL     1     -45.787 -52.991  12.127  1.00  0.00    -0.247 OA
HETATM    4  N   UNL     1     -44.516 -52.841  14.026  1.00  0.00    -0.338 N 
HETATM    5  H   UNL     1     -43.688 -53.105  10.943  1.00  0.00     0.172 HD
HETATM    6  H   UNL     1     -43.580 -53.054  14.360  1.00  0.00     0.164 HD
ENDROOT
BRANCH   1   7
HETATM    7  C   UNL     1     -42.246 -53.149  12.418  1.00  0.00     0.132 A 
HETATM    8  C   UNL     1     -41.719 -54.143  13.274  1.00  0.00     0.084 A 
HETATM    9  C   UNL     1     -40.380 -53.833  13.375  1.00  0.00     0.076 A 
HETATM   10  C   UNL     1     -39.206 -54.466  13.993  1.00  0.00     0.079 C 
HETATM   11  O   UNL     1     -40.140 -52.682  12.701  1.00  0.00    -0.241 OA
HETATM   12  N   UNL     1     -41.301 -52.252  12.108  1.00  0.00    -0.245 N 
ATOM     13  HN  UNL     1     -41.422 -51.412  11.541  1.00  0.00     0.196 HD
ENDBRANCH   1   7
BRANCH   4  14
HETATM   14  C   UNL     1     -45.540 -52.759  15.039  1.00  0.00     0.086 C 
HETATM   15  C   UNL     1     -45.060 -53.184  16.429  1.00  0.00     0.028 C 
HETATM   16  C   UNL     1     -46.220 -53.161  17.427  1.00  0.00     0.034 C 
HETATM   17  C   UNL     1     -46.964 -51.823  17.435  1.00  0.00     0.118 C 
HETATM   18  C   UNL     1     -47.378 -51.370  16.033  1.00  0.00     0.034 C 
HETATM   19  C   UNL     1     -46.208 -51.385  15.054  1.00  0.00     0.028 C 
BRANCH  17  20
HETATM   20  O   UNL     1     -46.158 -50.822  18.049  1.00  0.00    -0.396 OA
HETATM   21  H   UNL     1     -46.007 -50.103  17.409  1.00  0.00     0.210 HD
ENDBRANCH  17  20
ENDBRANCH   4  14
TORSDOF 3
ENDMDL
MODEL 6
REMARK VINA RESULT:      -5.6      3.465      7.041
REMARK  3 active torsions:
REMARK  status: ('A' for Active; 'I' for Inactive)
REMARK    1  A    between atoms: C_4  and  N_5 
REMARK       I    between atoms: N_5  and  C_6 
REMARK       I    between atoms: C_6  and  N_8 
REMARK    2  A    between atoms: N_8  and  C_9 
REMARK    3  A    between atoms: C_12  and  O_13 
ROOT
HETATM    1  N   UNL     1     -41.092 -49.368  10.494  1.00  0.00    -0.293 N 
HETATM    2  C   UNL     1     -41.457 -48.046  10.527  1.00  0.00     0.322 C 
HETATM    3  O   UNL     1     -42.327 -47.626   9.769  1.00  0.00    -0.247 OA
HETATM    4  N   UNL     1     -40.757 -47.261  11.396  1.00  0.00    -0.338 N 
HETATM    5  H   UNL     1     -41.537 -49.905   9.764  1.00  0.00     0.172 HD
HETATM    6  H   UNL     1     -40.210 -47.772  12.083  1.00  0.00     0.164 HD
ENDROOT
BRANCH   1   7
HETATM    7  C   UNL     1     -40.148 -49.991  11.289  1.00  0.00     0.132 A 
HETATM    8  C   UNL     1     -40.403 -50.586  12.547  1.00  0.00     0.084 A 
HETATM    9  C   UNL     1     -39.206 -51.174  12.894  1.00  0.00     0.076 A 
HETATM   10  C   UNL     1     -38.750 -52.042  13.989  1.00  0.00     0.079 C 
HETATM   11  O   UNL     1     -38.276 -50.875  11.955  1.00  0.00    -0.241 OA
HETATM   12  N   UNL     1     -38.859 -50.136  10.956  1.00  0.00    -0.245 N 
ATOM     13  HN  UNL     1     -38.401 -49.767  10.123  1.00  0.00     0.196 HD
ENDBRANCH   1   7
BRANCH   4  14
HETATM   14  C   UNL     1     -40.968 -45.862  11.676  1.00  0.00     0.086 C 
HETATM   15  C   UNL     1     -40.990 -45.535  13.172  1.00  0.00     0.028 C 
HETATM   16  C   UNL     1     -41.311 -44.054  13.392  1.00  0.00     0.034 C 
HETATM   17  C   UNL     1     -40.394 -43.126  12.590  1.00  0.00     0.118 C 
HETATM   18  C   UNL     1     -40.323 -43.505  11.109  1.00  0.00     0.034 C 
HETATM   19  C   UNL     1     -39.989 -44.979  10.905  1.00  0.00     0.028 C 
BRANCH  17  20
HETATM   20  O   UNL     1     -39.087 -43.129  13.153  1.00  0.00    -0.396 OA
HETATM   21  H   UNL     1     -38.742 -42.218  13.154  1.00  0.00     0.210 HD
ENDBRANCH  17  20
ENDBRANCH   4  14
TORSDOF 3
ENDMDL
MODEL 7
REMARK VINA RESULT:      -5.6      2.123      6.181
REMARK  3 active torsions:
REMARK  status: ('A' for Active; 'I' for Inactive)
REMARK    1  A    between atoms: C_4  and  N_5 
REMARK       I    between atoms: N_5  and  C_6 
REMARK       I    between atoms: C_6  and  N_8 
REMARK    2  A    between atoms: N_8  and  C_9 
REMARK    3  A    between atoms: C_12  and  O_13 
ROOT
HETATM    1  N   UNL     1     -40.643 -51.646  11.756  1.00  0.00    -0.293 N 
HETATM    2  C   UNL     1     -40.752 -50.312  11.452  1.00  0.00     0.322 C 
HETATM    3  O   UNL     1     -39.775 -49.691  11.041  1.00  0.00    -0.247 OA
HETATM    4  N   UNL     1     -41.971 -49.748  11.691  1.00  0.00    -0.338 N 
HETATM    5  H   UNL     1     -39.707 -52.015  11.685  1.00  0.00     0.172 HD
HETATM    6  H   UNL     1     -42.723 -50.413  11.845  1.00  0.00     0.164 HD
ENDROOT
BRANCH   1   7
HETATM    7  C   UNL     1     -41.649 -52.480  12.209  1.00  0.00     0.132 A 
HETATM    8  C   UNL     1     -41.615 -53.224  13.411  1.00  0.00     0.084 A 
HETATM    9  C   UNL     1     -42.865 -53.797  13.493  1.00  0.00     0.076 A 
HETATM   10  C   UNL     1     -43.582 -54.598  14.496  1.00  0.00     0.079 C 
HETATM   11  O   UNL     1     -43.567 -53.492  12.375  1.00  0.00    -0.241 OA
HETATM   12  N   UNL     1     -42.810 -52.675  11.571  1.00  0.00    -0.245 N 
ATOM     13  HN  UNL     1     -43.080 -52.292  10.666  1.00  0.00     0.196 HD
ENDBRANCH   1   7
BRANCH   4  14
HETATM   14  C   UNL     1     -42.378 -48.393  11.410  1.00  0.00     0.086 C 
HETATM   15  C   UNL     1     -41.589 -47.343  12.197  1.00  0.00     0.028 C 
HETATM   16  C   UNL     1     -42.138 -45.941  11.919  1.00  0.00     0.034 C 
HETATM   17  C   UNL     1     -42.224 -45.627  10.423  1.00  0.00     0.118 C 
HETATM   18  C   UNL     1     -42.952 -46.717   9.633  1.00  0.00     0.034 C 
HETATM   19  C   UNL     1     -42.385 -48.106   9.910  1.00  0.00     0.028 C 
BRANCH  17  20
HETATM   20  O   UNL     1     -40.917 -45.435   9.891  1.00  0.00    -0.396 OA
HETATM   21  H   UNL     1     -40.977 -44.861   9.107  1.00  0.00     0.210 HD
ENDBRANCH  17  20
ENDBRANCH   4  14
TORSDOF 3
ENDMDL
MODEL 8
REMARK VINA RESULT:      -5.5      2.588      3.186
REMARK  3 active torsions:
REMARK  status: ('A' for Active; 'I' for Inactive)
REMARK    1  A    between atoms: C_4  and  N_5 
REMARK       I    between atoms: N_5  and  C_6 
REMARK       I    between atoms: C_6  and  N_8 
REMARK    2  A    between atoms: N_8  and  C_9 
REMARK    3  A    between atoms: C_12  and  O_13 
ROOT
HETATM    1  N   UNL     1     -41.589 -46.482  11.097  1.00  0.00    -0.293 N 
HETATM    2  C   UNL     1     -40.622 -47.307  11.612  1.00  0.00     0.322 C 
HETATM    3  O   UNL     1     -39.807 -46.872  12.421  1.00  0.00    -0.247 OA
HETATM    4  N   UNL     1     -40.609 -48.580  11.124  1.00  0.00    -0.338 N 
HETATM    5  H   UNL     1     -41.509 -45.517  11.380  1.00  0.00     0.172 HD
HETATM    6  H   UNL     1     -41.446 -48.848  10.614  1.00  0.00     0.164 HD
ENDROOT
BRANCH   1   7
HETATM    7  C   UNL     1     -42.582 -46.824  10.197  1.00  0.00     0.132 A 
HETATM    8  C   UNL     1     -43.815 -47.429  10.530  1.00  0.00     0.084 A 
HETATM    9  C   UNL     1     -44.510 -47.464   9.341  1.00  0.00     0.076 A 
HETATM   10  C   UNL     1     -45.872 -47.845   8.940  1.00  0.00     0.079 C 
HETATM   11  O   UNL     1     -43.715 -46.997   8.348  1.00  0.00    -0.241 OA
HETATM   12  N   UNL     1     -42.512 -46.602   8.878  1.00  0.00    -0.245 N 
ATOM     13  HN  UNL     1     -41.718 -46.214   8.367  1.00  0.00     0.196 HD
ENDBRANCH   1   7
BRANCH   4  14
HETATM   14  C   UNL     1     -39.748 -49.664  11.529  1.00  0.00     0.086 C 
HETATM   15  C   UNL     1     -38.257 -49.337  11.409  1.00  0.00     0.028 C 
HETATM   16  C   UNL     1     -37.409 -50.561  11.764  1.00  0.00     0.034 C 
HETATM   17  C   UNL     1     -37.781 -51.161  13.122  1.00  0.00     0.118 C 
HETATM   18  C   UNL     1     -39.283 -51.419  13.261  1.00  0.00     0.034 C 
HETATM   19  C   UNL     1     -40.114 -50.187  12.916  1.00  0.00     0.028 C 
BRANCH  17  20
HETATM   20  O   UNL     1     -37.339 -50.305  14.170  1.00  0.00    -0.396 OA
HETATM   21  H   UNL     1     -36.758 -50.810  14.767  1.00  0.00     0.210 HD
ENDBRANCH  17  20
ENDBRANCH   4  14
TORSDOF 3
ENDMDL
MODEL 9
REMARK VINA RESULT:      -5.3      4.083      5.743
REMARK  3 active torsions:
REMARK  status: ('A' for Active; 'I' for Inactive)
REMARK    1  A    between atoms: C_4  and  N_5 
REMARK       I    between atoms: N_5  and  C_6 
REMARK       I    between atoms: C_6  and  N_8 
REMARK    2  A    between atoms: N_8  and  C_9 
REMARK    3  A    between atoms: C_12  and  O_13 
ROOT
HETATM    1  N   UNL     1     -42.050 -54.215  13.205  1.00  0.00    -0.293 N 
HETATM    2  C   UNL     1     -40.830 -53.593  13.113  1.00  0.00     0.322 C 
HETATM    3  O   UNL     1     -39.795 -54.242  13.248  1.00  0.00    -0.247 OA
HETATM    4  N   UNL     1     -40.867 -52.243  12.927  1.00  0.00    -0.338 N 
HETATM    5  H   UNL     1     -42.003 -55.190  13.460  1.00  0.00     0.172 HD
HETATM    6  H   UNL     1     -41.773 -51.878  12.647  1.00  0.00     0.164 HD
ENDROOT
BRANCH   1   7
HETATM    7  C   UNL     1     -43.295 -53.630  13.061  1.00  0.00     0.132 A 
HETATM    8  C   UNL     1     -44.045 -53.037  14.101  1.00  0.00     0.084 A 
HETATM    9  C   UNL     1     -45.139 -52.492  13.465  1.00  0.00     0.076 A 
HETATM   10  C   UNL     1     -46.271 -51.648  13.875  1.00  0.00     0.079 C 
HETATM   11  O   UNL     1     -45.094 -52.815  12.150  1.00  0.00    -0.241 OA
HETATM   12  N   UNL     1     -43.948 -53.527  11.896  1.00  0.00    -0.245 N 
ATOM     13  HN  UNL     1     -43.652 -53.905  10.996  1.00  0.00     0.196 HD
ENDBRANCH   1   7
BRANCH   4  14
HETATM   14  C   UNL     1     -39.746 -51.355  12.739  1.00  0.00     0.086 C 
HETATM   15  C   UNL     1     -40.060 -50.156  11.841  1.00  0.00     0.028 C 
HETATM   16  C   UNL     1     -38.803 -49.313  11.612  1.00  0.00     0.034 C 
HETATM   17  C   UNL     1     -38.113 -48.916  12.920  1.00  0.00     0.118 C 
HETATM   18  C   UNL     1     -37.867 -50.111  13.843  1.00  0.00     0.034 C 
HETATM   19  C   UNL     1     -39.132 -50.933  14.072  1.00  0.00     0.028 C 
BRANCH  17  20
HETATM   20  O   UNL     1     -38.888 -47.932  13.598  1.00  0.00    -0.396 OA
HETATM   21  H   UNL     1     -38.394 -47.624  14.379  1.00  0.00     0.210 HD
ENDBRANCH  17  20
ENDBRANCH   4  14
TORSDOF 3
ENDMDL
