MODEL 1
REMARK VINA RESULT:      -6.7      0.000      0.000
REMARK  6 active torsions:
REMARK  status: ('A' for Active; 'I' for Inactive)
REMARK    1  A    between atoms: C_2  and  C_3 
REMARK    2  A    between atoms: C_2  and  N_10 
REMARK    3  A    between atoms: C_3  and  N_4 
REMARK       I    between atoms: N_10  and  C_11 
REMARK    4  A    between atoms: C_11  and  C_13 
REMARK    5  A    between atoms: C_13  and  N_14 
REMARK    6  A    between atoms: C_18  and  C_21 
ROOT
HETATM    1  N   UNL     1     -40.955 -50.475  11.412  1.00  0.00    -0.354 N 
HETATM    2  C   UNL     1     -40.958 -51.307  12.515  1.00  0.00     0.236 C 
HETATM    3  O   UNL     1     -40.850 -50.893  13.667  1.00  0.00    -0.272 OA
HETATM    4  H   UNL     1     -41.379 -50.821  10.556  1.00  0.00     0.162 HD
ENDROOT
BRANCH   2   5
HETATM    5  C   UNL     1     -41.212 -52.780  12.206  1.00  0.00     0.234 C 
BRANCH   5   6
HETATM    6  N   UNL     1     -41.907 -53.530  13.260  1.00  0.00    -0.315 N 
HETATM    7  C   UNL     1     -41.190 -54.194  14.239  1.00  0.00     0.095 A 
HETATM    8  C   UNL     1     -41.807 -54.924  15.173  1.00  0.00     0.018 A 
HETATM    9  C   UNL     1     -43.234 -55.078  15.127  1.00  0.00     0.023 A 
HETATM   10  C   UNL     1     -43.972 -54.499  14.162  1.00  0.00     0.115 A 
HETATM   11  C   UNL     1     -43.301 -53.639  13.154  1.00  0.00     0.263 A 
HETATM   12  O   UNL     1     -43.938 -53.067  12.276  1.00  0.00    -0.267 OA
BRANCH  10  13
HETATM   13  C   UNL     1     -45.434 -54.723  14.039  1.00  0.00     0.422 C 
HETATM   14  F   UNL     1     -46.114 -53.894  13.214  1.00  0.00    -0.166 F 
HETATM   15  F   UNL     1     -45.687 -55.987  13.595  1.00  0.00    -0.166 F 
HETATM   16  F   UNL     1     -46.043 -54.634  15.256  1.00  0.00    -0.166 F 
ENDBRANCH  10  13
ENDBRANCH   5   6
ENDBRANCH   2   5
BRANCH   1  17
HETATM   17  C   UNL     1     -40.888 -49.022  11.555  1.00  0.00     0.108 C 
HETATM   18  C   UNL     1     -39.440 -48.529  11.566  1.00  0.00     0.034 C 
BRANCH  17  19
HETATM   19  C   UNL     1     -41.682 -48.324  10.418  1.00  0.00     0.297 C 
BRANCH  19  20
HETATM   20  N   UNL     1     -42.952 -47.696  10.849  1.00  0.00     0.094 N 
HETATM   21  C   UNL     1     -43.845 -47.449   9.684  1.00  0.00     0.298 C 
HETATM   22  C   UNL     1     -43.411 -46.276   8.781  1.00  0.00     0.198 C 
HETATM   23  O   UNL     1     -43.221 -45.068   9.528  1.00  0.00    -0.388 OA
HETATM   24  C   UNL     1     -42.288 -45.267  10.596  1.00  0.00     0.198 C 
HETATM   25  C   UNL     1     -42.760 -46.393  11.530  1.00  0.00     0.298 C 
ENDBRANCH  19  20
ENDBRANCH  17  19
ENDBRANCH   1  17
TORSDOF 6
ENDMDL
MODEL 2
REMARK VINA RESULT:      -6.4      1.751      2.203
REMARK  6 active torsions:
REMARK  status: ('A' for Active; 'I' for Inactive)
REMARK    1  A    between atoms: C_2  and  C_3 
REMARK    2  A    between atoms: C_2  and  N_10 
REMARK    3  A    between atoms: C_3  and  N_4 
REMARK       I    between atoms: N_10  and  C_11 
REMARK    4  A    between atoms: C_11  and  C_13 
REMARK    5  A    between atoms: C_13  and  N_14 
REMARK    6  A    between atoms: C_18  and  C_21 
ROOT
HETATM    1  N   UNL     1     -41.664 -50.527  11.556  1.00  0.00    -0.354 N 
HETATM    2  C   UNL     1     -41.731 -51.452  12.580  1.00  0.00     0.236 C 
HETATM    3  O   UNL     1     -41.194 -51.283  13.673  1.00  0.00    -0.272 OA
HETATM    4  H   UNL     1     -42.383 -50.561  10.839  1.00  0.00     0.162 HD
ENDROOT
BRANCH   2   5
HETATM    5  C   UNL     1     -42.616 -52.663  12.294  1.00  0.00     0.234 C 
BRANCH   5   6
HETATM    6  N   UNL     1     -43.538 -53.033  13.374  1.00  0.00    -0.315 N 
HETATM    7  C   UNL     1     -43.493 -54.299  13.933  1.00  0.00     0.095 A 
HETATM    8  C   UNL     1     -44.361 -54.668  14.879  1.00  0.00     0.018 A 
HETATM    9  C   UNL     1     -45.401 -53.763  15.282  1.00  0.00     0.023 A 
HETATM   10  C   UNL     1     -45.524 -52.543  14.729  1.00  0.00     0.115 A 
HETATM   11  C   UNL     1     -44.528 -52.102  13.718  1.00  0.00     0.263 A 
HETATM   12  O   UNL     1     -44.582 -50.987  13.210  1.00  0.00    -0.267 OA
BRANCH  10  13
HETATM   13  C   UNL     1     -46.646 -51.630  15.060  1.00  0.00     0.422 C 
HETATM   14  F   UNL     1     -47.708 -52.172  15.700  1.00  0.00    -0.166 F 
HETATM   15  F   UNL     1     -46.211 -50.607  15.850  1.00  0.00    -0.166 F 
HETATM   16  F   UNL     1     -47.139 -51.039  13.935  1.00  0.00    -0.166 F 
ENDBRANCH  10  13
ENDBRANCH   5   6
ENDBRANCH   2   5
BRANCH   1  17
HETATM   17  C   UNL     1     -40.994 -49.241  11.735  1.00  0.00     0.108 C 
HETATM   18  C   UNL     1     -39.478 -49.377  11.583  1.00  0.00     0.034 C 
BRANCH  17  19
HETATM   19  C   UNL     1     -41.540 -48.194  10.727  1.00  0.00     0.297 C 
BRANCH  19  20
HETATM   20  N   UNL     1     -42.815 -47.557  11.130  1.00  0.00     0.094 N 
HETATM   21  C   UNL     1     -43.722 -47.396   9.961  1.00  0.00     0.298 C 
HETATM   22  C   UNL     1     -43.312 -46.277   8.982  1.00  0.00     0.198 C 
HETATM   23  O   UNL     1     -43.133 -45.022   9.649  1.00  0.00    -0.388 OA
HETATM   24  C   UNL     1     -42.187 -45.141  10.718  1.00  0.00     0.198 C 
HETATM   25  C   UNL     1     -42.634 -46.211  11.726  1.00  0.00     0.298 C 
ENDBRANCH  19  20
ENDBRANCH  17  19
ENDBRANCH   1  17
TORSDOF 6
ENDMDL
MODEL 3
REMARK VINA RESULT:      -6.3      1.479      1.808
REMARK  6 active torsions:
REMARK  status: ('A' for Active; 'I' for Inactive)
REMARK    1  A    between atoms: C_2  and  C_3 
REMARK    2  A    between atoms: C_2  and  N_10 
REMARK    3  A    between atoms: C_3  and  N_4 
REMARK       I    between atoms: N_10  and  C_11 
REMARK    4  A    between atoms: C_11  and  C_13 
REMARK    5  A    between atoms: C_13  and  N_14 
REMARK    6  A    between atoms: C_18  and  C_21 
ROOT
HETATM    1  N   UNL     1     -40.275 -51.242  11.883  1.00  0.00    -0.354 N 
HETATM    2  C   UNL     1     -40.267 -52.083  12.978  1.00  0.00     0.236 C 
HETATM    3  O   UNL     1     -39.842 -51.745  14.081  1.00  0.00    -0.272 OA
HETATM    4  H   UNL     1     -40.926 -51.447  11.132  1.00  0.00     0.162 HD
ENDROOT
BRANCH   2   5
HETATM    5  C   UNL     1     -40.926 -53.441  12.749  1.00  0.00     0.234 C 
BRANCH   5   6
HETATM    6  N   UNL     1     -42.171 -53.666  13.493  1.00  0.00    -0.315 N 
HETATM    7  C   UNL     1     -42.240 -54.648  14.466  1.00  0.00     0.095 A 
HETATM    8  C   UNL     1     -43.380 -54.901  15.114  1.00  0.00     0.018 A 
HETATM    9  C   UNL     1     -44.575 -54.189  14.754  1.00  0.00     0.023 A 
HETATM   10  C   UNL     1     -44.574 -53.265  13.776  1.00  0.00     0.115 A 
HETATM   11  C   UNL     1     -43.298 -52.937  13.090  1.00  0.00     0.263 A 
HETATM   12  O   UNL     1     -43.245 -52.079  12.215  1.00  0.00    -0.267 OA
BRANCH  10  13
HETATM   13  C   UNL     1     -45.815 -52.588  13.324  1.00  0.00     0.422 C 
HETATM   14  F   UNL     1     -46.102 -52.653  12.003  1.00  0.00    -0.166 F 
HETATM   15  F   UNL     1     -46.900 -53.099  13.971  1.00  0.00    -0.166 F 
HETATM   16  F   UNL     1     -45.788 -51.263  13.643  1.00  0.00    -0.166 F 
ENDBRANCH  10  13
ENDBRANCH   5   6
ENDBRANCH   2   5
BRANCH   1  17
HETATM   17  C   UNL     1     -39.831 -49.853  11.988  1.00  0.00     0.108 C 
HETATM   18  C   UNL     1     -38.377 -49.697  11.540  1.00  0.00     0.034 C 
BRANCH  17  19
HETATM   19  C   UNL     1     -40.750 -48.921  11.152  1.00  0.00     0.297 C 
BRANCH  19  20
HETATM   20  N   UNL     1     -41.330 -47.788  11.909  1.00  0.00     0.094 N 
HETATM   21  C   UNL     1     -42.599 -47.326  11.284  1.00  0.00     0.298 C 
HETATM   22  C   UNL     1     -42.417 -46.536   9.971  1.00  0.00     0.198 C 
HETATM   23  O   UNL     1     -41.512 -45.437  10.130  1.00  0.00    -0.388 OA
HETATM   24  C   UNL     1     -40.250 -45.882  10.641  1.00  0.00     0.198 C 
HETATM   25  C   UNL     1     -40.431 -46.611  11.983  1.00  0.00     0.298 C 
ENDBRANCH  19  20
ENDBRANCH  17  19
ENDBRANCH   1  17
TORSDOF 6
ENDMDL
MODEL 4
REMARK VINA RESULT:      -6.3      2.319      3.134
REMARK  6 active torsions:
REMARK  status: ('A' for Active; 'I' for Inactive)
REMARK    1  A    between atoms: C_2  and  C_3 
REMARK    2  A    between atoms: C_2  and  N_10 
REMARK    3  A    between atoms: C_3  and  N_4 
REMARK       I    between atoms: N_10  and  C_11 
REMARK    4  A    between atoms: C_11  and  C_13 
REMARK    5  A    between atoms: C_13  and  N_14 
REMARK    6  A    between atoms: C_18  and  C_21 
ROOT
HETATM    1  N   UNL     1     -42.415 -48.861  11.480  1.00  0.00    -0.354 N 
HETATM    2  C   UNL     1     -41.466 -49.826  11.757  1.00  0.00     0.236 C 
HETATM    3  O   UNL     1     -40.499 -50.044  11.030  1.00  0.00    -0.272 OA
HETATM    4  H   UNL     1     -42.968 -48.504  12.253  1.00  0.00     0.162 HD
ENDROOT
BRANCH   2   5
HETATM    5  C   UNL     1     -41.646 -50.536  13.096  1.00  0.00     0.234 C 
BRANCH   5   6
HETATM    6  N   UNL     1     -42.689 -51.569  13.122  1.00  0.00    -0.315 N 
HETATM    7  C   UNL     1     -42.445 -52.828  12.602  1.00  0.00     0.095 A 
HETATM    8  C   UNL     1     -43.400 -53.760  12.571  1.00  0.00     0.018 A 
HETATM    9  C   UNL     1     -44.725 -53.436  13.022  1.00  0.00     0.023 A 
HETATM   10  C   UNL     1     -45.029 -52.209  13.483  1.00  0.00     0.115 A 
HETATM   11  C   UNL     1     -43.958 -51.184  13.576  1.00  0.00     0.263 A 
HETATM   12  O   UNL     1     -44.183 -50.063  14.020  1.00  0.00    -0.267 OA
BRANCH  10  13
HETATM   13  C   UNL     1     -46.411 -51.825  13.865  1.00  0.00     0.422 C 
HETATM   14  F   UNL     1     -46.549 -51.039  14.958  1.00  0.00    -0.166 F 
HETATM   15  F   UNL     1     -47.020 -51.159  12.843  1.00  0.00    -0.166 F 
HETATM   16  F   UNL     1     -47.177 -52.929  14.090  1.00  0.00    -0.166 F 
ENDBRANCH  10  13
ENDBRANCH   5   6
ENDBRANCH   2   5
BRANCH   1  17
HETATM   17  C   UNL     1     -42.290 -47.982  10.319  1.00  0.00     0.108 C 
HETATM   18  C   UNL     1     -43.657 -47.484   9.847  1.00  0.00     0.034 C 
BRANCH  17  19
HETATM   19  C   UNL     1     -41.365 -46.777  10.642  1.00  0.00     0.297 C 
BRANCH  19  20
HETATM   20  N   UNL     1     -41.844 -45.912  11.745  1.00  0.00     0.094 N 
HETATM   21  C   UNL     1     -41.977 -44.501  11.293  1.00  0.00     0.298 C 
HETATM   22  C   UNL     1     -40.638 -43.758  11.107  1.00  0.00     0.198 C 
HETATM   23  O   UNL     1     -39.819 -43.829  12.279  1.00  0.00    -0.388 OA
HETATM   24  C   UNL     1     -39.602 -45.190  12.670  1.00  0.00     0.198 C 
HETATM   25  C   UNL     1     -40.938 -45.907  12.920  1.00  0.00     0.298 C 
ENDBRANCH  19  20
ENDBRANCH  17  19
ENDBRANCH   1  17
TORSDOF 6
ENDMDL
MODEL 5
REMARK VINA RESULT:      -6.3      2.730      3.241
REMARK  6 active torsions:
REMARK  status: ('A' for Active; 'I' for Inactive)
REMARK    1  A    between atoms: C_2  and  C_3 
REMARK    2  A    between atoms: C_2  and  N_10 
REMARK    3  A    between atoms: C_3  and  N_4 
REMARK       I    between atoms: N_10  and  C_11 
REMARK    4  A    between atoms: C_11  and  C_13 
REMARK    5  A    between atoms: C_13  and  N_14 
REMARK    6  A    between atoms: C_18  and  C_21 
ROOT
HETATM    1  N   UNL     1     -41.340 -50.556  11.757  1.00  0.00    -0.354 N 
HETATM    2  C   UNL     1     -42.381 -51.088  12.492  1.00  0.00     0.236 C 
HETATM    3  O   UNL     1     -43.085 -50.416  13.243  1.00  0.00    -0.272 OA
HETATM    4  H   UNL     1     -41.036 -51.063  10.931  1.00  0.00     0.162 HD
ENDROOT
BRANCH   2   5
HETATM    5  C   UNL     1     -42.668 -52.564  12.224  1.00  0.00     0.234 C 
BRANCH   5   6
HETATM    6  N   UNL     1     -42.407 -53.467  13.351  1.00  0.00    -0.315 N 
HETATM    7  C   UNL     1     -43.445 -53.912  14.151  1.00  0.00     0.095 A 
HETATM    8  C   UNL     1     -43.217 -54.691  15.211  1.00  0.00     0.018 A 
HETATM    9  C   UNL     1     -41.867 -55.024  15.572  1.00  0.00     0.023 A 
HETATM   10  C   UNL     1     -40.818 -54.569  14.862  1.00  0.00     0.115 A 
HETATM   11  C   UNL     1     -41.066 -53.750  13.647  1.00  0.00     0.263 A 
HETATM   12  O   UNL     1     -40.142 -53.342  12.952  1.00  0.00    -0.267 OA
BRANCH  10  13
HETATM   13  C   UNL     1     -39.414 -54.820  15.271  1.00  0.00     0.422 C 
HETATM   14  F   UNL     1     -38.682 -53.744  15.641  1.00  0.00    -0.166 F 
HETATM   15  F   UNL     1     -39.372 -55.684  16.325  1.00  0.00    -0.166 F 
HETATM   16  F   UNL     1     -38.718 -55.429  14.270  1.00  0.00    -0.166 F 
ENDBRANCH  10  13
ENDBRANCH   5   6
ENDBRANCH   2   5
BRANCH   1  17
HETATM   17  C   UNL     1     -41.048 -49.124  11.778  1.00  0.00     0.108 C 
HETATM   18  C   UNL     1     -39.543 -48.862  11.711  1.00  0.00     0.034 C 
BRANCH  17  19
HETATM   19  C   UNL     1     -41.769 -48.402  10.608  1.00  0.00     0.297 C 
BRANCH  19  20
HETATM   20  N   UNL     1     -43.004 -47.682  10.995  1.00  0.00     0.094 N 
HETATM   21  C   UNL     1     -43.867 -47.432   9.809  1.00  0.00     0.298 C 
HETATM   22  C   UNL     1     -43.353 -46.325   8.864  1.00  0.00     0.198 C 
HETATM   23  O   UNL     1     -43.100 -45.101   9.563  1.00  0.00    -0.388 OA
HETATM   24  C   UNL     1     -42.192 -45.310  10.651  1.00  0.00     0.198 C 
HETATM   25  C   UNL     1     -42.741 -46.365  11.624  1.00  0.00     0.298 C 
ENDBRANCH  19  20
ENDBRANCH  17  19
ENDBRANCH   1  17
TORSDOF 6
ENDMDL
MODEL 6
REMARK VINA RESULT:      -6.2      2.628      3.430
REMARK  6 active torsions:
REMARK  status: ('A' for Active; 'I' for Inactive)
REMARK    1  A    between atoms: C_2  and  C_3 
REMARK    2  A    between atoms: C_2  and  N_10 
REMARK    3  A    between atoms: C_3  and  N_4 
REMARK       I    between atoms: N_10  and  C_11 
REMARK    4  A    between atoms: C_11  and  C_13 
REMARK    5  A    between atoms: C_13  and  N_14 
REMARK    6  A    between atoms: C_18  and  C_21 
ROOT
HETATM    1  N   UNL     1     -42.298 -50.808  12.126  1.00  0.00    -0.354 N 
HETATM    2  C   UNL     1     -42.069 -51.640  13.204  1.00  0.00     0.236 C 
HETATM    3  O   UNL     1     -41.188 -51.434  14.036  1.00  0.00    -0.272 OA
HETATM    4  H   UNL     1     -43.216 -50.834  11.693  1.00  0.00     0.162 HD
ENDROOT
BRANCH   2   5
HETATM    5  C   UNL     1     -43.065 -52.787  13.351  1.00  0.00     0.234 C 
BRANCH   5   6
HETATM    6  N   UNL     1     -44.444 -52.385  13.656  1.00  0.00    -0.315 N 
HETATM    7  C   UNL     1     -45.375 -52.244  12.642  1.00  0.00     0.095 A 
HETATM    8  C   UNL     1     -46.618 -51.827  12.897  1.00  0.00     0.018 A 
HETATM    9  C   UNL     1     -46.982 -51.454  14.236  1.00  0.00     0.023 A 
HETATM   10  C   UNL     1     -46.097 -51.519  15.248  1.00  0.00     0.115 A 
HETATM   11  C   UNL     1     -44.730 -52.037  14.983  1.00  0.00     0.263 A 
HETATM   12  O   UNL     1     -43.901 -52.142  15.881  1.00  0.00    -0.267 OA
BRANCH  10  13
HETATM   13  C   UNL     1     -46.422 -51.049  16.617  1.00  0.00     0.422 C 
HETATM   14  F   UNL     1     -45.732 -49.981  17.079  1.00  0.00    -0.166 F 
HETATM   15  F   UNL     1     -47.741 -50.713  16.705  1.00  0.00    -0.166 F 
HETATM   16  F   UNL     1     -46.237 -52.046  17.529  1.00  0.00    -0.166 F 
ENDBRANCH  10  13
ENDBRANCH   5   6
ENDBRANCH   2   5
BRANCH   1  17
HETATM   17  C   UNL     1     -41.534 -49.575  11.942  1.00  0.00     0.108 C 
HETATM   18  C   UNL     1     -40.314 -49.803  11.049  1.00  0.00     0.034 C 
BRANCH  17  19
HETATM   19  C   UNL     1     -42.433 -48.459  11.344  1.00  0.00     0.297 C 
BRANCH  19  20
HETATM   20  N   UNL     1     -41.884 -47.810  10.131  1.00  0.00     0.094 N 
HETATM   21  C   UNL     1     -41.353 -46.457  10.447  1.00  0.00     0.298 C 
HETATM   22  C   UNL     1     -42.435 -45.386  10.699  1.00  0.00     0.198 C 
HETATM   23  O   UNL     1     -43.374 -45.312   9.621  1.00  0.00    -0.388 OA
HETATM   24  C   UNL     1     -43.967 -46.591   9.369  1.00  0.00     0.198 C 
HETATM   25  C   UNL     1     -42.888 -47.639   9.053  1.00  0.00     0.298 C 
ENDBRANCH  19  20
ENDBRANCH  17  19
ENDBRANCH   1  17
TORSDOF 6
ENDMDL
MODEL 7
REMARK VINA RESULT:      -6.2      3.315      5.230
REMARK  6 active torsions:
REMARK  status: ('A' for Active; 'I' for Inactive)
REMARK    1  A    between atoms: C_2  and  C_3 
REMARK    2  A    between atoms: C_2  and  N_10 
REMARK    3  A    between atoms: C_3  and  N_4 
REMARK       I    between atoms: N_10  and  C_11 
REMARK    4  A    between atoms: C_11  and  C_13 
REMARK    5  A    between atoms: C_13  and  N_14 
REMARK    6  A    between atoms: C_18  and  C_21 
ROOT
HETATM    1  N   UNL     1     -42.629 -53.978  13.942  1.00  0.00    -0.354 N 
HETATM    2  C   UNL     1     -43.404 -54.946  14.550  1.00  0.00     0.236 C 
HETATM    3  O   UNL     1     -43.003 -55.636  15.485  1.00  0.00    -0.272 OA
HETATM    4  H   UNL     1     -43.106 -53.237  13.436  1.00  0.00     0.162 HD
ENDROOT
BRANCH   2   5
HETATM    5  C   UNL     1     -44.842 -55.027  14.046  1.00  0.00     0.234 C 
BRANCH   5   6
HETATM    6  N   UNL     1     -45.601 -53.772  14.113  1.00  0.00    -0.315 N 
HETATM    7  C   UNL     1     -45.723 -52.964  12.997  1.00  0.00     0.095 A 
HETATM    8  C   UNL     1     -46.365 -51.794  13.056  1.00  0.00     0.018 A 
HETATM    9  C   UNL     1     -46.884 -51.331  14.313  1.00  0.00     0.023 A 
HETATM   10  C   UNL     1     -46.741 -52.052  15.440  1.00  0.00     0.115 A 
HETATM   11  C   UNL     1     -46.080 -53.381  15.371  1.00  0.00     0.263 A 
HETATM   12  O   UNL     1     -45.957 -54.086  16.367  1.00  0.00    -0.267 OA
BRANCH  10  13
HETATM   13  C   UNL     1     -47.184 -51.551  16.765  1.00  0.00     0.422 C 
HETATM   14  F   UNL     1     -47.320 -52.466  17.753  1.00  0.00    -0.166 F 
HETATM   15  F   UNL     1     -46.311 -50.615  17.236  1.00  0.00    -0.166 F 
HETATM   16  F   UNL     1     -48.385 -50.914  16.666  1.00  0.00    -0.166 F 
ENDBRANCH  10  13
ENDBRANCH   5   6
ENDBRANCH   2   5
BRANCH   1  17
HETATM   17  C   UNL     1     -41.285 -53.665  14.423  1.00  0.00     0.108 C 
HETATM   18  C   UNL     1     -40.224 -54.482  13.684  1.00  0.00     0.034 C 
BRANCH  17  19
HETATM   19  C   UNL     1     -40.990 -52.148  14.276  1.00  0.00     0.297 C 
BRANCH  19  20
HETATM   20  N   UNL     1     -40.221 -51.785  13.064  1.00  0.00     0.094 N 
HETATM   21  C   UNL     1     -39.260 -50.686  13.353  1.00  0.00     0.298 C 
HETATM   22  C   UNL     1     -39.908 -49.297  13.527  1.00  0.00     0.198 C 
HETATM   23  O   UNL     1     -40.738 -48.951  12.411  1.00  0.00    -0.388 OA
HETATM   24  C   UNL     1     -41.731 -49.956  12.180  1.00  0.00     0.198 C 
HETATM   25  C   UNL     1     -41.077 -51.327  11.942  1.00  0.00     0.298 C 
ENDBRANCH  19  20
ENDBRANCH  17  19
ENDBRANCH   1  17
TORSDOF 6
ENDMDL
MODEL 8
REMARK VINA RESULT:      -6.1      2.525      3.122
REMARK  6 active torsions:
REMARK  status: ('A' for Active; 'I' for Inactive)
REMARK    1  A    between atoms: C_2  and  C_3 
REMARK    2  A    between atoms: C_2  and  N_10 
REMARK    3  A    between atoms: C_3  and  N_4 
REMARK       I    between atoms: N_10  and  C_11 
REMARK    4  A    between atoms: C_11  and  C_13 
REMARK    5  A    between atoms: C_13  and  N_14 
REMARK    6  A    between atoms: C_18  and  C_21 
ROOT
HETATM    1  N   UNL     1     -39.650 -50.906  12.053  1.00  0.00    -0.354 N 
HETATM    2  C   UNL     1     -39.930 -52.041  12.789  1.00  0.00     0.236 C 
HETATM    3  O   UNL     1     -39.148 -52.521  13.606  1.00  0.00    -0.272 OA
HETATM    4  H   UNL     1     -40.433 -50.383  11.672  1.00  0.00     0.162 HD
ENDROOT
BRANCH   2   5
HETATM    5  C   UNL     1     -41.336 -52.602  12.592  1.00  0.00     0.234 C 
BRANCH   5   6
HETATM    6  N   UNL     1     -42.411 -51.841  13.242  1.00  0.00    -0.315 N 
HETATM    7  C   UNL     1     -42.119 -50.909  14.222  1.00  0.00     0.095 A 
HETATM    8  C   UNL     1     -43.089 -50.248  14.858  1.00  0.00     0.018 A 
HETATM    9  C   UNL     1     -44.463 -50.553  14.573  1.00  0.00     0.023 A 
HETATM   10  C   UNL     1     -44.801 -51.492  13.670  1.00  0.00     0.115 A 
HETATM   11  C   UNL     1     -43.729 -52.190  12.915  1.00  0.00     0.263 A 
HETATM   12  O   UNL     1     -43.992 -53.030  12.061  1.00  0.00    -0.267 OA
BRANCH  10  13
HETATM   13  C   UNL     1     -46.210 -51.890  13.428  1.00  0.00     0.422 C 
HETATM   14  F   UNL     1     -46.651 -51.837  12.150  1.00  0.00    -0.166 F 
HETATM   15  F   UNL     1     -46.422 -53.170  13.848  1.00  0.00    -0.166 F 
HETATM   16  F   UNL     1     -47.064 -51.119  14.158  1.00  0.00    -0.166 F 
ENDBRANCH  10  13
ENDBRANCH   5   6
ENDBRANCH   2   5
BRANCH   1  17
HETATM   17  C   UNL     1     -38.411 -50.157  12.252  1.00  0.00     0.108 C 
HETATM   18  C   UNL     1     -37.484 -50.282  11.041  1.00  0.00     0.034 C 
BRANCH  17  19
HETATM   19  C   UNL     1     -38.716 -48.663  12.540  1.00  0.00     0.297 C 
BRANCH  19  20
HETATM   20  N   UNL     1     -40.155 -48.315  12.537  1.00  0.00     0.094 N 
HETATM   21  C   UNL     1     -40.516 -47.556  11.309  1.00  0.00     0.298 C 
HETATM   22  C   UNL     1     -40.022 -46.094  11.291  1.00  0.00     0.198 C 
HETATM   23  O   UNL     1     -40.434 -45.376  12.460  1.00  0.00    -0.388 OA
HETATM   24  C   UNL     1     -40.008 -46.048  13.651  1.00  0.00     0.198 C 
HETATM   25  C   UNL     1     -40.559 -47.482  13.695  1.00  0.00     0.298 C 
ENDBRANCH  19  20
ENDBRANCH  17  19
ENDBRANCH   1  17
TORSDOF 6
ENDMDL
MODEL 9
REMARK VINA RESULT:      -6.1      3.472      4.975
REMARK  6 active torsions:
REMARK  status: ('A' for Active; 'I' for Inactive)
REMARK    1  A    between atoms: C_2  and  C_3 
REMARK    2  A    between atoms: C_2  and  N_10 
REMARK    3  A    between atoms: C_3  and  N_4 
REMARK       I    between atoms: N_10  and  C_11 
REMARK    4  A    between atoms: C_11  and  C_13 
REMARK    5  A    between atoms: C_13  and  N_14 
REMARK    6  A    between atoms: C_18  and  C_21 
ROOT
HETATM    1  N   UNL     1     -41.524 -54.130  14.073  1.00  0.00    -0.354 N 
HETATM    2  C   UNL     1     -42.158 -54.737  15.139  1.00  0.00     0.236 C 
HETATM    3  O   UNL     1     -41.645 -54.848  16.251  1.00  0.00    -0.272 OA
HETATM    4  H   UNL     1     -42.102 -53.773  13.319  1.00  0.00     0.162 HD
ENDROOT
BRANCH   2   5
HETATM    5  C   UNL     1     -43.596 -55.172  14.867  1.00  0.00     0.234 C 
BRANCH   5   6
HETATM    6  N   UNL     1     -44.602 -54.108  14.969  1.00  0.00    -0.315 N 
HETATM    7  C   UNL     1     -45.304 -53.914  16.145  1.00  0.00     0.095 A 
HETATM    8  C   UNL     1     -46.259 -52.984  16.235  1.00  0.00     0.018 A 
HETATM    9  C   UNL     1     -46.614 -52.214  15.076  1.00  0.00     0.023 A 
HETATM   10  C   UNL     1     -46.001 -52.404  13.893  1.00  0.00     0.115 A 
HETATM   11  C   UNL     1     -44.897 -53.395  13.799  1.00  0.00     0.263 A 
HETATM   12  O   UNL     1     -44.291 -53.578  12.749  1.00  0.00    -0.267 OA
BRANCH  10  13
HETATM   13  C   UNL     1     -46.416 -51.689  12.661  1.00  0.00     0.422 C 
HETATM   14  F   UNL     1     -46.626 -52.442  11.556  1.00  0.00    -0.166 F 
HETATM   15  F   UNL     1     -47.575 -51.003  12.875  1.00  0.00    -0.166 F 
HETATM   16  F   UNL     1     -45.493 -50.748  12.312  1.00  0.00    -0.166 F 
ENDBRANCH  10  13
ENDBRANCH   5   6
ENDBRANCH   2   5
BRANCH   1  17
HETATM   17  C   UNL     1     -40.207 -53.513  14.222  1.00  0.00     0.108 C 
HETATM   18  C   UNL     1     -39.088 -54.541  14.052  1.00  0.00     0.034 C 
BRANCH  17  19
HETATM   19  C   UNL     1     -40.028 -52.354  13.205  1.00  0.00     0.297 C 
BRANCH  19  20
HETATM   20  N   UNL     1     -39.531 -51.089  13.792  1.00  0.00     0.094 N 
HETATM   21  C   UNL     1     -40.071 -49.913  13.057  1.00  0.00     0.298 C 
HETATM   22  C   UNL     1     -39.438 -49.678  11.670  1.00  0.00     0.198 C 
HETATM   23  O   UNL     1     -38.009 -49.608  11.739  1.00  0.00    -0.388 OA
HETATM   24  C   UNL     1     -37.468 -50.781  12.359  1.00  0.00     0.198 C 
HETATM   25  C   UNL     1     -38.053 -50.973  13.768  1.00  0.00     0.298 C 
ENDBRANCH  19  20
ENDBRANCH  17  19
ENDBRANCH   1  17
TORSDOF 6
ENDMDL
