MODEL 1
REMARK VINA RESULT:      -6.4      0.000      0.000
REMARK  3 active torsions:
REMARK  status: ('A' for Active; 'I' for Inactive)
REMARK    1  A    between atoms: C_7  and  C_8 
REMARK    2  A    between atoms: C_8  and  C_9 
REMARK       I    between atoms: C_9  and  N_11 
REMARK    3  A    between atoms: N_11  and  C_12 
ROOT
HETATM    1  C   UNL     1     -45.080 -54.852  14.365  1.00  0.00     0.149 C 
ENDROOT
BRANCH   1   2
HETATM    2  C   UNL     1     -43.886 -54.192  13.734  1.00  0.00     0.041 A 
HETATM    3  C   UNL     1     -42.601 -54.236  14.138  1.00  0.00     0.018 A 
HETATM    4  N   UNL     1     -41.576 -53.565  13.506  1.00  0.00    -0.349 N 
HETATM    5  C   UNL     1     -42.137 -54.996  15.356  1.00  0.00     0.069 C 
HETATM    6  C   UNL     1     -41.857 -52.873  12.455  1.00  0.00     0.080 A 
ATOM      7  HN  UNL     1     -40.621 -53.615  13.859  1.00  0.00     0.167 HD
HETATM    8  C   UNL     1     -40.788 -52.116  11.728  1.00  0.00     0.089 C 
HETATM    9  N   UNL     1     -43.110 -52.775  11.940  1.00  0.00    -0.313 N 
HETATM   10  C   UNL     1     -44.181 -53.357  12.540  1.00  0.00     0.255 A 
HETATM   11  H   UNL     1     -43.305 -52.200  11.134  1.00  0.00     0.170 HD
HETATM   12  O   UNL     1     -45.327 -53.174  12.137  1.00  0.00    -0.268 OA
ENDBRANCH   1   2
BRANCH   1  13
HETATM   13  C   UNL     1     -45.628 -54.047  15.543  1.00  0.00     0.222 C 
HETATM   14  O   UNL     1     -46.045 -54.604  16.557  1.00  0.00    -0.273 OA
HETATM   15  N   UNL     1     -45.594 -52.669  15.393  1.00  0.00    -0.356 N 
HETATM   16  H   UNL     1     -45.623 -52.328  14.432  1.00  0.00     0.162 HD
BRANCH  15  17
HETATM   17  C   UNL     1     -46.118 -51.790  16.447  1.00  0.00     0.084 C 
HETATM   18  C   UNL     1     -47.595 -51.467  16.173  1.00  0.00     0.025 C 
HETATM   19  C   UNL     1     -48.390 -50.814  17.308  1.00  0.00     0.002 C 
HETATM   20  C   UNL     1     -48.120 -51.378  18.704  1.00  0.00     0.000 C 
HETATM   21  C   UNL     1     -47.207 -50.509  19.572  1.00  0.00     0.000 C 
HETATM   22  C   UNL     1     -45.737 -50.402  19.151  1.00  0.00     0.000 C 
HETATM   23  C   UNL     1     -45.495 -49.658  17.834  1.00  0.00     0.002 C 
HETATM   24  C   UNL     1     -45.226 -50.550  16.611  1.00  0.00     0.025 C 
ENDBRANCH  15  17
ENDBRANCH   1  13
TORSDOF 3
ENDMDL
MODEL 2
REMARK VINA RESULT:      -6.3      3.150      5.115
REMARK  3 active torsions:
REMARK  status: ('A' for Active; 'I' for Inactive)
REMARK    1  A    between atoms: C_7  and  C_8 
REMARK    2  A    between atoms: C_8  and  C_9 
REMARK       I    between atoms: C_9  and  N_11 
REMARK    3  A    between atoms: N_11  and  C_12 
ROOT
HETATM    1  C   UNL     1     -40.843 -52.310  12.124  1.00  0.00     0.149 C 
ENDROOT
BRANCH   1   2
HETATM    2  C   UNL     1     -40.002 -51.157  12.596  1.00  0.00     0.041 A 
HETATM    3  C   UNL     1     -40.169 -49.844  12.338  1.00  0.00     0.018 A 
HETATM    4  N   UNL     1     -39.318 -48.861  12.794  1.00  0.00    -0.349 N 
HETATM    5  C   UNL     1     -41.288 -49.300  11.487  1.00  0.00     0.069 C 
HETATM    6  C   UNL     1     -38.317 -49.211  13.526  1.00  0.00     0.080 A 
ATOM      7  HN  UNL     1     -39.477 -47.881  12.558  1.00  0.00     0.167 HD
HETATM    8  C   UNL     1     -37.352 -48.188  14.046  1.00  0.00     0.089 C 
HETATM    9  N   UNL     1     -38.061 -50.499  13.873  1.00  0.00    -0.313 N 
HETATM   10  C   UNL     1     -38.818 -51.530  13.414  1.00  0.00     0.255 A 
HETATM   11  H   UNL     1     -37.252 -50.747  14.422  1.00  0.00     0.170 HD
HETATM   12  O   UNL     1     -38.519 -52.701  13.636  1.00  0.00    -0.268 OA
ENDBRANCH   1   2
BRANCH   1  13
HETATM   13  C   UNL     1     -42.021 -52.583  13.059  1.00  0.00     0.222 C 
HETATM   14  O   UNL     1     -41.848 -53.048  14.183  1.00  0.00    -0.273 OA
HETATM   15  N   UNL     1     -43.270 -52.249  12.560  1.00  0.00    -0.356 N 
HETATM   16  H   UNL     1     -43.360 -52.263  11.543  1.00  0.00     0.162 HD
BRANCH  15  17
HETATM   17  C   UNL     1     -44.482 -52.491  13.356  1.00  0.00     0.084 C 
HETATM   18  C   UNL     1     -44.917 -53.958  13.213  1.00  0.00     0.025 C 
HETATM   19  C   UNL     1     -45.976 -54.471  14.194  1.00  0.00     0.002 C 
HETATM   20  C   UNL     1     -45.807 -54.004  15.642  1.00  0.00     0.000 C 
HETATM   21  C   UNL     1     -46.751 -52.873  16.056  1.00  0.00     0.000 C 
HETATM   22  C   UNL     1     -46.524 -51.501  15.413  1.00  0.00     0.000 C 
HETATM   23  C   UNL     1     -46.814 -51.435  13.909  1.00  0.00     0.002 C 
HETATM   24  C   UNL     1     -45.577 -51.476  12.996  1.00  0.00     0.025 C 
ENDBRANCH  15  17
ENDBRANCH   1  13
TORSDOF 3
ENDMDL
MODEL 3
REMARK VINA RESULT:      -6.3      4.058      6.033
REMARK  3 active torsions:
REMARK  status: ('A' for Active; 'I' for Inactive)
REMARK    1  A    between atoms: C_7  and  C_8 
REMARK    2  A    between atoms: C_8  and  C_9 
REMARK       I    between atoms: C_9  and  N_11 
REMARK    3  A    between atoms: N_11  and  C_12 
ROOT
HETATM    1  C   UNL     1     -41.346 -49.036  13.326  1.00  0.00     0.149 C 
ENDROOT
BRANCH   1   2
HETATM    2  C   UNL     1     -41.883 -48.251  12.162  1.00  0.00     0.041 A 
HETATM    3  C   UNL     1     -42.700 -47.178  12.188  1.00  0.00     0.018 A 
HETATM    4  N   UNL     1     -43.165 -46.544  11.056  1.00  0.00    -0.349 N 
HETATM    5  C   UNL     1     -43.233 -46.569  13.460  1.00  0.00     0.069 C 
HETATM    6  C   UNL     1     -42.782 -46.986   9.907  1.00  0.00     0.080 A 
ATOM      7  HN  UNL     1     -43.796 -45.746  11.126  1.00  0.00     0.167 HD
HETATM    8  C   UNL     1     -43.260 -46.343   8.640  1.00  0.00     0.089 C 
HETATM    9  N   UNL     1     -41.941 -48.042   9.757  1.00  0.00    -0.313 N 
HETATM   10  C   UNL     1     -41.488 -48.756  10.821  1.00  0.00     0.255 A 
HETATM   11  H   UNL     1     -41.684 -48.385   8.845  1.00  0.00     0.170 HD
HETATM   12  O   UNL     1     -40.820 -49.777  10.677  1.00  0.00    -0.268 OA
ENDBRANCH   1   2
BRANCH   1  13
HETATM   13  C   UNL     1     -42.365 -50.041  13.862  1.00  0.00     0.222 C 
HETATM   14  O   UNL     1     -42.553 -50.177  15.069  1.00  0.00    -0.273 OA
HETATM   15  N   UNL     1     -43.066 -50.753  12.900  1.00  0.00    -0.356 N 
HETATM   16  H   UNL     1     -42.590 -50.875  12.005  1.00  0.00     0.162 HD
BRANCH  15  17
HETATM   17  C   UNL     1     -44.053 -51.768  13.293  1.00  0.00     0.084 C 
HETATM   18  C   UNL     1     -43.805 -53.068  12.513  1.00  0.00     0.025 C 
HETATM   19  C   UNL     1     -44.538 -54.324  12.998  1.00  0.00     0.002 C 
HETATM   20  C   UNL     1     -44.593 -54.503  14.516  1.00  0.00     0.000 C 
HETATM   21  C   UNL     1     -45.937 -54.134  15.149  1.00  0.00     0.000 C 
HETATM   22  C   UNL     1     -46.328 -52.652  15.144  1.00  0.00     0.000 C 
HETATM   23  C   UNL     1     -46.613 -52.063  13.759  1.00  0.00     0.002 C 
HETATM   24  C   UNL     1     -45.480 -51.217  13.155  1.00  0.00     0.025 C 
ENDBRANCH  15  17
ENDBRANCH   1  13
TORSDOF 3
ENDMDL
MODEL 4
REMARK VINA RESULT:      -6.3      3.485      5.485
REMARK  3 active torsions:
REMARK  status: ('A' for Active; 'I' for Inactive)
REMARK    1  A    between atoms: C_7  and  C_8 
REMARK    2  A    between atoms: C_8  and  C_9 
REMARK       I    between atoms: C_9  and  N_11 
REMARK    3  A    between atoms: N_11  and  C_12 
ROOT
HETATM    1  C   UNL     1     -42.114 -48.474  13.374  1.00  0.00     0.149 C 
ENDROOT
BRANCH   1   2
HETATM    2  C   UNL     1     -40.784 -48.926  12.839  1.00  0.00     0.041 A 
HETATM    3  C   UNL     1     -39.638 -49.129  13.520  1.00  0.00     0.018 A 
HETATM    4  N   UNL     1     -38.454 -49.515  12.929  1.00  0.00    -0.349 N 
HETATM    5  C   UNL     1     -39.505 -48.917  15.007  1.00  0.00     0.069 C 
HETATM    6  C   UNL     1     -38.445 -49.716  11.656  1.00  0.00     0.080 A 
ATOM      7  HN  UNL     1     -37.608 -49.638  13.484  1.00  0.00     0.167 HD
HETATM    8  C   UNL     1     -37.187 -50.131  10.953  1.00  0.00     0.089 C 
HETATM    9  N   UNL     1     -39.544 -49.570  10.869  1.00  0.00    -0.313 N 
HETATM   10  C   UNL     1     -40.730 -49.134  11.368  1.00  0.00     0.255 A 
HETATM   11  H   UNL     1     -39.499 -49.704   9.871  1.00  0.00     0.170 HD
HETATM   12  O   UNL     1     -41.689 -48.894  10.639  1.00  0.00    -0.268 OA
ENDBRANCH   1   2
BRANCH   1  13
HETATM   13  C   UNL     1     -42.958 -49.643  13.881  1.00  0.00     0.222 C 
HETATM   14  O   UNL     1     -43.133 -49.829  15.083  1.00  0.00    -0.273 OA
HETATM   15  N   UNL     1     -43.520 -50.444  12.899  1.00  0.00    -0.356 N 
HETATM   16  H   UNL     1     -43.020 -50.470  12.009  1.00  0.00     0.162 HD
BRANCH  15  17
HETATM   17  C   UNL     1     -44.330 -51.615  13.262  1.00  0.00     0.084 C 
HETATM   18  C   UNL     1     -43.830 -52.853  12.502  1.00  0.00     0.025 C 
HETATM   19  C   UNL     1     -44.351 -54.217  12.968  1.00  0.00     0.002 C 
HETATM   20  C   UNL     1     -44.431 -54.402  14.485  1.00  0.00     0.000 C 
HETATM   21  C   UNL     1     -45.842 -54.271  15.065  1.00  0.00     0.000 C 
HETATM   22  C   UNL     1     -46.484 -52.880  15.034  1.00  0.00     0.000 C 
HETATM   23  C   UNL     1     -46.815 -52.351  13.635  1.00  0.00     0.002 C 
HETATM   24  C   UNL     1     -45.825 -51.321  13.067  1.00  0.00     0.025 C 
ENDBRANCH  15  17
ENDBRANCH   1  13
TORSDOF 3
ENDMDL
MODEL 5
REMARK VINA RESULT:      -6.1      3.732      6.022
REMARK  3 active torsions:
REMARK  status: ('A' for Active; 'I' for Inactive)
REMARK    1  A    between atoms: C_7  and  C_8 
REMARK    2  A    between atoms: C_8  and  C_9 
REMARK       I    between atoms: C_9  and  N_11 
REMARK    3  A    between atoms: N_11  and  C_12 
ROOT
HETATM    1  C   UNL     1     -40.295 -50.420  11.719  1.00  0.00     0.149 C 
ENDROOT
BRANCH   1   2
HETATM    2  C   UNL     1     -39.322 -49.987  12.781  1.00  0.00     0.041 A 
HETATM    3  C   UNL     1     -38.958 -48.732  13.115  1.00  0.00     0.018 A 
HETATM    4  N   UNL     1     -38.028 -48.439  14.088  1.00  0.00    -0.349 N 
HETATM    5  C   UNL     1     -39.498 -47.500  12.433  1.00  0.00     0.069 C 
HETATM    6  C   UNL     1     -37.490 -49.417  14.733  1.00  0.00     0.080 A 
ATOM      7  HN  UNL     1     -37.771 -47.474  14.294  1.00  0.00     0.167 HD
HETATM    8  C   UNL     1     -36.467 -49.163  15.799  1.00  0.00     0.089 C 
HETATM    9  N   UNL     1     -37.797 -50.721  14.503  1.00  0.00    -0.313 N 
HETATM   10  C   UNL     1     -38.658 -51.093  13.520  1.00  0.00     0.255 A 
HETATM   11  H   UNL     1     -37.337 -51.467  15.002  1.00  0.00     0.170 HD
HETATM   12  O   UNL     1     -38.848 -52.274  13.240  1.00  0.00    -0.268 OA
ENDBRANCH   1   2
BRANCH   1  13
HETATM   13  C   UNL     1     -41.725 -50.510  12.250  1.00  0.00     0.222 C 
HETATM   14  O   UNL     1     -42.493 -49.553  12.181  1.00  0.00    -0.273 OA
HETATM   15  N   UNL     1     -42.089 -51.738  12.781  1.00  0.00    -0.356 N 
HETATM   16  H   UNL     1     -41.325 -52.303  13.156  1.00  0.00     0.162 HD
BRANCH  15  17
HETATM   17  C   UNL     1     -43.429 -51.940  13.348  1.00  0.00     0.084 C 
HETATM   18  C   UNL     1     -43.318 -52.314  14.834  1.00  0.00     0.025 C 
HETATM   19  C   UNL     1     -44.606 -52.272  15.664  1.00  0.00     0.002 C 
HETATM   20  C   UNL     1     -45.524 -51.080  15.384  1.00  0.00     0.000 C 
HETATM   21  C   UNL     1     -46.739 -51.409  14.512  1.00  0.00     0.000 C 
HETATM   22  C   UNL     1     -46.472 -51.760  13.044  1.00  0.00     0.000 C 
HETATM   23  C   UNL     1     -45.727 -53.080  12.820  1.00  0.00     0.002 C 
HETATM   24  C   UNL     1     -44.227 -52.947  12.506  1.00  0.00     0.025 C 
ENDBRANCH  15  17
ENDBRANCH   1  13
TORSDOF 3
ENDMDL
MODEL 6
REMARK VINA RESULT:      -6.1      3.118      4.788
REMARK  3 active torsions:
REMARK  status: ('A' for Active; 'I' for Inactive)
REMARK    1  A    between atoms: C_7  and  C_8 
REMARK    2  A    between atoms: C_8  and  C_9 
REMARK       I    between atoms: C_9  and  N_11 
REMARK    3  A    between atoms: N_11  and  C_12 
ROOT
HETATM    1  C   UNL     1     -40.259 -53.910  14.221  1.00  0.00     0.149 C 
ENDROOT
BRANCH   1   2
HETATM    2  C   UNL     1     -39.476 -52.634  14.359  1.00  0.00     0.041 A 
HETATM    3  C   UNL     1     -38.821 -52.173  15.444  1.00  0.00     0.018 A 
HETATM    4  N   UNL     1     -38.155 -50.967  15.480  1.00  0.00    -0.349 N 
HETATM    5  C   UNL     1     -38.774 -52.906  16.761  1.00  0.00     0.069 C 
HETATM    6  C   UNL     1     -38.137 -50.247  14.411  1.00  0.00     0.080 A 
ATOM      7  HN  UNL     1     -37.689 -50.652  16.331  1.00  0.00     0.167 HD
HETATM    8  C   UNL     1     -37.435 -48.923  14.390  1.00  0.00     0.089 C 
HETATM    9  N   UNL     1     -38.738 -50.620  13.251  1.00  0.00    -0.313 N 
HETATM   10  C   UNL     1     -39.464 -51.764  13.154  1.00  0.00     0.255 A 
HETATM   11  H   UNL     1     -38.734 -50.021  12.439  1.00  0.00     0.170 HD
HETATM   12  O   UNL     1     -40.099 -52.043  12.140  1.00  0.00    -0.268 OA
ENDBRANCH   1   2
BRANCH   1  13
HETATM   13  C   UNL     1     -41.737 -53.718  14.556  1.00  0.00     0.222 C 
HETATM   14  O   UNL     1     -42.124 -53.654  15.721  1.00  0.00    -0.273 OA
HETATM   15  N   UNL     1     -42.587 -53.596  13.467  1.00  0.00    -0.356 N 
HETATM   16  H   UNL     1     -42.271 -54.047  12.607  1.00  0.00     0.162 HD
BRANCH  15  17
HETATM   17  C   UNL     1     -44.034 -53.435  13.662  1.00  0.00     0.084 C 
HETATM   18  C   UNL     1     -44.689 -54.808  13.876  1.00  0.00     0.025 C 
HETATM   19  C   UNL     1     -46.133 -54.821  14.389  1.00  0.00     0.002 C 
HETATM   20  C   UNL     1     -46.447 -53.799  15.483  1.00  0.00     0.000 C 
HETATM   21  C   UNL     1     -47.205 -52.561  14.994  1.00  0.00     0.000 C 
HETATM   22  C   UNL     1     -46.447 -51.594  14.078  1.00  0.00     0.000 C 
HETATM   23  C   UNL     1     -46.101 -52.152  12.693  1.00  0.00     0.002 C 
HETATM   24  C   UNL     1     -44.648 -52.620  12.514  1.00  0.00     0.025 C 
ENDBRANCH  15  17
ENDBRANCH   1  13
TORSDOF 3
ENDMDL
MODEL 7
REMARK VINA RESULT:      -6.0      3.488      5.387
REMARK  3 active torsions:
REMARK  status: ('A' for Active; 'I' for Inactive)
REMARK    1  A    between atoms: C_7  and  C_8 
REMARK    2  A    between atoms: C_8  and  C_9 
REMARK       I    between atoms: C_9  and  N_11 
REMARK    3  A    between atoms: N_11  and  C_12 
ROOT
HETATM    1  C   UNL     1     -40.534 -51.325  12.168  1.00  0.00     0.149 C 
ENDROOT
BRANCH   1   2
HETATM    2  C   UNL     1     -40.093 -49.942  12.561  1.00  0.00     0.041 A 
HETATM    3  C   UNL     1     -39.132 -49.594  13.441  1.00  0.00     0.018 A 
HETATM    4  N   UNL     1     -38.822 -48.289  13.759  1.00  0.00    -0.349 N 
HETATM    5  C   UNL     1     -38.308 -50.594  14.213  1.00  0.00     0.069 C 
HETATM    6  C   UNL     1     -39.471 -47.346  13.166  1.00  0.00     0.080 A 
ATOM      7  HN  UNL     1     -38.099 -48.076  14.445  1.00  0.00     0.167 HD
HETATM    8  C   UNL     1     -39.185 -45.907  13.475  1.00  0.00     0.089 C 
HETATM    9  N   UNL     1     -40.441 -47.574  12.243  1.00  0.00    -0.313 N 
HETATM   10  C   UNL     1     -40.845 -48.831  11.921  1.00  0.00     0.255 A 
HETATM   11  H   UNL     1     -40.954 -46.817  11.819  1.00  0.00     0.170 HD
HETATM   12  O   UNL     1     -41.797 -49.033  11.172  1.00  0.00    -0.268 OA
ENDBRANCH   1   2
BRANCH   1  13
HETATM   13  C   UNL     1     -41.690 -51.828  13.032  1.00  0.00     0.222 C 
HETATM   14  O   UNL     1     -41.500 -52.240  14.174  1.00  0.00    -0.273 OA
HETATM   15  N   UNL     1     -42.946 -51.759  12.449  1.00  0.00    -0.356 N 
HETATM   16  H   UNL     1     -42.963 -51.798  11.429  1.00  0.00     0.162 HD
BRANCH  15  17
HETATM   17  C   UNL     1     -44.132 -52.239  13.171  1.00  0.00     0.084 C 
HETATM   18  C   UNL     1     -44.408 -53.706  12.807  1.00  0.00     0.025 C 
HETATM   19  C   UNL     1     -45.416 -54.464  13.678  1.00  0.00     0.002 C 
HETATM   20  C   UNL     1     -45.310 -54.200  15.181  1.00  0.00     0.000 C 
HETATM   21  C   UNL     1     -46.372 -53.245  15.732  1.00  0.00     0.000 C 
HETATM   22  C   UNL     1     -46.285 -51.778  15.300  1.00  0.00     0.000 C 
HETATM   23  C   UNL     1     -46.567 -51.522  13.816  1.00  0.00     0.002 C 
HETATM   24  C   UNL     1     -45.325 -51.300  12.937  1.00  0.00     0.025 C 
ENDBRANCH  15  17
ENDBRANCH   1  13
TORSDOF 3
ENDMDL
MODEL 8
REMARK VINA RESULT:      -6.0      2.392      3.220
REMARK  3 active torsions:
REMARK  status: ('A' for Active; 'I' for Inactive)
REMARK    1  A    between atoms: C_7  and  C_8 
REMARK    2  A    between atoms: C_8  and  C_9 
REMARK       I    between atoms: C_9  and  N_11 
REMARK    3  A    between atoms: N_11  and  C_12 
ROOT
HETATM    1  C   UNL     1     -41.576 -54.257  13.368  1.00  0.00     0.149 C 
ENDROOT
BRANCH   1   2
HETATM    2  C   UNL     1     -40.513 -53.194  13.363  1.00  0.00     0.041 A 
HETATM    3  C   UNL     1     -39.525 -53.001  14.261  1.00  0.00     0.018 A 
HETATM    4  N   UNL     1     -38.613 -51.971  14.185  1.00  0.00    -0.349 N 
HETATM    5  C   UNL     1     -39.327 -53.868  15.479  1.00  0.00     0.069 C 
HETATM    6  C   UNL     1     -38.692 -51.158  13.188  1.00  0.00     0.080 A 
ATOM      7  HN  UNL     1     -37.894 -51.855  14.899  1.00  0.00     0.167 HD
HETATM    8  C   UNL     1     -37.733 -50.014  13.053  1.00  0.00     0.089 C 
HETATM    9  N   UNL     1     -39.626 -51.268  12.208  1.00  0.00    -0.313 N 
HETATM   10  C   UNL     1     -40.596 -52.219  12.244  1.00  0.00     0.255 A 
HETATM   11  H   UNL     1     -39.683 -50.598  11.456  1.00  0.00     0.170 HD
HETATM   12  O   UNL     1     -41.506 -52.247  11.419  1.00  0.00    -0.268 OA
ENDBRANCH   1   2
BRANCH   1  13
HETATM   13  C   UNL     1     -42.833 -53.810  14.113  1.00  0.00     0.222 C 
HETATM   14  O   UNL     1     -43.563 -54.623  14.676  1.00  0.00    -0.273 OA
HETATM   15  N   UNL     1     -43.065 -52.443  14.128  1.00  0.00    -0.356 N 
HETATM   16  H   UNL     1     -42.674 -51.919  13.344  1.00  0.00     0.162 HD
BRANCH  15  17
HETATM   17  C   UNL     1     -44.257 -51.895  14.791  1.00  0.00     0.084 C 
HETATM   18  C   UNL     1     -45.360 -51.637  13.752  1.00  0.00     0.025 C 
HETATM   19  C   UNL     1     -46.767 -51.349  14.285  1.00  0.00     0.002 C 
HETATM   20  C   UNL     1     -47.208 -52.215  15.467  1.00  0.00     0.000 C 
HETATM   21  C   UNL     1     -47.138 -51.515  16.826  1.00  0.00     0.000 C 
HETATM   22  C   UNL     1     -45.745 -51.188  17.373  1.00  0.00     0.000 C 
HETATM   23  C   UNL     1     -44.973 -50.126  16.583  1.00  0.00     0.002 C 
HETATM   24  C   UNL     1     -43.890 -50.665  15.634  1.00  0.00     0.025 C 
ENDBRANCH  15  17
ENDBRANCH   1  13
TORSDOF 3
ENDMDL
MODEL 9
REMARK VINA RESULT:      -5.8      4.670      6.601
REMARK  3 active torsions:
REMARK  status: ('A' for Active; 'I' for Inactive)
REMARK    1  A    between atoms: C_7  and  C_8 
REMARK    2  A    between atoms: C_8  and  C_9 
REMARK       I    between atoms: C_9  and  N_11 
REMARK    3  A    between atoms: N_11  and  C_12 
ROOT
HETATM    1  C   UNL     1     -40.891 -52.631  11.775  1.00  0.00     0.149 C 
ENDROOT
BRANCH   1   2
HETATM    2  C   UNL     1     -41.381 -53.411  12.963  1.00  0.00     0.041 A 
HETATM    3  C   UNL     1     -42.655 -53.656  13.330  1.00  0.00     0.018 A 
HETATM    4  N   UNL     1     -43.002 -54.360  14.463  1.00  0.00    -0.349 N 
HETATM    5  C   UNL     1     -43.853 -53.155  12.564  1.00  0.00     0.069 C 
HETATM    6  C   UNL     1     -42.058 -54.830  15.204  1.00  0.00     0.080 A 
ATOM      7  HN  UNL     1     -43.981 -54.505  14.709  1.00  0.00     0.167 HD
HETATM    8  C   UNL     1     -42.373 -55.598  16.453  1.00  0.00     0.089 C 
HETATM    9  N   UNL     1     -40.739 -54.670  14.922  1.00  0.00    -0.313 N 
HETATM   10  C   UNL     1     -40.316 -53.938  13.858  1.00  0.00     0.255 A 
HETATM   11  H   UNL     1     -40.021 -55.022  15.537  1.00  0.00     0.170 HD
HETATM   12  O   UNL     1     -39.126 -53.700  13.668  1.00  0.00    -0.268 OA
ENDBRANCH   1   2
BRANCH   1  13
HETATM   13  C   UNL     1     -40.791 -51.135  12.070  1.00  0.00     0.222 C 
HETATM   14  O   UNL     1     -39.861 -50.676  12.730  1.00  0.00    -0.273 OA
HETATM   15  N   UNL     1     -41.795 -50.350  11.524  1.00  0.00    -0.356 N 
HETATM   16  H   UNL     1     -42.686 -50.820  11.361  1.00  0.00     0.162 HD
BRANCH  15  17
HETATM   17  C   UNL     1     -41.822 -48.900  11.762  1.00  0.00     0.084 C 
HETATM   18  C   UNL     1     -42.935 -48.554  12.763  1.00  0.00     0.025 C 
HETATM   19  C   UNL     1     -42.925 -47.142  13.358  1.00  0.00     0.002 C 
HETATM   20  C   UNL     1     -41.545 -46.605  13.744  1.00  0.00     0.000 C 
HETATM   21  C   UNL     1     -40.955 -45.604  12.748  1.00  0.00     0.000 C 
HETATM   22  C   UNL     1     -40.543 -46.143  11.374  1.00  0.00     0.000 C 
HETATM   23  C   UNL     1     -41.703 -46.614  10.490  1.00  0.00     0.002 C 
HETATM   24  C   UNL     1     -41.915 -48.135  10.432  1.00  0.00     0.025 C 
ENDBRANCH  15  17
ENDBRANCH   1  13
TORSDOF 3
ENDMDL
