MODEL 1
REMARK VINA RESULT:      -5.7      0.000      0.000
REMARK  8 active torsions:
REMARK  status: ('A' for Active; 'I' for Inactive)
REMARK    1  A    between atoms: C_8  and  O_9 
REMARK    2  A    between atoms: O_9  and  C_10 
REMARK    3  A    between atoms: C_10  and  C_11 
REMARK    4  A    between atoms: C_11  and  O_12 
REMARK    5  A    between atoms: C_11  and  C_13 
REMARK    6  A    between atoms: C_13  and  N_14 
REMARK    7  A    between atoms: C_15  and  C_16 
REMARK    8  A    between atoms: C_16  and  O_17 
ROOT
HETATM    1  C   UNL     1     -41.681 -54.178  15.719  1.00  0.00     0.164 C 
ENDROOT
BRANCH   1   2
HETATM    2  C   UNL     1     -42.914 -55.084  15.889  1.00  0.00     0.160 C 
BRANCH   2   3
HETATM    3  C   UNL     1     -43.853 -55.141  14.670  1.00  0.00     0.209 C 
BRANCH   3   4
HETATM    4  O   UNL     1     -45.200 -54.924  15.063  1.00  0.00    -0.347 OA
BRANCH   4   5
HETATM    5  C   UNL     1     -45.742 -53.660  15.098  1.00  0.00     0.080 A 
HETATM    6  C   UNL     1     -45.898 -52.744  14.035  1.00  0.00    -0.028 A 
HETATM    7  C   UNL     1     -45.421 -52.922  12.618  1.00  0.00     0.051 C 
HETATM    8  C   UNL     1     -46.541 -51.511  14.292  1.00  0.00     0.009 A 
HETATM    9  C   UNL     1     -46.990 -51.165  15.561  1.00  0.00     0.001 A 
HETATM   10  C   UNL     1     -46.790 -52.039  16.616  1.00  0.00     0.009 A 
HETATM   11  C   UNL     1     -46.174 -53.283  16.401  1.00  0.00    -0.028 A 
HETATM   12  C   UNL     1     -45.953 -54.159  17.614  1.00  0.00     0.051 C 
ENDBRANCH   4   5
ENDBRANCH   3   4
ENDBRANCH   2   3
BRANCH   2  13
HETATM   13  O   UNL     1     -42.504 -56.402  16.283  1.00  0.00    -0.392 OA
HETATM   14  H   UNL     1     -42.947 -57.053  15.708  1.00  0.00     0.210 HD
ENDBRANCH   2  13
ENDBRANCH   1   2
BRANCH   1  15
HETATM   15  N   UNL     1     -41.886 -53.012  14.870  1.00  0.00    -0.330 N 
HETATM   16  C   UNL     1     -41.551 -52.867  13.541  1.00  0.00     0.108 A 
HETATM   17  N   UNL     1     -41.940 -51.689  13.082  1.00  0.00    -0.342 N 
HETATM   18  C   UNL     1     -42.516 -51.043  14.140  1.00  0.00     0.060 A 
ATOM     19  HN  UNL     1     -41.832 -51.334  12.131  1.00  0.00     0.167 HD
HETATM   20  C   UNL     1     -43.113 -49.770  14.212  1.00  0.00     0.032 A 
HETATM   21  C   UNL     1     -42.464 -51.829  15.280  1.00  0.00     0.062 A 
HETATM   22  C   UNL     1     -43.670 -49.343  15.424  1.00  0.00     0.002 A 
HETATM   23  C   UNL     1     -43.598 -50.147  16.556  1.00  0.00     0.002 A 
HETATM   24  C   UNL     1     -42.961 -51.386  16.505  1.00  0.00     0.032 A 
BRANCH  16  25
HETATM   25  C   UNL     1     -40.852 -53.886  12.705  1.00  0.00     0.240 C 
BRANCH  25  26
HETATM   26  O   UNL     1     -40.573 -53.272  11.447  1.00  0.00    -0.393 OA
HETATM   27  H   UNL     1     -40.292 -54.003  10.859  1.00  0.00     0.209 HD
ENDBRANCH  25  26
ENDBRANCH  16  25
ENDBRANCH   1  15
TORSDOF 8
ENDMDL
MODEL 2
REMARK VINA RESULT:      -5.7      2.774      3.973
REMARK  8 active torsions:
REMARK  status: ('A' for Active; 'I' for Inactive)
REMARK    1  A    between atoms: C_8  and  O_9 
REMARK    2  A    between atoms: O_9  and  C_10 
REMARK    3  A    between atoms: C_10  and  C_11 
REMARK    4  A    between atoms: C_11  and  O_12 
REMARK    5  A    between atoms: C_11  and  C_13 
REMARK    6  A    between atoms: C_13  and  N_14 
REMARK    7  A    between atoms: C_15  and  C_16 
REMARK    8  A    between atoms: C_16  and  O_17 
ROOT
HETATM    1  C   UNL     1     -40.984 -51.341  13.256  1.00  0.00     0.164 C 
ENDROOT
BRANCH   1   2
HETATM    2  C   UNL     1     -41.516 -52.512  12.410  1.00  0.00     0.160 C 
BRANCH   2   3
HETATM    3  C   UNL     1     -43.035 -52.745  12.505  1.00  0.00     0.209 C 
BRANCH   3   4
HETATM    4  O   UNL     1     -43.404 -53.118  13.825  1.00  0.00    -0.347 OA
BRANCH   4   5
HETATM    5  C   UNL     1     -44.584 -52.689  14.387  1.00  0.00     0.080 A 
HETATM    6  C   UNL     1     -44.857 -51.454  15.017  1.00  0.00    -0.028 A 
HETATM    7  C   UNL     1     -43.873 -50.349  15.290  1.00  0.00     0.051 C 
HETATM    8  C   UNL     1     -46.171 -51.203  15.474  1.00  0.00     0.009 A 
HETATM    9  C   UNL     1     -47.186 -52.144  15.352  1.00  0.00     0.001 A 
HETATM   10  C   UNL     1     -46.908 -53.375  14.782  1.00  0.00     0.009 A 
HETATM   11  C   UNL     1     -45.622 -53.660  14.297  1.00  0.00    -0.028 A 
HETATM   12  C   UNL     1     -45.391 -55.043  13.731  1.00  0.00     0.051 C 
ENDBRANCH   4   5
ENDBRANCH   3   4
ENDBRANCH   2   3
BRANCH   2  13
HETATM   13  O   UNL     1     -41.105 -52.357  11.043  1.00  0.00    -0.392 OA
HETATM   14  H   UNL     1     -41.429 -51.499  10.715  1.00  0.00     0.210 HD
ENDBRANCH   2  13
ENDBRANCH   1   2
BRANCH   1  15
HETATM   15  N   UNL     1     -40.570 -50.170  12.496  1.00  0.00    -0.330 N 
HETATM   16  C   UNL     1     -39.294 -49.827  12.104  1.00  0.00     0.108 A 
HETATM   17  N   UNL     1     -39.304 -48.721  11.377  1.00  0.00    -0.342 N 
HETATM   18  C   UNL     1     -40.610 -48.321  11.318  1.00  0.00     0.060 A 
ATOM     19  HN  UNL     1     -38.500 -48.261  10.949  1.00  0.00     0.167 HD
HETATM   20  C   UNL     1     -41.194 -47.221  10.663  1.00  0.00     0.032 A 
HETATM   21  C   UNL     1     -41.419 -49.186  12.038  1.00  0.00     0.062 A 
HETATM   22  C   UNL     1     -42.582 -47.045  10.727  1.00  0.00     0.002 A 
HETATM   23  C   UNL     1     -43.372 -47.920  11.463  1.00  0.00     0.002 A 
HETATM   24  C   UNL     1     -42.793 -48.981  12.158  1.00  0.00     0.032 A 
BRANCH  16  25
HETATM   25  C   UNL     1     -38.050 -50.585  12.431  1.00  0.00     0.240 C 
BRANCH  25  26
HETATM   26  O   UNL     1     -37.599 -51.187  11.219  1.00  0.00    -0.393 OA
HETATM   27  H   UNL     1     -36.750 -50.745  11.012  1.00  0.00     0.209 HD
ENDBRANCH  25  26
ENDBRANCH  16  25
ENDBRANCH   1  15
TORSDOF 8
ENDMDL
MODEL 3
REMARK VINA RESULT:      -5.6      3.506      6.779
REMARK  8 active torsions:
REMARK  status: ('A' for Active; 'I' for Inactive)
REMARK    1  A    between atoms: C_8  and  O_9 
REMARK    2  A    between atoms: O_9  and  C_10 
REMARK    3  A    between atoms: C_10  and  C_11 
REMARK    4  A    between atoms: C_11  and  O_12 
REMARK    5  A    between atoms: C_11  and  C_13 
REMARK    6  A    between atoms: C_13  and  N_14 
REMARK    7  A    between atoms: C_15  and  C_16 
REMARK    8  A    between atoms: C_16  and  O_17 
ROOT
HETATM    1  C   UNL     1     -41.605 -50.900  13.373  1.00  0.00     0.164 C 
ENDROOT
BRANCH   1   2
HETATM    2  C   UNL     1     -41.481 -50.020  12.116  1.00  0.00     0.160 C 
BRANCH   2   3
HETATM    3  C   UNL     1     -40.782 -48.666  12.336  1.00  0.00     0.209 C 
BRANCH   3   4
HETATM    4  O   UNL     1     -39.371 -48.811  12.260  1.00  0.00    -0.347 OA
BRANCH   4   5
HETATM    5  C   UNL     1     -38.571 -48.617  13.361  1.00  0.00     0.080 A 
HETATM    6  C   UNL     1     -38.377 -47.433  14.107  1.00  0.00    -0.028 A 
HETATM    7  C   UNL     1     -38.952 -46.076  13.802  1.00  0.00     0.051 C 
HETATM    8  C   UNL     1     -37.544 -47.480  15.249  1.00  0.00     0.009 A 
HETATM    9  C   UNL     1     -36.890 -48.642  15.635  1.00  0.00     0.001 A 
HETATM   10  C   UNL     1     -37.036 -49.791  14.877  1.00  0.00     0.009 A 
HETATM   11  C   UNL     1     -37.869 -49.795  13.746  1.00  0.00    -0.028 A 
HETATM   12  C   UNL     1     -37.937 -51.077  12.947  1.00  0.00     0.051 C 
ENDBRANCH   4   5
ENDBRANCH   3   4
ENDBRANCH   2   3
BRANCH   2  13
HETATM   13  O   UNL     1     -40.847 -50.758  11.060  1.00  0.00    -0.392 OA
HETATM   14  H   UNL     1     -41.270 -51.634  10.993  1.00  0.00     0.210 HD
ENDBRANCH   2  13
ENDBRANCH   1   2
BRANCH   1  15
HETATM   15  N   UNL     1     -42.492 -52.047  13.238  1.00  0.00    -0.330 N 
HETATM   16  C   UNL     1     -42.145 -53.352  12.964  1.00  0.00     0.108 A 
HETATM   17  N   UNL     1     -43.212 -54.135  12.972  1.00  0.00    -0.342 N 
HETATM   18  C   UNL     1     -44.278 -53.319  13.229  1.00  0.00     0.060 A 
ATOM     19  HN  UNL     1     -43.235 -55.144  12.817  1.00  0.00     0.167 HD
HETATM   20  C   UNL     1     -45.645 -53.624  13.364  1.00  0.00     0.032 A 
HETATM   21  C   UNL     1     -43.864 -52.003  13.363  1.00  0.00     0.062 A 
HETATM   22  C   UNL     1     -46.549 -52.598  13.666  1.00  0.00     0.002 A 
HETATM   23  C   UNL     1     -46.111 -51.284  13.787  1.00  0.00     0.002 A 
HETATM   24  C   UNL     1     -44.766 -50.967  13.601  1.00  0.00     0.032 A 
BRANCH  16  25
HETATM   25  C   UNL     1     -40.763 -53.849  12.700  1.00  0.00     0.240 C 
BRANCH  25  26
HETATM   26  O   UNL     1     -40.461 -53.536  11.340  1.00  0.00    -0.393 OA
HETATM   27  H   UNL     1     -39.962 -52.694  11.374  1.00  0.00     0.209 HD
ENDBRANCH  25  26
ENDBRANCH  16  25
ENDBRANCH   1  15
TORSDOF 8
ENDMDL
MODEL 4
REMARK VINA RESULT:      -5.6      1.150      2.099
REMARK  8 active torsions:
REMARK  status: ('A' for Active; 'I' for Inactive)
REMARK    1  A    between atoms: C_8  and  O_9 
REMARK    2  A    between atoms: O_9  and  C_10 
REMARK    3  A    between atoms: C_10  and  C_11 
REMARK    4  A    between atoms: C_11  and  O_12 
REMARK    5  A    between atoms: C_11  and  C_13 
REMARK    6  A    between atoms: C_13  and  N_14 
REMARK    7  A    between atoms: C_15  and  C_16 
REMARK    8  A    between atoms: C_16  and  O_17 
ROOT
HETATM    1  C   UNL     1     -41.401 -53.918  16.309  1.00  0.00     0.164 C 
ENDROOT
BRANCH   1   2
HETATM    2  C   UNL     1     -42.573 -54.862  16.635  1.00  0.00     0.160 C 
BRANCH   2   3
HETATM    3  C   UNL     1     -43.895 -54.159  16.992  1.00  0.00     0.209 C 
BRANCH   3   4
HETATM    4  O   UNL     1     -44.888 -54.428  16.012  1.00  0.00    -0.347 OA
BRANCH   4   5
HETATM    5  C   UNL     1     -45.579 -53.413  15.394  1.00  0.00     0.080 A 
HETATM    6  C   UNL     1     -46.391 -52.419  15.985  1.00  0.00    -0.028 A 
HETATM    7  C   UNL     1     -46.751 -52.303  17.441  1.00  0.00     0.051 C 
HETATM    8  C   UNL     1     -46.963 -51.429  15.153  1.00  0.00     0.009 A 
HETATM    9  C   UNL     1     -46.777 -51.427  13.776  1.00  0.00     0.001 A 
HETATM   10  C   UNL     1     -46.025 -52.430  13.188  1.00  0.00     0.009 A 
HETATM   11  C   UNL     1     -45.422 -53.422  13.978  1.00  0.00    -0.028 A 
HETATM   12  C   UNL     1     -44.656 -54.506  13.255  1.00  0.00     0.051 C 
ENDBRANCH   4   5
ENDBRANCH   3   4
ENDBRANCH   2   3
BRANCH   2  13
HETATM   13  O   UNL     1     -42.763 -55.797  15.562  1.00  0.00    -0.392 OA
HETATM   14  H   UNL     1     -42.684 -55.322  14.715  1.00  0.00     0.210 HD
ENDBRANCH   2  13
ENDBRANCH   1   2
BRANCH   1  15
HETATM   15  N   UNL     1     -41.513 -53.213  15.039  1.00  0.00    -0.330 N 
HETATM   16  C   UNL     1     -40.994 -53.589  13.819  1.00  0.00     0.108 A 
HETATM   17  N   UNL     1     -41.344 -52.732  12.873  1.00  0.00    -0.342 N 
HETATM   18  C   UNL     1     -42.082 -51.763  13.496  1.00  0.00     0.060 A 
ATOM     19  HN  UNL     1     -41.110 -52.782  11.882  1.00  0.00     0.167 HD
HETATM   20  C   UNL     1     -42.715 -50.623  12.968  1.00  0.00     0.032 A 
HETATM   21  C   UNL     1     -42.173 -52.017  14.856  1.00  0.00     0.062 A 
HETATM   22  C   UNL     1     -43.450 -49.791  13.821  1.00  0.00     0.002 A 
HETATM   23  C   UNL     1     -43.520 -50.062  15.183  1.00  0.00     0.002 A 
HETATM   24  C   UNL     1     -42.851 -51.160  15.722  1.00  0.00     0.032 A 
BRANCH  16  25
HETATM   25  C   UNL     1     -40.158 -54.798  13.564  1.00  0.00     0.240 C 
BRANCH  25  26
HETATM   26  O   UNL     1     -38.805 -54.354  13.457  1.00  0.00    -0.393 OA
HETATM   27  H   UNL     1     -38.820 -53.415  13.737  1.00  0.00     0.209 HD
ENDBRANCH  25  26
ENDBRANCH  16  25
ENDBRANCH   1  15
TORSDOF 8
ENDMDL
MODEL 5
REMARK VINA RESULT:      -5.5      2.789      3.968
REMARK  8 active torsions:
REMARK  status: ('A' for Active; 'I' for Inactive)
REMARK    1  A    between atoms: C_8  and  O_9 
REMARK    2  A    between atoms: O_9  and  C_10 
REMARK    3  A    between atoms: C_10  and  C_11 
REMARK    4  A    between atoms: C_11  and  O_12 
REMARK    5  A    between atoms: C_11  and  C_13 
REMARK    6  A    between atoms: C_13  and  N_14 
REMARK    7  A    between atoms: C_15  and  C_16 
REMARK    8  A    between atoms: C_16  and  O_17 
ROOT
HETATM    1  C   UNL     1     -40.926 -51.339  13.274  1.00  0.00     0.164 C 
ENDROOT
BRANCH   1   2
HETATM    2  C   UNL     1     -41.432 -52.535  12.448  1.00  0.00     0.160 C 
BRANCH   2   3
HETATM    3  C   UNL     1     -42.915 -52.890  12.660  1.00  0.00     0.209 C 
BRANCH   3   4
HETATM    4  O   UNL     1     -43.273 -52.757  14.029  1.00  0.00    -0.347 OA
BRANCH   4   5
HETATM    5  C   UNL     1     -44.589 -52.699  14.423  1.00  0.00     0.080 A 
HETATM    6  C   UNL     1     -45.579 -53.702  14.320  1.00  0.00    -0.028 A 
HETATM    7  C   UNL     1     -45.428 -55.050  13.668  1.00  0.00     0.051 C 
HETATM    8  C   UNL     1     -46.864 -53.441  14.849  1.00  0.00     0.009 A 
HETATM    9  C   UNL     1     -47.187 -52.223  15.434  1.00  0.00     0.001 A 
HETATM   10  C   UNL     1     -46.234 -51.220  15.488  1.00  0.00     0.009 A 
HETATM   11  C   UNL     1     -44.939 -51.442  14.992  1.00  0.00    -0.028 A 
HETATM   12  C   UNL     1     -43.973 -50.280  15.049  1.00  0.00     0.051 C 
ENDBRANCH   4   5
ENDBRANCH   3   4
ENDBRANCH   2   3
BRANCH   2  13
HETATM   13  O   UNL     1     -41.149 -52.326  11.056  1.00  0.00    -0.392 OA
HETATM   14  H   UNL     1     -41.565 -51.492  10.774  1.00  0.00     0.210 HD
ENDBRANCH   2  13
ENDBRANCH   1   2
BRANCH   1  15
HETATM   15  N   UNL     1     -40.532 -50.174  12.494  1.00  0.00    -0.330 N 
HETATM   16  C   UNL     1     -39.264 -49.827  12.080  1.00  0.00     0.108 A 
HETATM   17  N   UNL     1     -39.293 -48.730  11.339  1.00  0.00    -0.342 N 
HETATM   18  C   UNL     1     -40.603 -48.341  11.293  1.00  0.00     0.060 A 
ATOM     19  HN  UNL     1     -38.499 -48.269  10.894  1.00  0.00     0.167 HD
HETATM   20  C   UNL     1     -41.205 -47.253  10.634  1.00  0.00     0.032 A 
HETATM   21  C   UNL     1     -41.395 -49.202  12.036  1.00  0.00     0.062 A 
HETATM   22  C   UNL     1     -42.593 -47.086  10.715  1.00  0.00     0.002 A 
HETATM   23  C   UNL     1     -43.365 -47.958  11.474  1.00  0.00     0.002 A 
HETATM   24  C   UNL     1     -42.769 -49.006  12.173  1.00  0.00     0.032 A 
BRANCH  16  25
HETATM   25  C   UNL     1     -38.010 -50.571  12.398  1.00  0.00     0.240 C 
BRANCH  25  26
HETATM   26  O   UNL     1     -37.535 -51.130  11.173  1.00  0.00    -0.393 OA
HETATM   27  H   UNL     1     -38.066 -50.701  10.471  1.00  0.00     0.209 HD
ENDBRANCH  25  26
ENDBRANCH  16  25
ENDBRANCH   1  15
TORSDOF 8
ENDMDL
MODEL 6
REMARK VINA RESULT:      -5.5      2.072      3.861
REMARK  8 active torsions:
REMARK  status: ('A' for Active; 'I' for Inactive)
REMARK    1  A    between atoms: C_8  and  O_9 
REMARK    2  A    between atoms: O_9  and  C_10 
REMARK    3  A    between atoms: C_10  and  C_11 
REMARK    4  A    between atoms: C_11  and  O_12 
REMARK    5  A    between atoms: C_11  and  C_13 
REMARK    6  A    between atoms: C_13  and  N_14 
REMARK    7  A    between atoms: C_15  and  C_16 
REMARK    8  A    between atoms: C_16  and  O_17 
ROOT
HETATM    1  C   UNL     1     -41.394 -52.967  15.886  1.00  0.00     0.164 C 
ENDROOT
BRANCH   1   2
HETATM    2  C   UNL     1     -41.318 -51.436  16.027  1.00  0.00     0.160 C 
BRANCH   2   3
HETATM    3  C   UNL     1     -42.517 -50.789  16.744  1.00  0.00     0.209 C 
BRANCH   3   4
HETATM    4  O   UNL     1     -43.289 -50.016  15.835  1.00  0.00    -0.347 OA
BRANCH   4   5
HETATM    5  C   UNL     1     -44.463 -50.496  15.305  1.00  0.00     0.080 A 
HETATM    6  C   UNL     1     -45.654 -50.841  15.983  1.00  0.00    -0.028 A 
HETATM    7  C   UNL     1     -45.873 -50.838  17.472  1.00  0.00     0.051 C 
HETATM    8  C   UNL     1     -46.769 -51.262  15.222  1.00  0.00     0.009 A 
HETATM    9  C   UNL     1     -46.715 -51.376  13.838  1.00  0.00     0.001 A 
HETATM   10  C   UNL     1     -45.534 -51.089  13.176  1.00  0.00     0.009 A 
HETATM   11  C   UNL     1     -44.407 -50.649  13.891  1.00  0.00    -0.028 A 
HETATM   12  C   UNL     1     -43.144 -50.401  13.098  1.00  0.00     0.051 C 
ENDBRANCH   4   5
ENDBRANCH   3   4
ENDBRANCH   2   3
BRANCH   2  13
HETATM   13  O   UNL     1     -40.082 -51.061  16.653  1.00  0.00    -0.392 OA
HETATM   14  H   UNL     1     -40.153 -51.229  17.611  1.00  0.00     0.210 HD
ENDBRANCH   2  13
ENDBRANCH   1   2
BRANCH   1  15
HETATM   15  N   UNL     1     -42.200 -53.444  14.770  1.00  0.00    -0.330 N 
HETATM   16  C   UNL     1     -41.825 -53.558  13.449  1.00  0.00     0.108 A 
HETATM   17  N   UNL     1     -42.801 -54.084  12.726  1.00  0.00    -0.342 N 
HETATM   18  C   UNL     1     -43.841 -54.291  13.589  1.00  0.00     0.060 A 
ATOM     19  HN  UNL     1     -42.781 -54.292  11.727  1.00  0.00     0.167 HD
HETATM   20  C   UNL     1     -45.116 -54.842  13.360  1.00  0.00     0.032 A 
HETATM   21  C   UNL     1     -43.508 -53.867  14.866  1.00  0.00     0.062 A 
HETATM   22  C   UNL     1     -46.004 -54.980  14.433  1.00  0.00     0.002 A 
HETATM   23  C   UNL     1     -45.651 -54.539  15.704  1.00  0.00     0.002 A 
HETATM   24  C   UNL     1     -44.410 -53.944  15.926  1.00  0.00     0.032 A 
BRANCH  16  25
HETATM   25  C   UNL     1     -40.504 -53.161  12.882  1.00  0.00     0.240 C 
BRANCH  25  26
HETATM   26  O   UNL     1     -40.585 -53.344  11.468  1.00  0.00    -0.393 OA
HETATM   27  H   UNL     1     -40.859 -54.276  11.344  1.00  0.00     0.209 HD
ENDBRANCH  25  26
ENDBRANCH  16  25
ENDBRANCH   1  15
TORSDOF 8
ENDMDL
MODEL 7
REMARK VINA RESULT:      -5.5      3.652      7.016
REMARK  8 active torsions:
REMARK  status: ('A' for Active; 'I' for Inactive)
REMARK    1  A    between atoms: C_8  and  O_9 
REMARK    2  A    between atoms: O_9  and  C_10 
REMARK    3  A    between atoms: C_10  and  C_11 
REMARK    4  A    between atoms: C_11  and  O_12 
REMARK    5  A    between atoms: C_11  and  C_13 
REMARK    6  A    between atoms: C_13  and  N_14 
REMARK    7  A    between atoms: C_15  and  C_16 
REMARK    8  A    between atoms: C_16  and  O_17 
ROOT
HETATM    1  C   UNL     1     -41.819 -50.791  13.201  1.00  0.00     0.164 C 
ENDROOT
BRANCH   1   2
HETATM    2  C   UNL     1     -41.718 -50.144  11.807  1.00  0.00     0.160 C 
BRANCH   2   3
HETATM    3  C   UNL     1     -41.826 -48.608  11.795  1.00  0.00     0.209 C 
BRANCH   3   4
HETATM    4  O   UNL     1     -40.590 -48.020  11.415  1.00  0.00    -0.347 OA
BRANCH   4   5
HETATM    5  C   UNL     1     -39.995 -47.046  12.181  1.00  0.00     0.080 A 
HETATM    6  C   UNL     1     -39.288 -47.195  13.394  1.00  0.00    -0.028 A 
HETATM    7  C   UNL     1     -39.099 -48.470  14.173  1.00  0.00     0.051 C 
HETATM    8  C   UNL     1     -38.704 -46.050  13.984  1.00  0.00     0.009 A 
HETATM    9  C   UNL     1     -38.835 -44.786  13.423  1.00  0.00     0.001 A 
HETATM   10  C   UNL     1     -39.572 -44.628  12.262  1.00  0.00     0.009 A 
HETATM   11  C   UNL     1     -40.152 -45.741  11.632  1.00  0.00    -0.028 A 
HETATM   12  C   UNL     1     -40.979 -45.477  10.393  1.00  0.00     0.051 C 
ENDBRANCH   4   5
ENDBRANCH   3   4
ENDBRANCH   2   3
BRANCH   2  13
HETATM   13  O   UNL     1     -40.518 -50.579  11.149  1.00  0.00    -0.392 OA
HETATM   14  H   UNL     1     -39.880 -49.842  11.143  1.00  0.00     0.210 HD
ENDBRANCH   2  13
ENDBRANCH   1   2
BRANCH   1  15
HETATM   15  N   UNL     1     -42.625 -52.003  13.260  1.00  0.00    -0.330 N 
HETATM   16  C   UNL     1     -42.198 -53.306  13.124  1.00  0.00     0.108 A 
HETATM   17  N   UNL     1     -43.202 -54.152  13.293  1.00  0.00    -0.342 N 
HETATM   18  C   UNL     1     -44.310 -53.382  13.517  1.00  0.00     0.060 A 
ATOM     19  HN  UNL     1     -43.159 -55.171  13.262  1.00  0.00     0.167 HD
HETATM   20  C   UNL     1     -45.641 -53.759  13.775  1.00  0.00     0.032 A 
HETATM   21  C   UNL     1     -43.987 -52.035  13.466  1.00  0.00     0.062 A 
HETATM   22  C   UNL     1     -46.600 -52.766  14.008  1.00  0.00     0.002 A 
HETATM   23  C   UNL     1     -46.254 -51.421  13.943  1.00  0.00     0.002 A 
HETATM   24  C   UNL     1     -44.949 -51.040  13.635  1.00  0.00     0.032 A 
BRANCH  16  25
HETATM   25  C   UNL     1     -40.799 -53.738  12.834  1.00  0.00     0.240 C 
BRANCH  25  26
HETATM   26  O   UNL     1     -40.579 -53.527  11.440  1.00  0.00    -0.393 OA
HETATM   27  H   UNL     1     -41.437 -53.724  11.010  1.00  0.00     0.209 HD
ENDBRANCH  25  26
ENDBRANCH  16  25
ENDBRANCH   1  15
TORSDOF 8
ENDMDL
MODEL 8
REMARK VINA RESULT:      -5.5      3.683      6.854
REMARK  8 active torsions:
REMARK  status: ('A' for Active; 'I' for Inactive)
REMARK    1  A    between atoms: C_8  and  O_9 
REMARK    2  A    between atoms: O_9  and  C_10 
REMARK    3  A    between atoms: C_10  and  C_11 
REMARK    4  A    between atoms: C_11  and  O_12 
REMARK    5  A    between atoms: C_11  and  C_13 
REMARK    6  A    between atoms: C_13  and  N_14 
REMARK    7  A    between atoms: C_15  and  C_16 
REMARK    8  A    between atoms: C_16  and  O_17 
ROOT
HETATM    1  C   UNL     1     -41.777 -50.876  13.248  1.00  0.00     0.164 C 
ENDROOT
BRANCH   1   2
HETATM    2  C   UNL     1     -41.716 -50.190  11.870  1.00  0.00     0.160 C 
BRANCH   2   3
HETATM    3  C   UNL     1     -41.649 -48.653  11.912  1.00  0.00     0.209 C 
BRANCH   3   4
HETATM    4  O   UNL     1     -40.311 -48.204  11.750  1.00  0.00    -0.347 OA
BRANCH   4   5
HETATM    5  C   UNL     1     -39.905 -46.976  12.218  1.00  0.00     0.080 A 
HETATM    6  C   UNL     1     -40.143 -45.702  11.657  1.00  0.00    -0.028 A 
HETATM    7  C   UNL     1     -40.835 -45.410  10.353  1.00  0.00     0.051 C 
HETATM    8  C   UNL     1     -39.676 -44.560  12.348  1.00  0.00     0.009 A 
HETATM    9  C   UNL     1     -38.967 -44.658  13.539  1.00  0.00     0.001 A 
HETATM   10  C   UNL     1     -38.687 -45.908  14.064  1.00  0.00     0.009 A 
HETATM   11  C   UNL     1     -39.147 -47.069  13.421  1.00  0.00    -0.028 A 
HETATM   12  C   UNL     1     -38.760 -48.395  14.035  1.00  0.00     0.051 C 
ENDBRANCH   4   5
ENDBRANCH   3   4
ENDBRANCH   2   3
BRANCH   2  13
HETATM   13  O   UNL     1     -40.631 -50.730  11.100  1.00  0.00    -0.392 OA
HETATM   14  H   UNL     1     -40.962 -50.961  10.213  1.00  0.00     0.210 HD
ENDBRANCH   2  13
ENDBRANCH   1   2
BRANCH   1  15
HETATM   15  N   UNL     1     -42.608 -52.071  13.305  1.00  0.00    -0.330 N 
HETATM   16  C   UNL     1     -42.207 -53.382  13.170  1.00  0.00     0.108 A 
HETATM   17  N   UNL     1     -43.229 -54.207  13.336  1.00  0.00    -0.342 N 
HETATM   18  C   UNL     1     -44.321 -53.415  13.557  1.00  0.00     0.060 A 
ATOM     19  HN  UNL     1     -43.206 -55.227  13.305  1.00  0.00     0.167 HD
HETATM   20  C   UNL     1     -45.661 -53.765  13.811  1.00  0.00     0.032 A 
HETATM   21  C   UNL     1     -43.971 -52.075  13.506  1.00  0.00     0.062 A 
HETATM   22  C   UNL     1     -46.600 -52.752  14.041  1.00  0.00     0.002 A 
HETATM   23  C   UNL     1     -46.227 -51.414  13.977  1.00  0.00     0.002 A 
HETATM   24  C   UNL     1     -44.913 -51.061  13.673  1.00  0.00     0.032 A 
BRANCH  16  25
HETATM   25  C   UNL     1     -40.817 -53.843  12.884  1.00  0.00     0.240 C 
BRANCH  25  26
HETATM   26  O   UNL     1     -40.577 -53.607  11.497  1.00  0.00    -0.393 OA
HETATM   27  H   UNL     1     -41.457 -53.659  11.070  1.00  0.00     0.209 HD
ENDBRANCH  25  26
ENDBRANCH  16  25
ENDBRANCH   1  15
TORSDOF 8
ENDMDL
MODEL 9
REMARK VINA RESULT:      -5.4      1.676      2.762
REMARK  8 active torsions:
REMARK  status: ('A' for Active; 'I' for Inactive)
REMARK    1  A    between atoms: C_8  and  O_9 
REMARK    2  A    between atoms: O_9  and  C_10 
REMARK    3  A    between atoms: C_10  and  C_11 
REMARK    4  A    between atoms: C_11  and  O_12 
REMARK    5  A    between atoms: C_11  and  C_13 
REMARK    6  A    between atoms: C_13  and  N_14 
REMARK    7  A    between atoms: C_15  and  C_16 
REMARK    8  A    between atoms: C_16  and  O_17 
ROOT
HETATM    1  C   UNL     1     -40.620 -52.397  13.589  1.00  0.00     0.164 C 
ENDROOT
BRANCH   1   2
HETATM    2  C   UNL     1     -41.404 -53.252  12.577  1.00  0.00     0.160 C 
BRANCH   2   3
HETATM    3  C   UNL     1     -42.835 -52.765  12.286  1.00  0.00     0.209 C 
BRANCH   3   4
HETATM    4  O   UNL     1     -43.791 -53.685  12.794  1.00  0.00    -0.347 OA
BRANCH   4   5
HETATM    5  C   UNL     1     -44.599 -53.363  13.860  1.00  0.00     0.080 A 
HETATM    6  C   UNL     1     -45.620 -52.388  13.923  1.00  0.00    -0.028 A 
HETATM    7  C   UNL     1     -45.998 -51.413  12.841  1.00  0.00     0.051 C 
HETATM    8  C   UNL     1     -46.369 -52.269  15.116  1.00  0.00     0.009 A 
HETATM    9  C   UNL     1     -46.108 -53.055  16.231  1.00  0.00     0.001 A 
HETATM   10  C   UNL     1     -45.074 -53.974  16.190  1.00  0.00     0.009 A 
HETATM   11  C   UNL     1     -44.317 -54.140  15.019  1.00  0.00    -0.028 A 
HETATM   12  C   UNL     1     -43.177 -55.132  15.072  1.00  0.00     0.051 C 
ENDBRANCH   4   5
ENDBRANCH   3   4
ENDBRANCH   2   3
BRANCH   2  13
HETATM   13  O   UNL     1     -40.651 -53.388  11.362  1.00  0.00    -0.392 OA
HETATM   14  H   UNL     1     -40.285 -54.290  11.320  1.00  0.00     0.210 HD
ENDBRANCH   2  13
ENDBRANCH   1   2
BRANCH   1  15
HETATM   15  N   UNL     1     -41.070 -51.017  13.710  1.00  0.00    -0.330 N 
HETATM   16  C   UNL     1     -40.750 -49.952  12.896  1.00  0.00     0.108 A 
HETATM   17  N   UNL     1     -41.391 -48.858  13.277  1.00  0.00    -0.342 N 
HETATM   18  C   UNL     1     -42.122 -49.212  14.377  1.00  0.00     0.060 A 
ATOM     19  HN  UNL     1     -41.348 -47.938  12.839  1.00  0.00     0.167 HD
HETATM   20  C   UNL     1     -42.996 -48.448  15.171  1.00  0.00     0.032 A 
HETATM   21  C   UNL     1     -41.913 -50.545  14.694  1.00  0.00     0.062 A 
HETATM   22  C   UNL     1     -43.662 -49.060  16.240  1.00  0.00     0.002 A 
HETATM   23  C   UNL     1     -43.429 -50.397  16.544  1.00  0.00     0.002 A 
HETATM   24  C   UNL     1     -42.523 -51.146  15.794  1.00  0.00     0.032 A 
BRANCH  16  25
HETATM   25  C   UNL     1     -39.819 -49.996  11.731  1.00  0.00     0.240 C 
BRANCH  25  26
HETATM   26  O   UNL     1     -40.579 -50.439  10.607  1.00  0.00    -0.393 OA
HETATM   27  H   UNL     1     -41.026 -49.638  10.266  1.00  0.00     0.209 HD
ENDBRANCH  25  26
ENDBRANCH  16  25
ENDBRANCH   1  15
TORSDOF 8
ENDMDL
