MODEL 1
REMARK VINA RESULT:      -7.2      0.000      0.000
REMARK  2 active torsions:
REMARK  status: ('A' for Active; 'I' for Inactive)
REMARK    1  A    between atoms: C_6  and  N_7 
REMARK       I    between atoms: N_7  and  C_8 
REMARK       I    between atoms: C_8  and  N_10 
REMARK    2  A    between atoms: N_10  and  C_11 
ROOT
HETATM    1  N   UNL     1     -41.986 -51.313  12.831  1.00  0.00    -0.295 N 
HETATM    2  C   UNL     1     -41.422 -50.416  11.960  1.00  0.00     0.322 C 
HETATM    3  O   UNL     1     -40.242 -50.534  11.628  1.00  0.00    -0.247 OA
HETATM    4  N   UNL     1     -42.258 -49.444  11.492  1.00  0.00    -0.337 N 
HETATM    5  H   UNL     1     -41.378 -52.087  13.080  1.00  0.00     0.172 HD
HETATM    6  H   UNL     1     -43.135 -49.393  12.012  1.00  0.00     0.164 HD
ENDROOT
BRANCH   4   7
HETATM    7  C   UNL     1     -41.859 -48.313  10.664  1.00  0.00     0.103 C 
HETATM    8  C   UNL     1     -43.012 -47.628   9.866  1.00  0.00     0.041 C 
HETATM    9  C   UNL     1     -43.556 -47.101   8.552  1.00  0.00     0.035 C 
HETATM   10  C   UNL     1     -42.085 -46.350  10.079  1.00  0.00     0.138 C 
HETATM   11  C   UNL     1     -43.970 -45.661   8.950  1.00  0.00     0.168 C 
HETATM   12  O   UNL     1     -42.893 -45.197   9.784  1.00  0.00    -0.385 OA
HETATM   13  C   UNL     1     -41.819 -46.916  11.492  1.00  0.00     0.007 C 
HETATM   14  C   UNL     1     -40.493 -46.795  12.248  1.00  0.00     0.014 C 
HETATM   15  C   UNL     1     -42.897 -46.409  12.466  1.00  0.00     0.014 C 
HETATM   16  C   UNL     1     -40.875 -46.454  13.697  1.00  0.00     0.001 C 
HETATM   17  C   UNL     1     -42.354 -46.767  13.830  1.00  0.00     0.001 C 
ENDBRANCH   4   7
BRANCH   1  18
HETATM   18  C   UNL     1     -43.274 -51.264  13.381  1.00  0.00     0.109 A 
HETATM   19  C   UNL     1     -43.444 -50.835  14.687  1.00  0.00     0.049 A 
HETATM   20  C   UNL     1     -44.731 -50.850  15.221  1.00  0.00     0.006 A 
HETATM   21  C   UNL     1     -45.807 -51.258  14.435  1.00  0.00     0.025 A 
HETATM   22  C   UNL     1     -45.563 -51.642  13.127  1.00  0.00     0.007 A 
HETATM   23  C   UNL     1     -46.649 -52.095  12.205  1.00  0.00     0.068 C 
HETATM   24  N   UNL     1     -44.314 -51.660  12.615  1.00  0.00    -0.346 N 
ATOM     25  HN  UNL     1     -44.156 -51.970  11.656  1.00  0.00     0.167 HD
ENDBRANCH   1  18
TORSDOF 2
ENDMDL
MODEL 2
REMARK VINA RESULT:      -7.1      2.280      6.354
REMARK  2 active torsions:
REMARK  status: ('A' for Active; 'I' for Inactive)
REMARK    1  A    between atoms: C_6  and  N_7 
REMARK       I    between atoms: N_7  and  C_8 
REMARK       I    between atoms: C_8  and  N_10 
REMARK    2  A    between atoms: N_10  and  C_11 
ROOT
HETATM    1  N   UNL     1     -40.480 -49.227  11.132  1.00  0.00    -0.295 N 
HETATM    2  C   UNL     1     -40.462 -50.527  11.568  1.00  0.00     0.322 C 
HETATM    3  O   UNL     1     -39.389 -51.102  11.757  1.00  0.00    -0.247 OA
HETATM    4  N   UNL     1     -41.685 -51.090  11.791  1.00  0.00    -0.337 N 
HETATM    5  H   UNL     1     -39.562 -48.796  11.077  1.00  0.00     0.172 HD
HETATM    6  H   UNL     1     -42.451 -50.535  11.407  1.00  0.00     0.164 HD
ENDROOT
BRANCH   4   7
HETATM    7  C   UNL     1     -41.923 -52.488  12.130  1.00  0.00     0.103 C 
HETATM    8  C   UNL     1     -41.020 -53.063  13.266  1.00  0.00     0.041 C 
HETATM    9  C   UNL     1     -40.089 -54.150  13.768  1.00  0.00     0.035 C 
HETATM   10  C   UNL     1     -42.316 -53.954  13.523  1.00  0.00     0.138 C 
HETATM   11  C   UNL     1     -40.755 -54.521  15.118  1.00  0.00     0.168 C 
HETATM   12  O   UNL     1     -42.164 -54.541  14.828  1.00  0.00    -0.385 OA
HETATM   13  C   UNL     1     -43.122 -52.674  13.208  1.00  0.00     0.007 C 
HETATM   14  C   UNL     1     -44.476 -52.646  12.493  1.00  0.00     0.014 C 
HETATM   15  C   UNL     1     -43.319 -51.853  14.495  1.00  0.00     0.014 C 
HETATM   16  C   UNL     1     -45.327 -51.624  13.262  1.00  0.00     0.001 C 
HETATM   17  C   UNL     1     -44.360 -50.826  14.118  1.00  0.00     0.001 C 
ENDBRANCH   4   7
BRANCH   1  18
HETATM   18  C   UNL     1     -41.602 -48.468  10.777  1.00  0.00     0.109 A 
HETATM   19  C   UNL     1     -42.292 -47.768  11.754  1.00  0.00     0.049 A 
HETATM   20  C   UNL     1     -43.436 -47.068  11.377  1.00  0.00     0.006 A 
HETATM   21  C   UNL     1     -43.838 -47.055  10.043  1.00  0.00     0.025 A 
HETATM   22  C   UNL     1     -43.078 -47.750   9.117  1.00  0.00     0.007 A 
HETATM   23  C   UNL     1     -43.425 -47.798   7.663  1.00  0.00     0.068 C 
HETATM   24  N   UNL     1     -41.987 -48.458   9.482  1.00  0.00    -0.346 N 
ATOM     25  HN  UNL     1     -41.457 -48.982   8.785  1.00  0.00     0.167 HD
ENDBRANCH   1  18
TORSDOF 2
ENDMDL
MODEL 3
REMARK VINA RESULT:      -7.0      1.995      2.920
REMARK  2 active torsions:
REMARK  status: ('A' for Active; 'I' for Inactive)
REMARK    1  A    between atoms: C_6  and  N_7 
REMARK       I    between atoms: N_7  and  C_8 
REMARK       I    between atoms: C_8  and  N_10 
REMARK    2  A    between atoms: N_10  and  C_11 
ROOT
HETATM    1  N   UNL     1     -42.901 -53.104  12.588  1.00  0.00    -0.295 N 
HETATM    2  C   UNL     1     -41.790 -52.442  12.131  1.00  0.00     0.322 C 
HETATM    3  O   UNL     1     -40.752 -53.062  11.896  1.00  0.00    -0.247 OA
HETATM    4  N   UNL     1     -41.942 -51.098  11.941  1.00  0.00    -0.337 N 
HETATM    5  H   UNL     1     -42.797 -54.114  12.619  1.00  0.00     0.172 HD
HETATM    6  H   UNL     1     -42.799 -50.735  12.359  1.00  0.00     0.164 HD
ENDROOT
BRANCH   4   7
HETATM    7  C   UNL     1     -40.876 -50.169  11.588  1.00  0.00     0.103 C 
HETATM    8  C   UNL     1     -41.313 -48.680  11.428  1.00  0.00     0.041 C 
HETATM    9  C   UNL     1     -41.321 -47.402  10.610  1.00  0.00     0.035 C 
HETATM   10  C   UNL     1     -39.823 -48.432  11.935  1.00  0.00     0.138 C 
HETATM   11  C   UNL     1     -40.811 -46.372  11.650  1.00  0.00     0.168 C 
HETATM   12  O   UNL     1     -39.744 -47.052  12.335  1.00  0.00    -0.385 OA
HETATM   13  C   UNL     1     -40.067 -49.625  12.886  1.00  0.00     0.007 C 
HETATM   14  C   UNL     1     -39.003 -50.644  13.304  1.00  0.00     0.014 C 
HETATM   15  C   UNL     1     -40.694 -49.122  14.199  1.00  0.00     0.014 C 
HETATM   16  C   UNL     1     -39.216 -50.868  14.809  1.00  0.00     0.001 C 
HETATM   17  C   UNL     1     -40.588 -50.306  15.131  1.00  0.00     0.001 C 
ENDBRANCH   4   7
BRANCH   1  18
HETATM   18  C   UNL     1     -44.117 -52.539  12.993  1.00  0.00     0.109 A 
HETATM   19  C   UNL     1     -44.281 -52.139  14.309  1.00  0.00     0.049 A 
HETATM   20  C   UNL     1     -45.522 -51.632  14.691  1.00  0.00     0.006 A 
HETATM   21  C   UNL     1     -46.544 -51.507  13.752  1.00  0.00     0.025 A 
HETATM   22  C   UNL     1     -46.294 -51.897  12.447  1.00  0.00     0.007 A 
HETATM   23  C   UNL     1     -47.325 -51.804  11.368  1.00  0.00     0.068 C 
HETATM   24  N   UNL     1     -45.105 -52.420  12.079  1.00  0.00    -0.346 N 
ATOM     25  HN  UNL     1     -44.953 -52.723  11.116  1.00  0.00     0.167 HD
ENDBRANCH   1  18
TORSDOF 2
ENDMDL
MODEL 4
REMARK VINA RESULT:      -6.9      2.612      6.683
REMARK  2 active torsions:
REMARK  status: ('A' for Active; 'I' for Inactive)
REMARK    1  A    between atoms: C_6  and  N_7 
REMARK       I    between atoms: N_7  and  C_8 
REMARK       I    between atoms: C_8  and  N_10 
REMARK    2  A    between atoms: N_10  and  C_11 
ROOT
HETATM    1  N   UNL     1     -40.819 -50.750  11.581  1.00  0.00    -0.295 N 
HETATM    2  C   UNL     1     -41.157 -52.015  11.993  1.00  0.00     0.322 C 
HETATM    3  O   UNL     1     -40.397 -52.960  11.779  1.00  0.00    -0.247 OA
HETATM    4  N   UNL     1     -42.344 -52.119  12.659  1.00  0.00    -0.337 N 
HETATM    5  H   UNL     1     -39.886 -50.680  11.186  1.00  0.00     0.172 HD
HETATM    6  H   UNL     1     -42.917 -51.277  12.580  1.00  0.00     0.164 HD
ENDROOT
BRANCH   4   7
HETATM    7  C   UNL     1     -42.972 -53.366  13.076  1.00  0.00     0.103 C 
HETATM    8  C   UNL     1     -42.528 -53.904  14.472  1.00  0.00     0.041 C 
HETATM    9  C   UNL     1     -42.021 -55.048  15.329  1.00  0.00     0.035 C 
HETATM   10  C   UNL     1     -44.017 -54.471  14.467  1.00  0.00     0.138 C 
HETATM   11  C   UNL     1     -43.060 -55.050  16.480  1.00  0.00     0.168 C 
HETATM   12  O   UNL     1     -44.323 -54.846  15.821  1.00  0.00    -0.385 OA
HETATM   13  C   UNL     1     -44.405 -53.132  13.801  1.00  0.00     0.007 C 
HETATM   14  C   UNL     1     -45.503 -52.965  12.746  1.00  0.00     0.014 C 
HETATM   15  C   UNL     1     -44.712 -52.083  14.885  1.00  0.00     0.014 C 
HETATM   16  C   UNL     1     -46.255 -51.683  13.134  1.00  0.00     0.001 C 
HETATM   17  C   UNL     1     -45.366 -50.953  14.125  1.00  0.00     0.001 C 
ENDBRANCH   4   7
BRANCH   1  18
HETATM   18  C   UNL     1     -41.607 -49.595  11.658  1.00  0.00     0.109 A 
HETATM   19  C   UNL     1     -41.986 -49.107  12.899  1.00  0.00     0.049 A 
HETATM   20  C   UNL     1     -42.815 -47.988  12.939  1.00  0.00     0.006 A 
HETATM   21  C   UNL     1     -43.212 -47.371  11.754  1.00  0.00     0.025 A 
HETATM   22  C   UNL     1     -42.765 -47.896  10.553  1.00  0.00     0.007 A 
HETATM   23  C   UNL     1     -43.136 -47.308   9.230  1.00  0.00     0.068 C 
HETATM   24  N   UNL     1     -41.989 -49.000  10.507  1.00  0.00    -0.346 N 
ATOM     25  HN  UNL     1     -41.692 -49.383   9.609  1.00  0.00     0.167 HD
ENDBRANCH   1  18
TORSDOF 2
ENDMDL
MODEL 5
REMARK VINA RESULT:      -6.3      3.420      7.538
REMARK  2 active torsions:
REMARK  status: ('A' for Active; 'I' for Inactive)
REMARK    1  A    between atoms: C_6  and  N_7 
REMARK       I    between atoms: N_7  and  C_8 
REMARK       I    between atoms: C_8  and  N_10 
REMARK    2  A    between atoms: N_10  and  C_11 
ROOT
HETATM    1  N   UNL     1     -43.192 -53.133  11.901  1.00  0.00    -0.295 N 
HETATM    2  C   UNL     1     -43.940 -53.825  12.820  1.00  0.00     0.322 C 
HETATM    3  O   UNL     1     -44.856 -54.558  12.446  1.00  0.00    -0.247 OA
HETATM    4  N   UNL     1     -43.573 -53.657  14.124  1.00  0.00    -0.337 N 
HETATM    5  H   UNL     1     -43.412 -53.357  10.936  1.00  0.00     0.172 HD
HETATM    6  H   UNL     1     -42.924 -52.880  14.255  1.00  0.00     0.164 HD
ENDROOT
BRANCH   4   7
HETATM    7  C   UNL     1     -44.293 -54.182  15.278  1.00  0.00     0.103 C 
HETATM    8  C   UNL     1     -43.530 -54.096  16.637  1.00  0.00     0.041 C 
HETATM    9  C   UNL     1     -43.043 -54.770  17.905  1.00  0.00     0.035 C 
HETATM   10  C   UNL     1     -45.016 -53.958  17.194  1.00  0.00     0.138 C 
HETATM   11  C   UNL     1     -43.583 -53.805  18.990  1.00  0.00     0.168 C 
HETATM   12  O   UNL     1     -44.911 -53.471  18.544  1.00  0.00    -0.385 OA
HETATM   13  C   UNL     1     -45.283 -53.084  15.948  1.00  0.00     0.007 C 
HETATM   14  C   UNL     1     -46.607 -53.037  15.179  1.00  0.00     0.014 C 
HETATM   15  C   UNL     1     -44.934 -51.617  16.257  1.00  0.00     0.014 C 
HETATM   16  C   UNL     1     -46.850 -51.553  14.866  1.00  0.00     0.001 C 
HETATM   17  C   UNL     1     -45.524 -50.849  15.099  1.00  0.00     0.001 C 
ENDBRANCH   4   7
BRANCH   1  18
HETATM   18  C   UNL     1     -42.189 -52.191  12.162  1.00  0.00     0.109 A 
HETATM   19  C   UNL     1     -40.899 -52.620  12.429  1.00  0.00     0.049 A 
HETATM   20  C   UNL     1     -39.937 -51.661  12.738  1.00  0.00     0.006 A 
HETATM   21  C   UNL     1     -40.277 -50.309  12.741  1.00  0.00     0.025 A 
HETATM   22  C   UNL     1     -41.579 -49.954  12.431  1.00  0.00     0.007 A 
HETATM   23  C   UNL     1     -42.042 -48.532  12.407  1.00  0.00     0.068 C 
HETATM   24  N   UNL     1     -42.523 -50.882  12.162  1.00  0.00    -0.346 N 
ATOM     25  HN  UNL     1     -43.481 -50.597  11.961  1.00  0.00     0.167 HD
ENDBRANCH   1  18
TORSDOF 2
ENDMDL
MODEL 6
REMARK VINA RESULT:      -6.0      4.303      6.093
REMARK  2 active torsions:
REMARK  status: ('A' for Active; 'I' for Inactive)
REMARK    1  A    between atoms: C_6  and  N_7 
REMARK       I    between atoms: N_7  and  C_8 
REMARK       I    between atoms: C_8  and  N_10 
REMARK    2  A    between atoms: N_10  and  C_11 
ROOT
HETATM    1  N   UNL     1     -43.247 -52.863  12.042  1.00  0.00    -0.295 N 
HETATM    2  C   UNL     1     -42.060 -52.260  12.373  1.00  0.00     0.322 C 
HETATM    3  O   UNL     1     -41.192 -52.089  11.517  1.00  0.00    -0.247 OA
HETATM    4  N   UNL     1     -41.947 -51.857  13.673  1.00  0.00    -0.337 N 
HETATM    5  H   UNL     1     -43.351 -53.055  11.051  1.00  0.00     0.172 HD
HETATM    6  H   UNL     1     -42.678 -52.243  14.271  1.00  0.00     0.164 HD
ENDROOT
BRANCH   4   7
HETATM    7  C   UNL     1     -40.742 -51.314  14.287  1.00  0.00     0.103 C 
HETATM    8  C   UNL     1     -40.944 -50.650  15.685  1.00  0.00     0.041 C 
HETATM    9  C   UNL     1     -40.731 -49.468  16.611  1.00  0.00     0.035 C 
HETATM   10  C   UNL     1     -39.452 -51.172  15.888  1.00  0.00     0.138 C 
HETATM   11  C   UNL     1     -40.109 -50.162  17.850  1.00  0.00     0.168 C 
HETATM   12  O   UNL     1     -39.180 -51.114  17.299  1.00  0.00    -0.385 OA
HETATM   13  C   UNL     1     -39.906 -52.431  15.117  1.00  0.00     0.007 C 
HETATM   14  C   UNL     1     -39.023 -53.240  14.162  1.00  0.00     0.014 C 
HETATM   15  C   UNL     1     -40.496 -53.458  16.101  1.00  0.00     0.014 C 
HETATM   16  C   UNL     1     -39.319 -54.714  14.475  1.00  0.00     0.001 C 
HETATM   17  C   UNL     1     -40.602 -54.725  15.286  1.00  0.00     0.001 C 
ENDBRANCH   4   7
BRANCH   1  18
HETATM   18  C   UNL     1     -44.288 -53.217  12.910  1.00  0.00     0.109 A 
HETATM   19  C   UNL     1     -44.495 -54.550  13.223  1.00  0.00     0.049 A 
HETATM   20  C   UNL     1     -45.573 -54.873  14.045  1.00  0.00     0.006 A 
HETATM   21  C   UNL     1     -46.387 -53.864  14.555  1.00  0.00     0.025 A 
HETATM   22  C   UNL     1     -46.098 -52.550  14.225  1.00  0.00     0.007 A 
HETATM   23  C   UNL     1     -46.911 -51.398  14.721  1.00  0.00     0.068 C 
HETATM   24  N   UNL     1     -45.074 -52.235  13.403  1.00  0.00    -0.346 N 
ATOM     25  HN  UNL     1     -44.896 -51.261  13.155  1.00  0.00     0.167 HD
ENDBRANCH   1  18
TORSDOF 2
ENDMDL
MODEL 7
REMARK VINA RESULT:      -6.0      3.286      5.461
REMARK  2 active torsions:
REMARK  status: ('A' for Active; 'I' for Inactive)
REMARK    1  A    between atoms: C_6  and  N_7 
REMARK       I    between atoms: N_7  and  C_8 
REMARK       I    between atoms: C_8  and  N_10 
REMARK    2  A    between atoms: N_10  and  C_11 
ROOT
HETATM    1  N   UNL     1     -42.036 -51.341  11.809  1.00  0.00    -0.295 N 
HETATM    2  C   UNL     1     -41.440 -50.119  11.994  1.00  0.00     0.322 C 
HETATM    3  O   UNL     1     -41.505 -49.259  11.116  1.00  0.00    -0.247 OA
HETATM    4  N   UNL     1     -40.823 -49.942  13.199  1.00  0.00    -0.337 N 
HETATM    5  H   UNL     1     -42.579 -51.411  10.954  1.00  0.00     0.172 HD
HETATM    6  H   UNL     1     -40.711 -50.815  13.718  1.00  0.00     0.164 HD
ENDROOT
BRANCH   4   7
HETATM    7  C   UNL     1     -40.017 -48.787  13.574  1.00  0.00     0.103 C 
HETATM    8  C   UNL     1     -39.588 -48.729  15.073  1.00  0.00     0.041 C 
HETATM    9  C   UNL     1     -39.484 -47.953  16.372  1.00  0.00     0.035 C 
HETATM   10  C   UNL     1     -38.331 -47.982  14.441  1.00  0.00     0.138 C 
HETATM   11  C   UNL     1     -37.982 -48.129  16.712  1.00  0.00     0.168 C 
HETATM   12  O   UNL     1     -37.307 -47.962  15.452  1.00  0.00    -0.385 OA
HETATM   13  C   UNL     1     -38.434 -49.013  13.295  1.00  0.00     0.007 C 
HETATM   14  C   UNL     1     -38.116 -48.723  11.825  1.00  0.00     0.014 C 
HETATM   15  C   UNL     1     -37.621 -50.270  13.653  1.00  0.00     0.014 C 
HETATM   16  C   UNL     1     -37.329 -49.945  11.326  1.00  0.00     0.001 C 
HETATM   17  C   UNL     1     -37.548 -51.039  12.355  1.00  0.00     0.001 C 
ENDBRANCH   4   7
BRANCH   1  18
HETATM   18  C   UNL     1     -41.972 -52.453  12.659  1.00  0.00     0.109 A 
HETATM   19  C   UNL     1     -43.136 -52.953  13.220  1.00  0.00     0.049 A 
HETATM   20  C   UNL     1     -43.031 -54.025  14.104  1.00  0.00     0.006 A 
HETATM   21  C   UNL     1     -41.785 -54.586  14.375  1.00  0.00     0.025 A 
HETATM   22  C   UNL     1     -40.670 -54.053  13.750  1.00  0.00     0.007 A 
HETATM   23  C   UNL     1     -39.290 -54.584  13.976  1.00  0.00     0.068 C 
HETATM   24  N   UNL     1     -40.762 -52.993  12.918  1.00  0.00    -0.346 N 
ATOM     25  HN  UNL     1     -39.923 -52.603  12.489  1.00  0.00     0.167 HD
ENDBRANCH   1  18
TORSDOF 2
ENDMDL
MODEL 8
REMARK VINA RESULT:      -5.9      3.694      6.584
REMARK  2 active torsions:
REMARK  status: ('A' for Active; 'I' for Inactive)
REMARK    1  A    between atoms: C_6  and  N_7 
REMARK       I    between atoms: N_7  and  C_8 
REMARK       I    between atoms: C_8  and  N_10 
REMARK    2  A    between atoms: N_10  and  C_11 
ROOT
HETATM    1  N   UNL     1     -40.759 -49.498  15.840  1.00  0.00    -0.295 N 
HETATM    2  C   UNL     1     -41.829 -50.342  15.996  1.00  0.00     0.322 C 
HETATM    3  O   UNL     1     -42.294 -50.551  17.117  1.00  0.00    -0.247 OA
HETATM    4  N   UNL     1     -42.328 -50.880  14.845  1.00  0.00    -0.337 N 
HETATM    5  H   UNL     1     -40.475 -49.027  16.694  1.00  0.00     0.172 HD
HETATM    6  H   UNL     1     -41.708 -50.743  14.044  1.00  0.00     0.164 HD
ENDROOT
BRANCH   4   7
HETATM    7  C   UNL     1     -43.370 -51.896  14.769  1.00  0.00     0.103 C 
HETATM    8  C   UNL     1     -44.607 -51.521  13.895  1.00  0.00     0.041 C 
HETATM    9  C   UNL     1     -46.112 -51.410  13.743  1.00  0.00     0.035 C 
HETATM   10  C   UNL     1     -44.627 -53.097  13.663  1.00  0.00     0.138 C 
HETATM   11  C   UNL     1     -46.343 -52.191  12.424  1.00  0.00     0.168 C 
HETATM   12  O   UNL     1     -45.484 -53.340  12.534  1.00  0.00    -0.385 OA
HETATM   13  C   UNL     1     -43.086 -52.996  13.610  1.00  0.00     0.007 C 
HETATM   14  C   UNL     1     -42.120 -54.065  14.130  1.00  0.00     0.014 C 
HETATM   15  C   UNL     1     -42.635 -52.699  12.169  1.00  0.00     0.014 C 
HETATM   16  C   UNL     1     -41.014 -54.171  13.069  1.00  0.00     0.001 C 
HETATM   17  C   UNL     1     -41.144 -52.935  12.197  1.00  0.00     0.001 C 
ENDBRANCH   4   7
BRANCH   1  18
HETATM   18  C   UNL     1     -40.055 -49.232  14.658  1.00  0.00     0.109 A 
HETATM   19  C   UNL     1     -40.343 -48.086  13.934  1.00  0.00     0.049 A 
HETATM   20  C   UNL     1     -39.663 -47.879  12.735  1.00  0.00     0.006 A 
HETATM   21  C   UNL     1     -38.701 -48.793  12.312  1.00  0.00     0.025 A 
HETATM   22  C   UNL     1     -38.444 -49.898  13.107  1.00  0.00     0.007 A 
HETATM   23  C   UNL     1     -37.431 -50.935  12.740  1.00  0.00     0.068 C 
HETATM   24  N   UNL     1     -39.123 -50.120  14.253  1.00  0.00    -0.346 N 
ATOM     25  HN  UNL     1     -38.932 -50.954  14.809  1.00  0.00     0.167 HD
ENDBRANCH   1  18
TORSDOF 2
ENDMDL
MODEL 9
REMARK VINA RESULT:      -5.8      4.013      5.944
REMARK  2 active torsions:
REMARK  status: ('A' for Active; 'I' for Inactive)
REMARK    1  A    between atoms: C_6  and  N_7 
REMARK       I    between atoms: N_7  and  C_8 
REMARK       I    between atoms: C_8  and  N_10 
REMARK    2  A    between atoms: N_10  and  C_11 
ROOT
HETATM    1  N   UNL     1     -46.580 -51.917  13.843  1.00  0.00    -0.295 N 
HETATM    2  C   UNL     1     -45.576 -52.376  13.029  1.00  0.00     0.322 C 
HETATM    3  O   UNL     1     -45.844 -52.896  11.947  1.00  0.00    -0.247 OA
HETATM    4  N   UNL     1     -44.307 -52.184  13.496  1.00  0.00    -0.337 N 
HETATM    5  H   UNL     1     -47.506 -51.972  13.429  1.00  0.00     0.172 HD
HETATM    6  H   UNL     1     -44.284 -51.911  14.479  1.00  0.00     0.164 HD
ENDROOT
BRANCH   4   7
HETATM    7  C   UNL     1     -43.092 -52.698  12.875  1.00  0.00     0.103 C 
HETATM    8  C   UNL     1     -41.967 -51.643  12.633  1.00  0.00     0.041 C 
HETATM    9  C   UNL     1     -40.964 -50.996  11.697  1.00  0.00     0.035 C 
HETATM   10  C   UNL     1     -41.044 -52.922  12.857  1.00  0.00     0.138 C 
HETATM   11  C   UNL     1     -39.658 -51.113  12.524  1.00  0.00     0.168 C 
HETATM   12  O   UNL     1     -39.710 -52.436  13.090  1.00  0.00    -0.385 OA
HETATM   13  C   UNL     1     -42.054 -53.321  13.956  1.00  0.00     0.007 C 
HETATM   14  C   UNL     1     -42.455 -54.759  14.297  1.00  0.00     0.014 C 
HETATM   15  C   UNL     1     -41.645 -52.679  15.294  1.00  0.00     0.014 C 
HETATM   16  C   UNL     1     -42.493 -54.824  15.831  1.00  0.00     0.001 C 
HETATM   17  C   UNL     1     -42.505 -53.385  16.315  1.00  0.00     0.001 C 
ENDBRANCH   4   7
BRANCH   1  18
HETATM   18  C   UNL     1     -46.452 -51.394  15.136  1.00  0.00     0.109 A 
HETATM   19  C   UNL     1     -47.520 -51.472  16.015  1.00  0.00     0.049 A 
HETATM   20  C   UNL     1     -47.377 -50.894  17.275  1.00  0.00     0.006 A 
HETATM   21  C   UNL     1     -46.174 -50.290  17.633  1.00  0.00     0.025 A 
HETATM   22  C   UNL     1     -45.139 -50.281  16.713  1.00  0.00     0.007 A 
HETATM   23  C   UNL     1     -43.810 -49.658  17.001  1.00  0.00     0.068 C 
HETATM   24  N   UNL     1     -45.282 -50.811  15.479  1.00  0.00    -0.346 N 
ATOM     25  HN  UNL     1     -44.514 -50.770  14.809  1.00  0.00     0.167 HD
ENDBRANCH   1  18
TORSDOF 2
ENDMDL
