MODEL 1
REMARK VINA RESULT:      -6.8      0.000      0.000
REMARK  6 active torsions:
REMARK  status: ('A' for Active; 'I' for Inactive)
REMARK    1  A    between atoms: N_2  and  C_16 
REMARK    2  A    between atoms: C_4  and  N_8 
REMARK    3  A    between atoms: N_8  and  C_14 
REMARK    4  A    between atoms: N_9  and  C_21 
REMARK    5  A    between atoms: C_16  and  C_19 
REMARK    6  A    between atoms: C_19  and  O_25 
ROOT
HETATM    1  C   UNL     1     -41.797 -50.633  13.295  1.00  0.00     0.122 A 
HETATM    2  N   UNL     1     -43.020 -52.251  14.131  1.00  0.00    -0.324 N 
HETATM    3  C   UNL     1     -42.150 -51.963  13.117  1.00  0.00     0.140 A 
HETATM    4  C   UNL     1     -40.892 -50.069  12.351  1.00  0.00     0.135 A 
HETATM    5  N   UNL     1     -42.427 -50.133  14.425  1.00  0.00    -0.346 N 
ATOM      6  HN  UNL     1     -42.362 -49.186  14.800  1.00  0.00     0.167 HD
HETATM    7  C   UNL     1     -43.125 -51.135  14.913  1.00  0.00     0.185 A 
HETATM    8  N   UNL     1     -40.426 -50.925  11.387  1.00  0.00    -0.337 N 
ATOM      9  HN  UNL     1     -39.745 -50.597  10.702  1.00  0.00     0.168 HD
HETATM   10  N   UNL     1     -41.743 -52.807  12.157  1.00  0.00    -0.336 N 
ATOM     11  HN  UNL     1     -42.056 -53.772  12.059  1.00  0.00     0.168 HD
HETATM   12  C   UNL     1     -40.863 -52.197  11.341  1.00  0.00     0.183 A 
ENDROOT
BRANCH   4  13
HETATM   13  N   UNL     1     -40.454 -48.744  12.310  1.00  0.00    -0.363 N 
HETATM   14  C   UNL     1     -39.040 -48.436  12.413  1.00  0.00     0.152 C 
BRANCH  13  15
HETATM   15  C   UNL     1     -41.419 -47.746  11.819  1.00  0.00     0.115 C 
HETATM   16  C   UNL     1     -42.272 -48.232  10.626  1.00  0.00     0.298 C 
HETATM   17  N   UNL     1     -42.292 -47.140   9.624  1.00  0.00     0.094 N 
HETATM   18  C   UNL     1     -41.901 -45.931  10.350  1.00  0.00     0.275 C 
HETATM   19  C   UNL     1     -40.825 -46.438  11.300  1.00  0.00     0.057 C 
BRANCH  17  20
HETATM   20  C   UNL     1     -43.572 -47.035   8.902  1.00  0.00     0.215 C 
HETATM   21  C   UNL     1     -43.593 -47.899   7.631  1.00  0.00     0.042 C 
HETATM   22  C   UNL     1     -44.747 -47.473   9.791  1.00  0.00     0.042 C 
ENDBRANCH  17  20
ENDBRANCH  13  15
ENDBRANCH   4  13
BRANCH   2  23
HETATM   23  C   UNL     1     -43.639 -53.537  14.389  1.00  0.00     0.169 C 
BRANCH  23  24
HETATM   24  C   UNL     1     -44.821 -53.898  13.454  1.00  0.00     0.078 C 
HETATM   25  C   UNL     1     -45.660 -52.635  13.185  1.00  0.00     0.066 C 
HETATM   26  C   UNL     1     -46.577 -52.304  14.352  1.00  0.00     0.170 C 
HETATM   27  O   UNL     1     -47.441 -53.404  14.612  1.00  0.00    -0.391 OA
HETATM   28  C   UNL     1     -46.734 -54.566  15.025  1.00  0.00     0.170 C 
HETATM   29  C   UNL     1     -45.741 -55.025  13.959  1.00  0.00     0.066 C 
BRANCH  24  30
HETATM   30  O   UNL     1     -44.264 -54.292  12.185  1.00  0.00    -0.388 OA
HETATM   31  H   UNL     1     -44.246 -53.512  11.600  1.00  0.00     0.210 HD
ENDBRANCH  24  30
ENDBRANCH  23  24
ENDBRANCH   2  23
TORSDOF 6
ENDMDL
MODEL 2
REMARK VINA RESULT:      -6.8      3.556      7.283
REMARK  6 active torsions:
REMARK  status: ('A' for Active; 'I' for Inactive)
REMARK    1  A    between atoms: N_2  and  C_16 
REMARK    2  A    between atoms: C_4  and  N_8 
REMARK    3  A    between atoms: N_8  and  C_14 
REMARK    4  A    between atoms: N_9  and  C_21 
REMARK    5  A    between atoms: C_16  and  C_19 
REMARK    6  A    between atoms: C_19  and  O_25 
ROOT
HETATM    1  C   UNL     1     -40.934 -49.132  13.117  1.00  0.00     0.122 A 
HETATM    2  N   UNL     1     -40.437 -47.017  12.808  1.00  0.00    -0.324 N 
HETATM    3  C   UNL     1     -40.082 -48.281  12.427  1.00  0.00     0.140 A 
HETATM    4  C   UNL     1     -40.768 -50.531  12.904  1.00  0.00     0.135 A 
HETATM    5  N   UNL     1     -41.815 -48.384  13.884  1.00  0.00    -0.346 N 
ATOM      6  HN  UNL     1     -42.550 -48.736  14.499  1.00  0.00     0.167 HD
HETATM    7  C   UNL     1     -41.506 -47.127  13.652  1.00  0.00     0.185 A 
HETATM    8  N   UNL     1     -39.805 -50.885  11.995  1.00  0.00    -0.337 N 
ATOM      9  HN  UNL     1     -39.660 -51.868  11.767  1.00  0.00     0.168 HD
HETATM   10  N   UNL     1     -39.104 -48.606  11.569  1.00  0.00    -0.336 N 
ATOM     11  HN  UNL     1     -38.488 -47.937  11.107  1.00  0.00     0.168 HD
HETATM   12  C   UNL     1     -39.052 -49.941  11.402  1.00  0.00     0.183 A 
ENDROOT
BRANCH   4  13
HETATM   13  N   UNL     1     -41.474 -51.555  13.536  1.00  0.00    -0.363 N 
HETATM   14  C   UNL     1     -41.177 -51.913  14.910  1.00  0.00     0.152 C 
BRANCH  13  15
HETATM   15  C   UNL     1     -42.723 -51.992  12.888  1.00  0.00     0.115 C 
HETATM   16  C   UNL     1     -44.003 -51.547  13.630  1.00  0.00     0.298 C 
HETATM   17  N   UNL     1     -44.908 -52.720  13.692  1.00  0.00     0.094 N 
HETATM   18  C   UNL     1     -44.430 -53.641  12.659  1.00  0.00     0.275 C 
HETATM   19  C   UNL     1     -42.916 -53.501  12.754  1.00  0.00     0.057 C 
BRANCH  17  20
HETATM   20  C   UNL     1     -46.334 -52.363  13.582  1.00  0.00     0.215 C 
HETATM   21  C   UNL     1     -46.780 -51.415  14.706  1.00  0.00     0.042 C 
HETATM   22  C   UNL     1     -46.631 -51.678  12.239  1.00  0.00     0.042 C 
ENDBRANCH  17  20
ENDBRANCH  13  15
ENDBRANCH   4  13
BRANCH   2  23
HETATM   23  C   UNL     1     -39.852 -45.781  12.326  1.00  0.00     0.169 C 
BRANCH  23  24
HETATM   24  C   UNL     1     -40.236 -45.393  10.875  1.00  0.00     0.078 C 
HETATM   25  C   UNL     1     -40.001 -43.884  10.674  1.00  0.00     0.066 C 
HETATM   26  C   UNL     1     -41.119 -43.051  11.280  1.00  0.00     0.170 C 
HETATM   27  O   UNL     1     -42.364 -43.421  10.700  1.00  0.00    -0.391 OA
HETATM   28  C   UNL     1     -42.720 -44.768  10.987  1.00  0.00     0.170 C 
HETATM   29  C   UNL     1     -41.674 -45.747  10.456  1.00  0.00     0.066 C 
BRANCH  24  30
HETATM   30  O   UNL     1     -39.320 -46.066   9.990  1.00  0.00    -0.388 OA
HETATM   31  H   UNL     1     -39.655 -46.966   9.824  1.00  0.00     0.210 HD
ENDBRANCH  24  30
ENDBRANCH  23  24
ENDBRANCH   2  23
TORSDOF 6
ENDMDL
MODEL 3
REMARK VINA RESULT:      -6.7      3.072      3.784
REMARK  6 active torsions:
REMARK  status: ('A' for Active; 'I' for Inactive)
REMARK    1  A    between atoms: N_2  and  C_16 
REMARK    2  A    between atoms: C_4  and  N_8 
REMARK    3  A    between atoms: N_8  and  C_14 
REMARK    4  A    between atoms: N_9  and  C_21 
REMARK    5  A    between atoms: C_16  and  C_19 
REMARK    6  A    between atoms: C_19  and  O_25 
ROOT
HETATM    1  C   UNL     1     -39.988 -49.880  13.214  1.00  0.00     0.122 A 
HETATM    2  N   UNL     1     -39.592 -51.567  14.560  1.00  0.00    -0.324 N 
HETATM    3  C   UNL     1     -39.101 -50.918  13.462  1.00  0.00     0.140 A 
HETATM    4  C   UNL     1     -39.709 -49.041  12.097  1.00  0.00     0.135 A 
HETATM    5  N   UNL     1     -40.989 -49.886  14.174  1.00  0.00    -0.346 N 
ATOM      6  HN  UNL     1     -41.781 -49.246  14.243  1.00  0.00     0.167 HD
HETATM    7  C   UNL     1     -40.703 -50.889  14.976  1.00  0.00     0.185 A 
HETATM    8  N   UNL     1     -38.557 -49.323  11.412  1.00  0.00    -0.337 N 
ATOM      9  HN  UNL     1     -38.277 -48.738  10.625  1.00  0.00     0.168 HD
HETATM   10  N   UNL     1     -37.993 -51.242  12.779  1.00  0.00    -0.336 N 
ATOM     11  HN  UNL     1     -37.388 -52.035  12.991  1.00  0.00     0.168 HD
HETATM   12  C   UNL     1     -37.792 -50.371  11.772  1.00  0.00     0.183 A 
ENDROOT
BRANCH   4  13
HETATM   13  N   UNL     1     -40.496 -47.983  11.638  1.00  0.00    -0.363 N 
HETATM   14  C   UNL     1     -39.902 -46.683  11.386  1.00  0.00     0.152 C 
BRANCH  13  15
HETATM   15  C   UNL     1     -41.823 -48.332  11.104  1.00  0.00     0.115 C 
HETATM   16  C   UNL     1     -42.148 -47.667   9.747  1.00  0.00     0.298 C 
HETATM   17  N   UNL     1     -43.529 -47.136   9.835  1.00  0.00     0.094 N 
HETATM   18  C   UNL     1     -44.152 -47.842  10.957  1.00  0.00     0.275 C 
HETATM   19  C   UNL     1     -43.018 -47.937  11.969  1.00  0.00     0.057 C 
BRANCH  17  20
HETATM   20  C   UNL     1     -44.271 -47.228   8.565  1.00  0.00     0.215 C 
HETATM   21  C   UNL     1     -43.530 -48.081   7.523  1.00  0.00     0.042 C 
HETATM   22  C   UNL     1     -45.661 -47.847   8.779  1.00  0.00     0.042 C 
ENDBRANCH  17  20
ENDBRANCH  13  15
ENDBRANCH   4  13
BRANCH   2  23
HETATM   23  C   UNL     1     -38.987 -52.705  15.225  1.00  0.00     0.169 C 
BRANCH  23  24
HETATM   24  C   UNL     1     -39.326 -54.085  14.606  1.00  0.00     0.078 C 
HETATM   25  C   UNL     1     -40.819 -54.119  14.226  1.00  0.00     0.066 C 
HETATM   26  C   UNL     1     -41.706 -54.352  15.438  1.00  0.00     0.170 C 
HETATM   27  O   UNL     1     -41.347 -55.576  16.070  1.00  0.00    -0.391 OA
HETATM   28  C   UNL     1     -40.023 -55.553  16.589  1.00  0.00     0.170 C 
HETATM   29  C   UNL     1     -38.995 -55.303  15.488  1.00  0.00     0.066 C 
BRANCH  24  30
HETATM   30  O   UNL     1     -38.593 -54.197  13.371  1.00  0.00    -0.388 OA
HETATM   31  H   UNL     1     -39.175 -54.599  12.700  1.00  0.00     0.210 HD
ENDBRANCH  24  30
ENDBRANCH  23  24
ENDBRANCH   2  23
TORSDOF 6
ENDMDL
MODEL 4
REMARK VINA RESULT:      -6.6      2.060      3.014
REMARK  6 active torsions:
REMARK  status: ('A' for Active; 'I' for Inactive)
REMARK    1  A    between atoms: N_2  and  C_16 
REMARK    2  A    between atoms: C_4  and  N_8 
REMARK    3  A    between atoms: N_8  and  C_14 
REMARK    4  A    between atoms: N_9  and  C_21 
REMARK    5  A    between atoms: C_16  and  C_19 
REMARK    6  A    between atoms: C_19  and  O_25 
ROOT
HETATM    1  C   UNL     1     -42.140 -49.404  12.068  1.00  0.00     0.122 A 
HETATM    2  N   UNL     1     -42.665 -51.113  13.339  1.00  0.00    -0.324 N 
HETATM    3  C   UNL     1     -41.650 -50.595  12.586  1.00  0.00     0.140 A 
HETATM    4  C   UNL     1     -41.270 -48.656  11.224  1.00  0.00     0.135 A 
HETATM    5  N   UNL     1     -43.430 -49.194  12.530  1.00  0.00    -0.346 N 
ATOM      6  HN  UNL     1     -44.043 -48.407  12.312  1.00  0.00     0.167 HD
HETATM    7  C   UNL     1     -43.699 -50.220  13.308  1.00  0.00     0.185 A 
HETATM    8  N   UNL     1     -40.013 -49.175  11.053  1.00  0.00    -0.337 N 
ATOM      9  HN  UNL     1     -39.326 -48.670  10.493  1.00  0.00     0.168 HD
HETATM   10  N   UNL     1     -40.441 -51.145  12.396  1.00  0.00    -0.336 N 
ATOM     11  HN  UNL     1     -40.141 -52.040  12.784  1.00  0.00     0.168 HD
HETATM   12  C   UNL     1     -39.680 -50.348  11.623  1.00  0.00     0.183 A 
ENDROOT
BRANCH   4  13
HETATM   13  N   UNL     1     -41.579 -47.470  10.557  1.00  0.00    -0.363 N 
HETATM   14  C   UNL     1     -42.572 -47.460   9.500  1.00  0.00     0.152 C 
BRANCH  13  15
HETATM   15  C   UNL     1     -41.131 -46.219  11.194  1.00  0.00     0.115 C 
HETATM   16  C   UNL     1     -42.274 -45.221  11.489  1.00  0.00     0.298 C 
HETATM   17  N   UNL     1     -41.815 -43.882  11.050  1.00  0.00     0.094 N 
HETATM   18  C   UNL     1     -40.357 -43.977  10.955  1.00  0.00     0.275 C 
HETATM   19  C   UNL     1     -40.144 -45.375  10.391  1.00  0.00     0.057 C 
BRANCH  17  20
HETATM   20  C   UNL     1     -42.303 -42.788  11.909  1.00  0.00     0.215 C 
HETATM   21  C   UNL     1     -43.518 -42.072  11.299  1.00  0.00     0.042 C 
HETATM   22  C   UNL     1     -42.710 -43.313  13.296  1.00  0.00     0.042 C 
ENDBRANCH  17  20
ENDBRANCH  13  15
ENDBRANCH   4  13
BRANCH   2  23
HETATM   23  C   UNL     1     -42.618 -52.339  14.113  1.00  0.00     0.169 C 
BRANCH  23  24
HETATM   24  C   UNL     1     -42.859 -53.638  13.304  1.00  0.00     0.078 C 
HETATM   25  C   UNL     1     -43.928 -53.375  12.226  1.00  0.00     0.066 C 
HETATM   26  C   UNL     1     -45.333 -53.378  12.808  1.00  0.00     0.170 C 
HETATM   27  O   UNL     1     -45.589 -54.628  13.438  1.00  0.00    -0.391 OA
HETATM   28  C   UNL     1     -44.735 -54.862  14.551  1.00  0.00     0.170 C 
HETATM   29  C   UNL     1     -43.266 -54.868  14.137  1.00  0.00     0.066 C 
BRANCH  24  30
HETATM   30  O   UNL     1     -41.641 -53.942  12.598  1.00  0.00    -0.388 OA
HETATM   31  H   UNL     1     -40.954 -54.171  13.252  1.00  0.00     0.210 HD
ENDBRANCH  24  30
ENDBRANCH  23  24
ENDBRANCH   2  23
TORSDOF 6
ENDMDL
MODEL 5
REMARK VINA RESULT:      -6.6      1.364      1.817
REMARK  6 active torsions:
REMARK  status: ('A' for Active; 'I' for Inactive)
REMARK    1  A    between atoms: N_2  and  C_16 
REMARK    2  A    between atoms: C_4  and  N_8 
REMARK    3  A    between atoms: N_8  and  C_14 
REMARK    4  A    between atoms: N_9  and  C_21 
REMARK    5  A    between atoms: C_16  and  C_19 
REMARK    6  A    between atoms: C_19  and  O_25 
ROOT
HETATM    1  C   UNL     1     -42.302 -49.267  12.695  1.00  0.00     0.122 A 
HETATM    2  N   UNL     1     -43.002 -51.075  13.723  1.00  0.00    -0.324 N 
HETATM    3  C   UNL     1     -42.197 -50.651  12.703  1.00  0.00     0.140 A 
HETATM    4  C   UNL     1     -41.557 -48.564  11.705  1.00  0.00     0.135 A 
HETATM    5  N   UNL     1     -43.141 -48.860  13.722  1.00  0.00    -0.346 N 
ATOM      6  HN  UNL     1     -43.410 -47.904  13.957  1.00  0.00     0.167 HD
HETATM    7  C   UNL     1     -43.516 -49.964  14.331  1.00  0.00     0.185 A 
HETATM    8  N   UNL     1     -40.772 -49.337  10.890  1.00  0.00    -0.337 N 
ATOM      9  HN  UNL     1     -40.183 -48.896  10.184  1.00  0.00     0.168 HD
HETATM   10  N   UNL     1     -41.472 -51.431  11.888  1.00  0.00    -0.336 N 
ATOM     11  HN  UNL     1     -41.451 -52.450  11.922  1.00  0.00     0.168 HD
HETATM   12  C   UNL     1     -40.774 -50.677  11.017  1.00  0.00     0.183 A 
ENDROOT
BRANCH   4  13
HETATM   13  N   UNL     1     -41.564 -47.186  11.485  1.00  0.00    -0.363 N 
HETATM   14  C   UNL     1     -40.326 -46.431  11.522  1.00  0.00     0.152 C 
BRANCH  13  15
HETATM   15  C   UNL     1     -42.784 -46.621  10.883  1.00  0.00     0.115 C 
HETATM   16  C   UNL     1     -43.910 -47.655  10.659  1.00  0.00     0.298 C 
HETATM   17  N   UNL     1     -44.448 -47.434   9.296  1.00  0.00     0.094 N 
HETATM   18  C   UNL     1     -44.026 -46.084   8.920  1.00  0.00     0.275 C 
HETATM   19  C   UNL     1     -42.621 -45.994   9.500  1.00  0.00     0.057 C 
BRANCH  17  20
HETATM   20  C   UNL     1     -45.899 -47.673   9.196  1.00  0.00     0.215 C 
HETATM   21  C   UNL     1     -46.678 -46.381   8.906  1.00  0.00     0.042 C 
HETATM   22  C   UNL     1     -46.220 -48.680   8.080  1.00  0.00     0.042 C 
ENDBRANCH  17  20
ENDBRANCH  13  15
ENDBRANCH   4  13
BRANCH   2  23
HETATM   23  C   UNL     1     -43.195 -52.448  14.148  1.00  0.00     0.169 C 
BRANCH  23  24
HETATM   24  C   UNL     1     -44.187 -53.270  13.287  1.00  0.00     0.078 C 
HETATM   25  C   UNL     1     -45.402 -52.392  12.932  1.00  0.00     0.066 C 
HETATM   26  C   UNL     1     -46.376 -52.277  14.094  1.00  0.00     0.170 C 
HETATM   27  O   UNL     1     -46.821 -53.573  14.478  1.00  0.00    -0.391 OA
HETATM   28  C   UNL     1     -45.764 -54.387  14.971  1.00  0.00     0.170 C 
HETATM   29  C   UNL     1     -44.675 -54.586  13.920  1.00  0.00     0.066 C 
BRANCH  24  30
HETATM   30  O   UNL     1     -43.530 -53.574  12.041  1.00  0.00    -0.388 OA
HETATM   31  H   UNL     1     -42.588 -53.746  12.222  1.00  0.00     0.210 HD
ENDBRANCH  24  30
ENDBRANCH  23  24
ENDBRANCH   2  23
TORSDOF 6
ENDMDL
MODEL 6
REMARK VINA RESULT:      -6.4      3.055      6.904
REMARK  6 active torsions:
REMARK  status: ('A' for Active; 'I' for Inactive)
REMARK    1  A    between atoms: N_2  and  C_16 
REMARK    2  A    between atoms: C_4  and  N_8 
REMARK    3  A    between atoms: N_8  and  C_14 
REMARK    4  A    between atoms: N_9  and  C_21 
REMARK    5  A    between atoms: C_16  and  C_19 
REMARK    6  A    between atoms: C_19  and  O_25 
ROOT
HETATM    1  C   UNL     1     -40.995 -51.022  12.651  1.00  0.00     0.122 A 
HETATM    2  N   UNL     1     -40.418 -48.964  12.155  1.00  0.00    -0.324 N 
HETATM    3  C   UNL     1     -40.811 -49.759  13.195  1.00  0.00     0.140 A 
HETATM    4  C   UNL     1     -41.421 -52.054  13.535  1.00  0.00     0.135 A 
HETATM    5  N   UNL     1     -40.687 -50.994  11.299  1.00  0.00    -0.346 N 
ATOM      6  HN  UNL     1     -40.734 -51.771  10.639  1.00  0.00     0.167 HD
HETATM    7  C   UNL     1     -40.320 -49.757  11.045  1.00  0.00     0.185 A 
HETATM    8  N   UNL     1     -41.557 -51.694  14.850  1.00  0.00    -0.337 N 
ATOM      9  HN  UNL     1     -41.822 -52.393  15.544  1.00  0.00     0.168 HD
HETATM   10  N   UNL     1     -40.981 -49.373  14.468  1.00  0.00    -0.336 N 
ATOM     11  HN  UNL     1     -40.855 -48.420  14.810  1.00  0.00     0.168 HD
HETATM   12  C   UNL     1     -41.343 -50.421  15.231  1.00  0.00     0.183 A 
ENDROOT
BRANCH   4  13
HETATM   13  N   UNL     1     -41.719 -53.373  13.188  1.00  0.00    -0.363 N 
HETATM   14  C   UNL     1     -40.675 -54.379  13.162  1.00  0.00     0.152 C 
BRANCH  13  15
HETATM   15  C   UNL     1     -43.143 -53.751  13.199  1.00  0.00     0.115 C 
HETATM   16  C   UNL     1     -44.110 -52.551  13.313  1.00  0.00     0.298 C 
HETATM   17  N   UNL     1     -45.133 -52.903  14.327  1.00  0.00     0.094 N 
HETATM   18  C   UNL     1     -45.078 -54.361  14.452  1.00  0.00     0.275 C 
HETATM   19  C   UNL     1     -43.587 -54.654  14.348  1.00  0.00     0.057 C 
BRANCH  17  20
HETATM   20  C   UNL     1     -46.470 -52.366  14.017  1.00  0.00     0.215 C 
HETATM   21  C   UNL     1     -46.967 -51.395  15.099  1.00  0.00     0.042 C 
HETATM   22  C   UNL     1     -46.468 -51.617  12.674  1.00  0.00     0.042 C 
ENDBRANCH  17  20
ENDBRANCH  13  15
ENDBRANCH   4  13
BRANCH   2  23
HETATM   23  C   UNL     1     -40.071 -47.558  12.234  1.00  0.00     0.169 C 
BRANCH  23  24
HETATM   24  C   UNL     1     -41.092 -46.590  11.584  1.00  0.00     0.078 C 
HETATM   25  C   UNL     1     -40.817 -45.156  12.075  1.00  0.00     0.066 C 
HETATM   26  C   UNL     1     -41.361 -44.923  13.476  1.00  0.00     0.170 C 
HETATM   27  O   UNL     1     -42.762 -45.173  13.495  1.00  0.00    -0.391 OA
HETATM   28  C   UNL     1     -43.078 -46.529  13.205  1.00  0.00     0.170 C 
HETATM   29  C   UNL     1     -42.573 -46.937  11.823  1.00  0.00     0.066 C 
BRANCH  24  30
HETATM   30  O   UNL     1     -40.843 -46.586  10.165  1.00  0.00    -0.388 OA
HETATM   31  H   UNL     1     -40.901 -45.668   9.844  1.00  0.00     0.210 HD
ENDBRANCH  24  30
ENDBRANCH  23  24
ENDBRANCH   2  23
TORSDOF 6
ENDMDL
MODEL 7
REMARK VINA RESULT:      -6.4      3.509      7.687
REMARK  6 active torsions:
REMARK  status: ('A' for Active; 'I' for Inactive)
REMARK    1  A    between atoms: N_2  and  C_16 
REMARK    2  A    between atoms: C_4  and  N_8 
REMARK    3  A    between atoms: N_8  and  C_14 
REMARK    4  A    between atoms: N_9  and  C_21 
REMARK    5  A    between atoms: C_16  and  C_19 
REMARK    6  A    between atoms: C_19  and  O_25 
ROOT
HETATM    1  C   UNL     1     -41.692 -49.134  12.276  1.00  0.00     0.122 A 
HETATM    2  N   UNL     1     -41.908 -47.046  11.639  1.00  0.00    -0.324 N 
HETATM    3  C   UNL     1     -41.743 -47.830  12.747  1.00  0.00     0.140 A 
HETATM    4  C   UNL     1     -41.531 -50.168  13.243  1.00  0.00     0.135 A 
HETATM    5  N   UNL     1     -41.796 -49.133  10.893  1.00  0.00    -0.346 N 
ATOM      6  HN  UNL     1     -41.796 -49.944  10.274  1.00  0.00     0.167 HD
HETATM    7  C   UNL     1     -41.895 -47.868  10.547  1.00  0.00     0.185 A 
HETATM    8  N   UNL     1     -41.395 -49.753  14.542  1.00  0.00    -0.337 N 
ATOM      9  HN  UNL     1     -41.238 -50.438  15.281  1.00  0.00     0.168 HD
HETATM   10  N   UNL     1     -41.657 -47.403  14.015  1.00  0.00    -0.336 N 
ATOM     11  HN  UNL     1     -41.726 -46.428  14.308  1.00  0.00     0.168 HD
HETATM   12  C   UNL     1     -41.466 -48.444  14.847  1.00  0.00     0.183 A 
ENDROOT
BRANCH   4  13
HETATM   13  N   UNL     1     -41.514 -51.541  12.995  1.00  0.00    -0.363 N 
HETATM   14  C   UNL     1     -40.398 -52.354  13.442  1.00  0.00     0.152 C 
BRANCH  13  15
HETATM   15  C   UNL     1     -42.792 -52.155  12.593  1.00  0.00     0.115 C 
HETATM   16  C   UNL     1     -44.027 -51.545  13.293  1.00  0.00     0.298 C 
HETATM   17  N   UNL     1     -44.881 -52.670  13.742  1.00  0.00     0.094 N 
HETATM   18  C   UNL     1     -44.450 -53.829  12.957  1.00  0.00     0.275 C 
HETATM   19  C   UNL     1     -42.939 -53.646  12.885  1.00  0.00     0.057 C 
BRANCH  17  20
HETATM   20  C   UNL     1     -46.323 -52.377  13.659  1.00  0.00     0.215 C 
HETATM   21  C   UNL     1     -46.787 -51.437  14.782  1.00  0.00     0.042 C 
HETATM   22  C   UNL     1     -46.678 -51.720  12.315  1.00  0.00     0.042 C 
ENDBRANCH  17  20
ENDBRANCH  13  15
ENDBRANCH   4  13
BRANCH   2  23
HETATM   23  C   UNL     1     -41.981 -45.598  11.618  1.00  0.00     0.169 C 
BRANCH  23  24
HETATM   24  C   UNL     1     -40.712 -44.882  11.091  1.00  0.00     0.078 C 
HETATM   25  C   UNL     1     -39.476 -45.431  11.829  1.00  0.00     0.066 C 
HETATM   26  C   UNL     1     -39.335 -44.836  13.221  1.00  0.00     0.170 C 
HETATM   27  O   UNL     1     -39.246 -43.419  13.131  1.00  0.00    -0.391 OA
HETATM   28  C   UNL     1     -40.428 -42.831  12.603  1.00  0.00     0.170 C 
HETATM   29  C   UNL     1     -40.729 -43.346  11.198  1.00  0.00     0.066 C 
BRANCH  24  30
HETATM   30  O   UNL     1     -40.552 -45.246   9.707  1.00  0.00    -0.388 OA
HETATM   31  H   UNL     1     -40.218 -44.470   9.220  1.00  0.00     0.210 HD
ENDBRANCH  24  30
ENDBRANCH  23  24
ENDBRANCH   2  23
TORSDOF 6
ENDMDL
MODEL 8
REMARK VINA RESULT:      -6.4      3.429      7.184
REMARK  6 active torsions:
REMARK  status: ('A' for Active; 'I' for Inactive)
REMARK    1  A    between atoms: N_2  and  C_16 
REMARK    2  A    between atoms: C_4  and  N_8 
REMARK    3  A    between atoms: N_8  and  C_14 
REMARK    4  A    between atoms: N_9  and  C_21 
REMARK    5  A    between atoms: C_16  and  C_19 
REMARK    6  A    between atoms: C_19  and  O_25 
ROOT
HETATM    1  C   UNL     1     -40.908 -49.477  11.945  1.00  0.00     0.122 A 
HETATM    2  N   UNL     1     -40.728 -47.460  11.099  1.00  0.00    -0.324 N 
HETATM    3  C   UNL     1     -40.159 -48.310  12.006  1.00  0.00     0.140 A 
HETATM    4  C   UNL     1     -40.526 -50.541  12.811  1.00  0.00     0.135 A 
HETATM    5  N   UNL     1     -41.903 -49.340  10.988  1.00  0.00    -0.346 N 
ATOM      6  HN  UNL     1     -42.608 -50.030  10.728  1.00  0.00     0.167 HD
HETATM    7  C   UNL     1     -41.746 -48.134  10.485  1.00  0.00     0.185 A 
HETATM    8  N   UNL     1     -39.417 -50.311  13.584  1.00  0.00    -0.337 N 
ATOM      9  HN  UNL     1     -39.065 -51.044  14.199  1.00  0.00     0.168 HD
HETATM   10  N   UNL     1     -39.100 -48.046  12.785  1.00  0.00    -0.336 N 
ATOM     11  HN  UNL     1     -38.600 -47.157  12.807  1.00  0.00     0.168 HD
HETATM   12  C   UNL     1     -38.791 -49.120  13.535  1.00  0.00     0.183 A 
ENDROOT
BRANCH   4  13
HETATM   13  N   UNL     1     -41.173 -51.769  12.952  1.00  0.00    -0.363 N 
HETATM   14  C   UNL     1     -40.493 -53.001  12.598  1.00  0.00     0.152 C 
BRANCH  13  15
HETATM   15  C   UNL     1     -42.392 -51.781  13.779  1.00  0.00     0.115 C 
HETATM   16  C   UNL     1     -43.660 -52.232  13.020  1.00  0.00     0.298 C 
HETATM   17  N   UNL     1     -44.745 -51.285  13.372  1.00  0.00     0.094 N 
HETATM   18  C   UNL     1     -44.306 -50.622  14.602  1.00  0.00     0.275 C 
HETATM   19  C   UNL     1     -42.811 -50.439  14.374  1.00  0.00     0.057 C 
BRANCH  17  20
HETATM   20  C   UNL     1     -46.070 -51.923  13.459  1.00  0.00     0.215 C 
HETATM   21  C   UNL     1     -46.889 -51.394  14.647  1.00  0.00     0.042 C 
HETATM   22  C   UNL     1     -46.886 -51.683  12.178  1.00  0.00     0.042 C 
ENDBRANCH  17  20
ENDBRANCH  13  15
ENDBRANCH   4  13
BRANCH   2  23
HETATM   23  C   UNL     1     -40.272 -46.122  10.776  1.00  0.00     0.169 C 
BRANCH  23  24
HETATM   24  C   UNL     1     -41.167 -44.974  11.309  1.00  0.00     0.078 C 
HETATM   25  C   UNL     1     -40.320 -43.695  11.453  1.00  0.00     0.066 C 
HETATM   26  C   UNL     1     -39.464 -43.722  12.709  1.00  0.00     0.170 C 
HETATM   27  O   UNL     1     -40.295 -43.876  13.855  1.00  0.00    -0.391 OA
HETATM   28  C   UNL     1     -40.987 -45.119  13.862  1.00  0.00     0.170 C 
HETATM   29  C   UNL     1     -41.888 -45.263  12.638  1.00  0.00     0.066 C 
BRANCH  24  30
HETATM   30  O   UNL     1     -42.156 -44.692  10.300  1.00  0.00    -0.388 OA
HETATM   31  H   UNL     1     -41.882 -43.894   9.813  1.00  0.00     0.210 HD
ENDBRANCH  24  30
ENDBRANCH  23  24
ENDBRANCH   2  23
TORSDOF 6
ENDMDL
MODEL 9
REMARK VINA RESULT:      -6.2      3.964      7.839
REMARK  6 active torsions:
REMARK  status: ('A' for Active; 'I' for Inactive)
REMARK    1  A    between atoms: N_2  and  C_16 
REMARK    2  A    between atoms: C_4  and  N_8 
REMARK    3  A    between atoms: N_8  and  C_14 
REMARK    4  A    between atoms: N_9  and  C_21 
REMARK    5  A    between atoms: C_16  and  C_19 
REMARK    6  A    between atoms: C_19  and  O_25 
ROOT
HETATM    1  C   UNL     1     -40.634 -47.466  11.876  1.00  0.00     0.122 A 
HETATM    2  N   UNL     1     -40.512 -45.310  11.486  1.00  0.00    -0.324 N 
HETATM    3  C   UNL     1     -41.085 -46.463  11.029  1.00  0.00     0.140 A 
HETATM    4  C   UNL     1     -41.082 -48.791  11.609  1.00  0.00     0.135 A 
HETATM    5  N   UNL     1     -39.819 -46.915  12.854  1.00  0.00    -0.346 N 
ATOM      6  HN  UNL     1     -39.340 -47.408  13.608  1.00  0.00     0.167 HD
HETATM    7  C   UNL     1     -39.793 -45.624  12.605  1.00  0.00     0.185 A 
HETATM    8  N   UNL     1     -41.958 -48.926  10.564  1.00  0.00    -0.337 N 
ATOM      9  HN  UNL     1     -42.349 -49.842  10.343  1.00  0.00     0.168 HD
HETATM   10  N   UNL     1     -41.905 -46.577   9.973  1.00  0.00    -0.336 N 
ATOM     11  HN  UNL     1     -42.185 -45.806   9.367  1.00  0.00     0.168 HD
HETATM   12  C   UNL     1     -42.306 -47.854   9.828  1.00  0.00     0.183 A 
ENDROOT
BRANCH   4  13
HETATM   13  N   UNL     1     -40.708 -49.947  12.296  1.00  0.00    -0.363 N 
HETATM   14  C   UNL     1     -39.341 -50.428  12.232  1.00  0.00     0.152 C 
BRANCH  13  15
HETATM   15  C   UNL     1     -41.638 -50.430  13.332  1.00  0.00     0.115 C 
HETATM   16  C   UNL     1     -42.761 -51.342  12.789  1.00  0.00     0.298 C 
HETATM   17  N   UNL     1     -44.032 -50.890  13.404  1.00  0.00     0.094 N 
HETATM   18  C   UNL     1     -43.645 -50.104  14.577  1.00  0.00     0.275 C 
HETATM   19  C   UNL     1     -42.412 -49.354  14.090  1.00  0.00     0.057 C 
BRANCH  17  20
HETATM   20  C   UNL     1     -44.967 -51.994  13.688  1.00  0.00     0.215 C 
HETATM   21  C   UNL     1     -46.427 -51.518  13.734  1.00  0.00     0.042 C 
HETATM   22  C   UNL     1     -44.862 -53.097  12.622  1.00  0.00     0.042 C 
ENDBRANCH  17  20
ENDBRANCH  13  15
ENDBRANCH   4  13
BRANCH   2  23
HETATM   23  C   UNL     1     -40.712 -43.980  10.944  1.00  0.00     0.169 C 
BRANCH  23  24
HETATM   24  C   UNL     1     -42.057 -43.310  11.322  1.00  0.00     0.078 C 
HETATM   25  C   UNL     1     -41.978 -41.802  11.016  1.00  0.00     0.066 C 
HETATM   26  C   UNL     1     -41.207 -41.047  12.086  1.00  0.00     0.170 C 
HETATM   27  O   UNL     1     -41.823 -41.244  13.353  1.00  0.00    -0.391 OA
HETATM   28  C   UNL     1     -41.786 -42.603  13.771  1.00  0.00     0.170 C 
HETATM   29  C   UNL     1     -42.508 -43.513  12.780  1.00  0.00     0.066 C 
BRANCH  24  30
HETATM   30  O   UNL     1     -43.069 -43.847  10.448  1.00  0.00    -0.388 OA
HETATM   31  H   UNL     1     -42.793 -44.740  10.168  1.00  0.00     0.210 HD
ENDBRANCH  24  30
ENDBRANCH  23  24
ENDBRANCH   2  23
TORSDOF 6
ENDMDL
