MODEL 1
REMARK VINA RESULT:      -6.5      0.000      0.000
REMARK  7 active torsions:
REMARK  status: ('A' for Active; 'I' for Inactive)
REMARK    1  A    between atoms: N_11  and  C_12 
REMARK    2  A    between atoms: C_12  and  C_13 
REMARK    3  A    between atoms: C_13  and  O_14 
REMARK    4  A    between atoms: C_13  and  C_15 
REMARK    5  A    between atoms: C_15  and  O_16 
REMARK    6  A    between atoms: O_16  and  C_17 
REMARK    7  A    between atoms: C_17  and  C_18 
ROOT
HETATM    1  C   UNL     1     -40.956 -52.920  12.562  1.00  0.00     0.160 C 
ENDROOT
BRANCH   1   2
HETATM    2  C   UNL     1     -39.990 -51.855  13.107  1.00  0.00     0.164 C 
BRANCH   2   3
HETATM    3  N   UNL     1     -40.091 -50.572  12.429  1.00  0.00    -0.332 N 
HETATM    4  C   UNL     1     -39.080 -49.944  11.730  1.00  0.00     0.080 A 
HETATM    5  C   UNL     1     -37.689 -50.450  11.632  1.00  0.00     0.089 C 
HETATM    6  N   UNL     1     -39.525 -48.845  11.152  1.00  0.00    -0.344 N 
HETATM    7  C   UNL     1     -40.852 -48.759  11.478  1.00  0.00     0.060 A 
ATOM      8  HN  UNL     1     -38.989 -48.193  10.579  1.00  0.00     0.167 HD
HETATM    9  C   UNL     1     -41.796 -47.790  11.109  1.00  0.00     0.032 A 
HETATM   10  C   UNL     1     -41.241 -49.828  12.281  1.00  0.00     0.062 A 
HETATM   11  C   UNL     1     -43.112 -47.918  11.566  1.00  0.00     0.002 A 
HETATM   12  C   UNL     1     -43.482 -48.994  12.374  1.00  0.00     0.002 A 
HETATM   13  C   UNL     1     -42.554 -49.974  12.748  1.00  0.00     0.032 A 
ENDBRANCH   2   3
ENDBRANCH   1   2
BRANCH   1  14
HETATM   14  O   UNL     1     -40.470 -53.519  11.358  1.00  0.00    -0.392 OA
HETATM   15  H   UNL     1     -39.996 -54.337  11.578  1.00  0.00     0.210 HD
ENDBRANCH   1  14
BRANCH   1  16
HETATM   16  C   UNL     1     -41.189 -54.027  13.602  1.00  0.00     0.201 C 
BRANCH  16  17
HETATM   17  O   UNL     1     -41.955 -53.502  14.679  1.00  0.00    -0.384 OA
BRANCH  17  18
HETATM   18  C   UNL     1     -43.238 -54.121  14.796  1.00  0.00     0.209 C 
BRANCH  18  19
HETATM   19  C   UNL     1     -44.312 -53.193  14.292  1.00  0.00     0.004 A 
HETATM   20  C   UNL     1     -44.866 -52.171  15.078  1.00  0.00     0.012 A 
HETATM   21  C   UNL     1     -45.872 -51.346  14.571  1.00  0.00     0.001 A 
HETATM   22  C   UNL     1     -46.337 -51.528  13.269  1.00  0.00     0.003 A 
HETATM   23  C   UNL     1     -45.789 -52.532  12.473  1.00  0.00     0.043 A 
HETATM   24  C   UNL     1     -44.787 -53.350  12.987  1.00  0.00     0.124 A 
HETATM   25  F   UNL     1     -44.273 -54.312  12.205  1.00  0.00    -0.205 F 
ENDBRANCH  18  19
ENDBRANCH  17  18
ENDBRANCH  16  17
ENDBRANCH   1  16
TORSDOF 7
ENDMDL
MODEL 2
REMARK VINA RESULT:      -6.3      2.402      4.541
REMARK  7 active torsions:
REMARK  status: ('A' for Active; 'I' for Inactive)
REMARK    1  A    between atoms: N_11  and  C_12 
REMARK    2  A    between atoms: C_12  and  C_13 
REMARK    3  A    between atoms: C_13  and  O_14 
REMARK    4  A    between atoms: C_13  and  C_15 
REMARK    5  A    between atoms: C_15  and  O_16 
REMARK    6  A    between atoms: O_16  and  C_17 
REMARK    7  A    between atoms: C_17  and  C_18 
ROOT
HETATM    1  C   UNL     1     -40.616 -51.227  12.411  1.00  0.00     0.160 C 
ENDROOT
BRANCH   1   2
HETATM    2  C   UNL     1     -40.831 -52.700  12.026  1.00  0.00     0.164 C 
BRANCH   2   3
HETATM    3  N   UNL     1     -41.305 -53.529  13.122  1.00  0.00    -0.332 N 
HETATM    4  C   UNL     1     -40.562 -53.935  14.212  1.00  0.00     0.080 A 
HETATM    5  C   UNL     1     -39.116 -53.653  14.392  1.00  0.00     0.089 C 
HETATM    6  N   UNL     1     -41.314 -54.592  15.072  1.00  0.00    -0.344 N 
HETATM    7  C   UNL     1     -42.574 -54.611  14.534  1.00  0.00     0.060 A 
ATOM      8  HN  UNL     1     -41.018 -55.003  15.958  1.00  0.00     0.167 HD
HETATM    9  C   UNL     1     -43.752 -55.169  15.050  1.00  0.00     0.032 A 
HETATM   10  C   UNL     1     -42.603 -53.952  13.307  1.00  0.00     0.062 A 
HETATM   11  C   UNL     1     -44.934 -55.056  14.312  1.00  0.00     0.002 A 
HETATM   12  C   UNL     1     -44.944 -54.396  13.082  1.00  0.00     0.002 A 
HETATM   13  C   UNL     1     -43.778 -53.828  12.553  1.00  0.00     0.032 A 
ENDBRANCH   2   3
ENDBRANCH   1   2
BRANCH   1  14
HETATM   14  O   UNL     1     -39.619 -50.601  11.600  1.00  0.00    -0.392 OA
HETATM   15  H   UNL     1     -39.830 -50.750  10.664  1.00  0.00     0.210 HD
ENDBRANCH   1  14
BRANCH   1  16
HETATM   16  C   UNL     1     -41.925 -50.433  12.282  1.00  0.00     0.201 C 
BRANCH  16  17
HETATM   17  O   UNL     1     -42.631 -50.494  13.515  1.00  0.00    -0.384 OA
BRANCH  17  18
HETATM   18  C   UNL     1     -44.044 -50.361  13.347  1.00  0.00     0.209 C 
BRANCH  18  19
HETATM   19  C   UNL     1     -44.768 -50.992  14.508  1.00  0.00     0.004 A 
HETATM   20  C   UNL     1     -44.150 -51.249  15.741  1.00  0.00     0.012 A 
HETATM   21  C   UNL     1     -44.859 -51.852  16.783  1.00  0.00     0.001 A 
HETATM   22  C   UNL     1     -46.198 -52.203  16.608  1.00  0.00     0.003 A 
HETATM   23  C   UNL     1     -46.827 -51.943  15.392  1.00  0.00     0.043 A 
HETATM   24  C   UNL     1     -46.112 -51.343  14.359  1.00  0.00     0.124 A 
HETATM   25  F   UNL     1     -46.736 -51.103  13.196  1.00  0.00    -0.205 F 
ENDBRANCH  18  19
ENDBRANCH  17  18
ENDBRANCH  16  17
ENDBRANCH   1  16
TORSDOF 7
ENDMDL
MODEL 3
REMARK VINA RESULT:      -6.0      1.888      3.909
REMARK  7 active torsions:
REMARK  status: ('A' for Active; 'I' for Inactive)
REMARK    1  A    between atoms: N_11  and  C_12 
REMARK    2  A    between atoms: C_12  and  C_13 
REMARK    3  A    between atoms: C_13  and  O_14 
REMARK    4  A    between atoms: C_13  and  C_15 
REMARK    5  A    between atoms: C_15  and  O_16 
REMARK    6  A    between atoms: O_16  and  C_17 
REMARK    7  A    between atoms: C_17  and  C_18 
ROOT
HETATM    1  C   UNL     1     -40.964 -50.609  11.766  1.00  0.00     0.160 C 
ENDROOT
BRANCH   1   2
HETATM    2  C   UNL     1     -41.542 -49.493  12.652  1.00  0.00     0.164 C 
BRANCH   2   3
HETATM    3  N   UNL     1     -42.185 -49.981  13.861  1.00  0.00    -0.332 N 
HETATM    4  C   UNL     1     -41.666 -49.914  15.139  1.00  0.00     0.080 A 
HETATM    5  C   UNL     1     -40.312 -49.403  15.468  1.00  0.00     0.089 C 
HETATM    6  N   UNL     1     -42.541 -50.352  16.022  1.00  0.00    -0.344 N 
HETATM    7  C   UNL     1     -43.654 -50.706  15.306  1.00  0.00     0.060 A 
ATOM      8  HN  UNL     1     -42.415 -50.413  17.033  1.00  0.00     0.167 HD
HETATM    9  C   UNL     1     -44.878 -51.217  15.763  1.00  0.00     0.032 A 
HETATM   10  C   UNL     1     -43.464 -50.487  13.945  1.00  0.00     0.062 A 
HETATM   11  C   UNL     1     -45.881 -51.502  14.831  1.00  0.00     0.002 A 
HETATM   12  C   UNL     1     -45.672 -51.279  13.469  1.00  0.00     0.002 A 
HETATM   13  C   UNL     1     -44.458 -50.765  12.996  1.00  0.00     0.032 A 
ENDBRANCH   2   3
ENDBRANCH   1   2
BRANCH   1  14
HETATM   14  O   UNL     1     -40.487 -50.106  10.515  1.00  0.00    -0.392 OA
HETATM   15  H   UNL     1     -40.404 -50.843   9.887  1.00  0.00     0.210 HD
ENDBRANCH   1  14
BRANCH   1  16
HETATM   16  C   UNL     1     -39.808 -51.327  12.479  1.00  0.00     0.201 C 
BRANCH  16  17
HETATM   17  O   UNL     1     -40.065 -52.727  12.490  1.00  0.00    -0.384 OA
BRANCH  17  18
HETATM   18  C   UNL     1     -41.441 -53.036  12.256  1.00  0.00     0.209 C 
BRANCH  18  19
HETATM   19  C   UNL     1     -42.055 -53.640  13.491  1.00  0.00     0.004 A 
HETATM   20  C   UNL     1     -41.384 -53.703  14.722  1.00  0.00     0.012 A 
HETATM   21  C   UNL     1     -41.991 -54.289  15.837  1.00  0.00     0.001 A 
HETATM   22  C   UNL     1     -43.277 -54.818  15.737  1.00  0.00     0.003 A 
HETATM   23  C   UNL     1     -43.959 -54.754  14.523  1.00  0.00     0.043 A 
HETATM   24  C   UNL     1     -43.347 -54.168  13.418  1.00  0.00     0.124 A 
HETATM   25  F   UNL     1     -44.019 -54.117  12.258  1.00  0.00    -0.205 F 
ENDBRANCH  18  19
ENDBRANCH  17  18
ENDBRANCH  16  17
ENDBRANCH   1  16
TORSDOF 7
ENDMDL
MODEL 4
REMARK VINA RESULT:      -6.0      1.585      2.136
REMARK  7 active torsions:
REMARK  status: ('A' for Active; 'I' for Inactive)
REMARK    1  A    between atoms: N_11  and  C_12 
REMARK    2  A    between atoms: C_12  and  C_13 
REMARK    3  A    between atoms: C_13  and  O_14 
REMARK    4  A    between atoms: C_13  and  C_15 
REMARK    5  A    between atoms: C_15  and  O_16 
REMARK    6  A    between atoms: O_16  and  C_17 
REMARK    7  A    between atoms: C_17  and  C_18 
ROOT
HETATM    1  C   UNL     1     -41.406 -52.160  11.877  1.00  0.00     0.160 C 
ENDROOT
BRANCH   1   2
HETATM    2  C   UNL     1     -40.735 -51.185  12.858  1.00  0.00     0.164 C 
BRANCH   2   3
HETATM    3  N   UNL     1     -40.382 -49.906  12.263  1.00  0.00    -0.332 N 
HETATM    4  C   UNL     1     -39.132 -49.543  11.804  1.00  0.00     0.080 A 
HETATM    5  C   UNL     1     -37.917 -50.385  11.928  1.00  0.00     0.089 C 
HETATM    6  N   UNL     1     -39.171 -48.356  11.231  1.00  0.00    -0.344 N 
HETATM    7  C   UNL     1     -40.473 -47.940  11.314  1.00  0.00     0.060 A 
ATOM      8  HN  UNL     1     -38.390 -47.852  10.811  1.00  0.00     0.167 HD
HETATM    9  C   UNL     1     -41.058 -46.755  10.846  1.00  0.00     0.032 A 
HETATM   10  C   UNL     1     -41.262 -48.890  11.958  1.00  0.00     0.062 A 
HETATM   11  C   UNL     1     -42.428 -46.552  11.045  1.00  0.00     0.002 A 
HETATM   12  C   UNL     1     -43.202 -47.514  11.696  1.00  0.00     0.002 A 
HETATM   13  C   UNL     1     -42.635 -48.705  12.166  1.00  0.00     0.032 A 
ENDBRANCH   2   3
ENDBRANCH   1   2
BRANCH   1  14
HETATM   14  O   UNL     1     -40.531 -53.227  11.499  1.00  0.00    -0.392 OA
HETATM   15  H   UNL     1     -40.855 -54.056  11.886  1.00  0.00     0.210 HD
ENDBRANCH   1  14
BRANCH   1  16
HETATM   16  C   UNL     1     -42.678 -52.763  12.493  1.00  0.00     0.201 C 
BRANCH  16  17
HETATM   17  O   UNL     1     -43.186 -51.873  13.480  1.00  0.00    -0.384 OA
BRANCH  17  18
HETATM   18  C   UNL     1     -44.559 -51.539  13.266  1.00  0.00     0.209 C 
BRANCH  18  19
HETATM   19  C   UNL     1     -45.233 -51.243  14.580  1.00  0.00     0.004 A 
HETATM   20  C   UNL     1     -44.578 -50.605  15.644  1.00  0.00     0.012 A 
HETATM   21  C   UNL     1     -45.241 -50.366  16.851  1.00  0.00     0.001 A 
HETATM   22  C   UNL     1     -46.570 -50.760  17.009  1.00  0.00     0.003 A 
HETATM   23  C   UNL     1     -47.236 -51.385  15.957  1.00  0.00     0.043 A 
HETATM   24  C   UNL     1     -46.567 -51.619  14.759  1.00  0.00     0.124 A 
HETATM   25  F   UNL     1     -47.225 -52.224  13.758  1.00  0.00    -0.205 F 
ENDBRANCH  18  19
ENDBRANCH  17  18
ENDBRANCH  16  17
ENDBRANCH   1  16
TORSDOF 7
ENDMDL
MODEL 5
REMARK VINA RESULT:      -5.7      2.962      4.435
REMARK  7 active torsions:
REMARK  status: ('A' for Active; 'I' for Inactive)
REMARK    1  A    between atoms: N_11  and  C_12 
REMARK    2  A    between atoms: C_12  and  C_13 
REMARK    3  A    between atoms: C_13  and  O_14 
REMARK    4  A    between atoms: C_13  and  C_15 
REMARK    5  A    between atoms: C_15  and  O_16 
REMARK    6  A    between atoms: O_16  and  C_17 
REMARK    7  A    between atoms: C_17  and  C_18 
ROOT
HETATM    1  C   UNL     1     -40.662 -51.918  15.819  1.00  0.00     0.160 C 
ENDROOT
BRANCH   1   2
HETATM    2  C   UNL     1     -40.397 -52.659  14.498  1.00  0.00     0.164 C 
BRANCH   2   3
HETATM    3  N   UNL     1     -41.566 -52.762  13.639  1.00  0.00    -0.332 N 
HETATM    4  C   UNL     1     -41.723 -52.160  12.407  1.00  0.00     0.080 A 
HETATM    5  C   UNL     1     -40.741 -51.229  11.799  1.00  0.00     0.089 C 
HETATM    6  N   UNL     1     -42.854 -52.535  11.844  1.00  0.00    -0.344 N 
HETATM    7  C   UNL     1     -43.443 -53.404  12.725  1.00  0.00     0.060 A 
ATOM      8  HN  UNL     1     -43.216 -52.240  10.938  1.00  0.00     0.167 HD
HETATM    9  C   UNL     1     -44.653 -54.102  12.607  1.00  0.00     0.032 A 
HETATM   10  C   UNL     1     -42.660 -53.568  13.865  1.00  0.00     0.062 A 
HETATM   11  C   UNL     1     -45.050 -54.948  13.649  1.00  0.00     0.002 A 
HETATM   12  C   UNL     1     -44.254 -55.098  14.786  1.00  0.00     0.002 A 
HETATM   13  C   UNL     1     -43.041 -54.412  14.918  1.00  0.00     0.032 A 
ENDBRANCH   2   3
ENDBRANCH   1   2
BRANCH   1  14
HETATM   14  O   UNL     1     -39.566 -52.035  16.729  1.00  0.00    -0.392 OA
HETATM   15  H   UNL     1     -39.819 -52.627  17.457  1.00  0.00     0.210 HD
ENDBRANCH   1  14
BRANCH   1  16
HETATM   16  C   UNL     1     -40.930 -50.426  15.563  1.00  0.00     0.201 C 
BRANCH  16  17
HETATM   17  O   UNL     1     -42.335 -50.210  15.495  1.00  0.00    -0.384 OA
BRANCH  17  18
HETATM   18  C   UNL     1     -43.048 -50.892  16.529  1.00  0.00     0.209 C 
BRANCH  18  19
HETATM   19  C   UNL     1     -44.418 -51.287  16.044  1.00  0.00     0.004 A 
HETATM   20  C   UNL     1     -44.936 -50.872  14.807  1.00  0.00     0.012 A 
HETATM   21  C   UNL     1     -46.220 -51.251  14.408  1.00  0.00     0.001 A 
HETATM   22  C   UNL     1     -47.003 -52.052  15.237  1.00  0.00     0.003 A 
HETATM   23  C   UNL     1     -46.498 -52.480  16.463  1.00  0.00     0.043 A 
HETATM   24  C   UNL     1     -45.217 -52.098  16.853  1.00  0.00     0.124 A 
HETATM   25  F   UNL     1     -44.749 -52.519  18.038  1.00  0.00    -0.205 F 
ENDBRANCH  18  19
ENDBRANCH  17  18
ENDBRANCH  16  17
ENDBRANCH   1  16
TORSDOF 7
ENDMDL
MODEL 6
REMARK VINA RESULT:      -5.6      2.730      4.442
REMARK  7 active torsions:
REMARK  status: ('A' for Active; 'I' for Inactive)
REMARK    1  A    between atoms: N_11  and  C_12 
REMARK    2  A    between atoms: C_12  and  C_13 
REMARK    3  A    between atoms: C_13  and  O_14 
REMARK    4  A    between atoms: C_13  and  C_15 
REMARK    5  A    between atoms: C_15  and  O_16 
REMARK    6  A    between atoms: O_16  and  C_17 
REMARK    7  A    between atoms: C_17  and  C_18 
ROOT
HETATM    1  C   UNL     1     -41.839 -49.075  11.785  1.00  0.00     0.160 C 
ENDROOT
BRANCH   1   2
HETATM    2  C   UNL     1     -41.697 -48.393  10.414  1.00  0.00     0.164 C 
BRANCH   2   3
HETATM    3  N   UNL     1     -42.065 -46.987  10.418  1.00  0.00    -0.332 N 
HETATM    4  C   UNL     1     -43.291 -46.469  10.049  1.00  0.00     0.080 A 
HETATM    5  C   UNL     1     -44.411 -47.275   9.502  1.00  0.00     0.089 C 
HETATM    6  N   UNL     1     -43.332 -45.169  10.263  1.00  0.00    -0.344 N 
HETATM    7  C   UNL     1     -42.111 -44.834  10.785  1.00  0.00     0.060 A 
ATOM      8  HN  UNL     1     -44.114 -44.541  10.077  1.00  0.00     0.167 HD
HETATM    9  C   UNL     1     -41.637 -43.582  11.202  1.00  0.00     0.032 A 
HETATM   10  C   UNL     1     -41.290 -45.953  10.896  1.00  0.00     0.062 A 
HETATM   11  C   UNL     1     -40.339 -43.487  11.715  1.00  0.00     0.002 A 
HETATM   12  C   UNL     1     -39.528 -44.619  11.814  1.00  0.00     0.002 A 
HETATM   13  C   UNL     1     -39.987 -45.878  11.407  1.00  0.00     0.032 A 
ENDBRANCH   2   3
ENDBRANCH   1   2
BRANCH   1  14
HETATM   14  O   UNL     1     -43.202 -49.382  12.092  1.00  0.00    -0.392 OA
HETATM   15  H   UNL     1     -43.363 -49.206  13.034  1.00  0.00     0.210 HD
ENDBRANCH   1  14
BRANCH   1  16
HETATM   16  C   UNL     1     -41.020 -50.374  11.835  1.00  0.00     0.201 C 
BRANCH  16  17
HETATM   17  O   UNL     1     -41.659 -51.294  12.713  1.00  0.00    -0.384 OA
BRANCH  17  18
HETATM   18  C   UNL     1     -41.669 -52.628  12.200  1.00  0.00     0.209 C 
BRANCH  18  19
HETATM   19  C   UNL     1     -42.484 -53.524  13.095  1.00  0.00     0.004 A 
HETATM   20  C   UNL     1     -41.938 -54.199  14.197  1.00  0.00     0.012 A 
HETATM   21  C   UNL     1     -42.733 -55.033  14.989  1.00  0.00     0.001 A 
HETATM   22  C   UNL     1     -44.085 -55.201  14.691  1.00  0.00     0.003 A 
HETATM   23  C   UNL     1     -44.643 -54.528  13.606  1.00  0.00     0.043 A 
HETATM   24  C   UNL     1     -43.843 -53.700  12.822  1.00  0.00     0.124 A 
HETATM   25  F   UNL     1     -44.399 -53.063  11.781  1.00  0.00    -0.205 F 
ENDBRANCH  18  19
ENDBRANCH  17  18
ENDBRANCH  16  17
ENDBRANCH   1  16
TORSDOF 7
ENDMDL
MODEL 7
REMARK VINA RESULT:      -5.5      2.473      3.514
REMARK  7 active torsions:
REMARK  status: ('A' for Active; 'I' for Inactive)
REMARK    1  A    between atoms: N_11  and  C_12 
REMARK    2  A    between atoms: C_12  and  C_13 
REMARK    3  A    between atoms: C_13  and  O_14 
REMARK    4  A    between atoms: C_13  and  C_15 
REMARK    5  A    between atoms: C_15  and  O_16 
REMARK    6  A    between atoms: O_16  and  C_17 
REMARK    7  A    between atoms: C_17  and  C_18 
ROOT
HETATM    1  C   UNL     1     -40.653 -53.347  13.040  1.00  0.00     0.160 C 
ENDROOT
BRANCH   1   2
HETATM    2  C   UNL     1     -39.310 -53.500  13.772  1.00  0.00     0.164 C 
BRANCH   2   3
HETATM    3  N   UNL     1     -38.952 -52.350  14.586  1.00  0.00    -0.332 N 
HETATM    4  C   UNL     1     -38.887 -52.321  15.965  1.00  0.00     0.080 A 
HETATM    5  C   UNL     1     -39.261 -53.455  16.845  1.00  0.00     0.089 C 
HETATM    6  N   UNL     1     -38.434 -51.157  16.387  1.00  0.00    -0.344 N 
HETATM    7  C   UNL     1     -38.197 -50.414  15.261  1.00  0.00     0.060 A 
ATOM      8  HN  UNL     1     -38.291 -50.869  17.355  1.00  0.00     0.167 HD
HETATM    9  C   UNL     1     -37.695 -49.109  15.148  1.00  0.00     0.032 A 
HETATM   10  C   UNL     1     -38.512 -51.133  14.111  1.00  0.00     0.062 A 
HETATM   11  C   UNL     1     -37.531 -48.557  13.873  1.00  0.00     0.002 A 
HETATM   12  C   UNL     1     -37.856 -49.291  12.732  1.00  0.00     0.002 A 
HETATM   13  C   UNL     1     -38.353 -50.597  12.826  1.00  0.00     0.032 A 
ENDBRANCH   2   3
ENDBRANCH   1   2
BRANCH   1  14
HETATM   14  O   UNL     1     -40.538 -53.633  11.644  1.00  0.00    -0.392 OA
HETATM   15  H   UNL     1     -39.667 -53.341  11.329  1.00  0.00     0.210 HD
ENDBRANCH   1  14
BRANCH   1  16
HETATM   16  C   UNL     1     -41.714 -54.278  13.647  1.00  0.00     0.201 C 
BRANCH  16  17
HETATM   17  O   UNL     1     -42.395 -53.591  14.690  1.00  0.00    -0.384 OA
BRANCH  17  18
HETATM   18  C   UNL     1     -42.639 -52.218  14.378  1.00  0.00     0.209 C 
BRANCH  18  19
HETATM   19  C   UNL     1     -44.112 -51.918  14.469  1.00  0.00     0.004 A 
HETATM   20  C   UNL     1     -44.710 -51.384  15.621  1.00  0.00     0.012 A 
HETATM   21  C   UNL     1     -46.085 -51.137  15.663  1.00  0.00     0.001 A 
HETATM   22  C   UNL     1     -46.881 -51.418  14.552  1.00  0.00     0.003 A 
HETATM   23  C   UNL     1     -46.299 -51.938  13.398  1.00  0.00     0.043 A 
HETATM   24  C   UNL     1     -44.929 -52.181  13.366  1.00  0.00     0.124 A 
HETATM   25  F   UNL     1     -44.387 -52.684  12.246  1.00  0.00    -0.205 F 
ENDBRANCH  18  19
ENDBRANCH  17  18
ENDBRANCH  16  17
ENDBRANCH   1  16
TORSDOF 7
ENDMDL
MODEL 8
REMARK VINA RESULT:      -5.3      2.947      5.308
REMARK  7 active torsions:
REMARK  status: ('A' for Active; 'I' for Inactive)
REMARK    1  A    between atoms: N_11  and  C_12 
REMARK    2  A    between atoms: C_12  and  C_13 
REMARK    3  A    between atoms: C_13  and  O_14 
REMARK    4  A    between atoms: C_13  and  C_15 
REMARK    5  A    between atoms: C_15  and  O_16 
REMARK    6  A    between atoms: O_16  and  C_17 
REMARK    7  A    between atoms: C_17  and  C_18 
ROOT
HETATM    1  C   UNL     1     -45.064 -52.921  16.727  1.00  0.00     0.160 C 
ENDROOT
BRANCH   1   2
HETATM    2  C   UNL     1     -45.295 -51.546  16.080  1.00  0.00     0.164 C 
BRANCH   2   3
HETATM    3  N   UNL     1     -44.546 -51.343  14.851  1.00  0.00    -0.332 N 
HETATM    4  C   UNL     1     -45.075 -51.297  13.576  1.00  0.00     0.080 A 
HETATM    5  C   UNL     1     -46.504 -51.535  13.254  1.00  0.00     0.089 C 
HETATM    6  N   UNL     1     -44.143 -50.999  12.693  1.00  0.00    -0.344 N 
HETATM    7  C   UNL     1     -42.984 -50.844  13.407  1.00  0.00     0.060 A 
ATOM      8  HN  UNL     1     -44.262 -50.903  11.685  1.00  0.00     0.167 HD
HETATM    9  C   UNL     1     -41.700 -50.510  12.953  1.00  0.00     0.032 A 
HETATM   10  C   UNL     1     -43.201 -51.055  14.766  1.00  0.00     0.062 A 
HETATM   11  C   UNL     1     -40.661 -50.402  13.882  1.00  0.00     0.002 A 
HETATM   12  C   UNL     1     -40.896 -50.621  15.241  1.00  0.00     0.002 A 
HETATM   13  C   UNL     1     -42.173 -50.950  15.712  1.00  0.00     0.032 A 
ENDBRANCH   2   3
ENDBRANCH   1   2
BRANCH   1  14
HETATM   14  O   UNL     1     -45.682 -53.019  18.013  1.00  0.00    -0.392 OA
HETATM   15  H   UNL     1     -46.002 -52.142  18.280  1.00  0.00     0.210 HD
ENDBRANCH   1  14
BRANCH   1  16
HETATM   16  C   UNL     1     -45.610 -54.044  15.832  1.00  0.00     0.201 C 
BRANCH  16  17
HETATM   17  O   UNL     1     -44.522 -54.714  15.207  1.00  0.00    -0.384 OA
BRANCH  17  18
HETATM   18  C   UNL     1     -43.352 -54.747  16.028  1.00  0.00     0.209 C 
BRANCH  18  19
HETATM   19  C   UNL     1     -42.122 -54.513  15.191  1.00  0.00     0.004 A 
HETATM   20  C   UNL     1     -42.168 -54.365  13.796  1.00  0.00     0.012 A 
HETATM   21  C   UNL     1     -40.997 -54.165  13.060  1.00  0.00     0.001 A 
HETATM   22  C   UNL     1     -39.764 -54.107  13.709  1.00  0.00     0.003 A 
HETATM   23  C   UNL     1     -39.705 -54.242  15.094  1.00  0.00     0.043 A 
HETATM   24  C   UNL     1     -40.876 -54.441  15.819  1.00  0.00     0.124 A 
HETATM   25  F   UNL     1     -40.798 -54.570  17.152  1.00  0.00    -0.205 F 
ENDBRANCH  18  19
ENDBRANCH  17  18
ENDBRANCH  16  17
ENDBRANCH   1  16
TORSDOF 7
ENDMDL
MODEL 9
REMARK VINA RESULT:      -5.3      2.542      3.604
REMARK  7 active torsions:
REMARK  status: ('A' for Active; 'I' for Inactive)
REMARK    1  A    between atoms: N_11  and  C_12 
REMARK    2  A    between atoms: C_12  and  C_13 
REMARK    3  A    between atoms: C_13  and  O_14 
REMARK    4  A    between atoms: C_13  and  C_15 
REMARK    5  A    between atoms: C_15  and  O_16 
REMARK    6  A    between atoms: O_16  and  C_17 
REMARK    7  A    between atoms: C_17  and  C_18 
ROOT
HETATM    1  C   UNL     1     -41.357 -52.858  12.468  1.00  0.00     0.160 C 
ENDROOT
BRANCH   1   2
HETATM    2  C   UNL     1     -40.434 -52.050  13.394  1.00  0.00     0.164 C 
BRANCH   2   3
HETATM    3  N   UNL     1     -40.923 -51.940  14.759  1.00  0.00    -0.332 N 
HETATM    4  C   UNL     1     -40.440 -52.632  15.851  1.00  0.00     0.080 A 
HETATM    5  C   UNL     1     -39.385 -53.673  15.784  1.00  0.00     0.089 C 
HETATM    6  N   UNL     1     -41.032 -52.230  16.958  1.00  0.00    -0.344 N 
HETATM    7  C   UNL     1     -41.916 -51.255  16.580  1.00  0.00     0.060 A 
ATOM      8  HN  UNL     1     -40.866 -52.576  17.903  1.00  0.00     0.167 HD
HETATM    9  C   UNL     1     -42.786 -50.489  17.370  1.00  0.00     0.032 A 
HETATM   10  C   UNL     1     -41.874 -51.048  15.203  1.00  0.00     0.062 A 
HETATM   11  C   UNL     1     -43.600 -49.536  16.751  1.00  0.00     0.002 A 
HETATM   12  C   UNL     1     -43.548 -49.345  15.369  1.00  0.00     0.002 A 
HETATM   13  C   UNL     1     -42.682 -50.097  14.565  1.00  0.00     0.032 A 
ENDBRANCH   2   3
ENDBRANCH   1   2
BRANCH   1  14
HETATM   14  O   UNL     1     -40.658 -53.374  11.331  1.00  0.00    -0.392 OA
HETATM   15  H   UNL     1     -40.807 -54.332  11.274  1.00  0.00     0.210 HD
ENDBRANCH   1  14
BRANCH   1  16
HETATM   16  C   UNL     1     -41.997 -54.032  13.225  1.00  0.00     0.201 C 
BRANCH  16  17
HETATM   17  O   UNL     1     -43.359 -54.153  12.833  1.00  0.00    -0.384 OA
BRANCH  17  18
HETATM   18  C   UNL     1     -43.990 -52.886  12.637  1.00  0.00     0.209 C 
BRANCH  18  19
HETATM   19  C   UNL     1     -44.911 -52.578  13.788  1.00  0.00     0.004 A 
HETATM   20  C   UNL     1     -44.775 -53.176  15.051  1.00  0.00     0.012 A 
HETATM   21  C   UNL     1     -45.665 -52.871  16.084  1.00  0.00     0.001 A 
HETATM   22  C   UNL     1     -46.701 -51.961  15.871  1.00  0.00     0.003 A 
HETATM   23  C   UNL     1     -46.841 -51.352  14.625  1.00  0.00     0.043 A 
HETATM   24  C   UNL     1     -45.950 -51.663  13.602  1.00  0.00     0.124 A 
HETATM   25  F   UNL     1     -46.102 -51.067  12.409  1.00  0.00    -0.205 F 
ENDBRANCH  18  19
ENDBRANCH  17  18
ENDBRANCH  16  17
ENDBRANCH   1  16
TORSDOF 7
ENDMDL
