MODEL 1
REMARK VINA RESULT:      -6.8      0.000      0.000
REMARK  6 active torsions:
REMARK  status: ('A' for Active; 'I' for Inactive)
REMARK    1  A    between atoms: C_2  and  N_3 
REMARK    2  A    between atoms: N_4  and  C_14 
REMARK    3  A    between atoms: C_11  and  C_14 
REMARK    4  A    between atoms: C_11  and  O_25 
REMARK    5  A    between atoms: C_15  and  C_27 
REMARK    6  A    between atoms: C_27  and  O_28 
ROOT
HETATM    1  C   UNL     1     -41.418 -51.201  13.382  1.00  0.00     0.117 A 
HETATM    2  C   UNL     1     -40.839 -49.904  13.432  1.00  0.00     0.115 A 
HETATM    3  N   UNL     1     -43.048 -52.610  12.932  1.00  0.00    -0.324 N 
HETATM    4  C   UNL     1     -42.721 -51.282  12.909  1.00  0.00     0.140 A 
HETATM    5  N   UNL     1     -40.982 -52.468  13.741  1.00  0.00    -0.346 N 
ATOM      6  HN  UNL     1     -40.086 -52.715  14.162  1.00  0.00     0.167 HD
HETATM    7  C   UNL     1     -41.967 -53.284  13.426  1.00  0.00     0.185 A 
HETATM    8  N   UNL     1     -41.611 -48.877  12.953  1.00  0.00    -0.341 N 
ATOM      9  HN  UNL     1     -41.232 -47.931  12.915  1.00  0.00     0.167 HD
HETATM   10  N   UNL     1     -43.517 -50.285  12.500  1.00  0.00    -0.336 N 
ATOM     11  HN  UNL     1     -44.485 -50.402  12.204  1.00  0.00     0.168 HD
HETATM   12  C   UNL     1     -42.867 -49.113  12.534  1.00  0.00     0.183 A 
ENDROOT
BRANCH   2  13
HETATM   13  N   UNL     1     -39.588 -49.567  13.968  1.00  0.00    -0.258 NA
HETATM   14  C   UNL     1     -38.947 -48.303  13.565  1.00  0.00     0.065 C 
HETATM   15  C   UNL     1     -38.545 -48.561  12.091  1.00  0.00     0.028 C 
HETATM   16  C   UNL     1     -37.649 -48.373  14.409  1.00  0.00     0.022 C 
HETATM   17  C   UNL     1     -38.329 -50.096  12.068  1.00  0.00     0.029 C 
HETATM   18  C   UNL     1     -38.482 -50.468  13.567  1.00  0.00     0.071 C 
HETATM   19  C   UNL     1     -37.331 -49.879  14.409  1.00  0.00     0.022 C 
BRANCH  17  20
HETATM   20  C   UNL     1     -37.061 -50.550  11.367  1.00  0.00     0.170 C 
BRANCH  20  21
HETATM   21  O   UNL     1     -37.115 -50.162   9.997  1.00  0.00    -0.400 OA
HETATM   22  H   UNL     1     -36.225 -49.865   9.734  1.00  0.00     0.209 HD
ENDBRANCH  20  21
ENDBRANCH  17  20
ENDBRANCH   2  13
BRANCH   3  23
HETATM   23  C   UNL     1     -44.243 -53.175  12.334  1.00  0.00     0.172 C 
BRANCH  23  24
HETATM   24  C   UNL     1     -45.465 -53.354  13.258  1.00  0.00     0.102 C 
HETATM   25  C   UNL     1     -45.356 -52.640  14.623  1.00  0.00     0.153 C 
HETATM   26  O   UNL     1     -45.995 -53.491  15.606  1.00  0.00    -0.383 OA
HETATM   27  C   UNL     1     -46.008 -51.272  14.707  1.00  0.00     0.042 C 
HETATM   28  C   UNL     1     -46.430 -54.687  14.951  1.00  0.00     0.171 C 
HETATM   29  C   UNL     1     -45.571 -54.806  13.712  1.00  0.00     0.068 C 
BRANCH  24  30
HETATM   30  O   UNL     1     -46.700 -53.067  12.591  1.00  0.00    -0.385 OA
HETATM   31  H   UNL     1     -47.440 -53.105  13.225  1.00  0.00     0.210 HD
ENDBRANCH  24  30
ENDBRANCH  23  24
ENDBRANCH   3  23
TORSDOF 6
ENDMDL
MODEL 2
REMARK VINA RESULT:      -6.7      3.675      7.001
REMARK  6 active torsions:
REMARK  status: ('A' for Active; 'I' for Inactive)
REMARK    1  A    between atoms: C_2  and  N_3 
REMARK    2  A    between atoms: N_4  and  C_14 
REMARK    3  A    between atoms: C_11  and  C_14 
REMARK    4  A    between atoms: C_11  and  O_25 
REMARK    5  A    between atoms: C_15  and  C_27 
REMARK    6  A    between atoms: C_27  and  O_28 
ROOT
HETATM    1  C   UNL     1     -41.795 -49.529  11.757  1.00  0.00     0.117 A 
HETATM    2  C   UNL     1     -41.160 -50.780  11.985  1.00  0.00     0.115 A 
HETATM    3  N   UNL     1     -41.797 -47.396  11.216  1.00  0.00    -0.324 N 
HETATM    4  C   UNL     1     -40.971 -48.470  11.401  1.00  0.00     0.140 A 
HETATM    5  N   UNL     1     -43.105 -49.082  11.842  1.00  0.00    -0.346 N 
ATOM      6  HN  UNL     1     -43.923 -49.620  12.126  1.00  0.00     0.167 HD
HETATM    7  C   UNL     1     -43.071 -47.815  11.478  1.00  0.00     0.185 A 
HETATM    8  N   UNL     1     -39.806 -50.820  11.773  1.00  0.00    -0.341 N 
ATOM      9  HN  UNL     1     -39.302 -51.702  11.870  1.00  0.00     0.167 HD
HETATM   10  N   UNL     1     -39.639 -48.470  11.254  1.00  0.00    -0.336 N 
ATOM     11  HN  UNL     1     -39.082 -47.646  11.033  1.00  0.00     0.168 HD
HETATM   12  C   UNL     1     -39.140 -49.701  11.437  1.00  0.00     0.183 A 
ENDROOT
BRANCH   2  13
HETATM   13  N   UNL     1     -41.769 -51.953  12.454  1.00  0.00    -0.258 NA
HETATM   14  C   UNL     1     -42.311 -51.987  13.824  1.00  0.00     0.065 C 
HETATM   15  C   UNL     1     -41.041 -51.973  14.711  1.00  0.00     0.028 C 
HETATM   16  C   UNL     1     -42.873 -53.431  13.859  1.00  0.00     0.022 C 
HETATM   17  C   UNL     1     -39.990 -52.660  13.800  1.00  0.00     0.029 C 
HETATM   18  C   UNL     1     -40.853 -53.111  12.591  1.00  0.00     0.071 C 
HETATM   19  C   UNL     1     -41.859 -54.207  13.001  1.00  0.00     0.022 C 
BRANCH  17  20
HETATM   20  C   UNL     1     -39.151 -53.722  14.486  1.00  0.00     0.170 C 
BRANCH  20  21
HETATM   21  O   UNL     1     -38.512 -54.529  13.501  1.00  0.00    -0.400 OA
HETATM   22  H   UNL     1     -37.592 -54.679  13.785  1.00  0.00     0.209 HD
ENDBRANCH  20  21
ENDBRANCH  17  20
ENDBRANCH   2  13
BRANCH   3  23
HETATM   23  C   UNL     1     -41.386 -46.129  10.640  1.00  0.00     0.172 C 
BRANCH  23  24
HETATM   24  C   UNL     1     -40.996 -45.011  11.628  1.00  0.00     0.102 C 
HETATM   25  C   UNL     1     -42.185 -44.221  12.217  1.00  0.00     0.153 C 
HETATM   26  O   UNL     1     -41.763 -42.843  12.353  1.00  0.00    -0.383 OA
HETATM   27  C   UNL     1     -42.677 -44.686  13.576  1.00  0.00     0.042 C 
HETATM   28  C   UNL     1     -40.433 -42.727  11.839  1.00  0.00     0.171 C 
HETATM   29  C   UNL     1     -40.261 -43.894  10.893  1.00  0.00     0.068 C 
BRANCH  24  30
HETATM   30  O   UNL     1     -40.091 -45.467  12.640  1.00  0.00    -0.385 OA
HETATM   31  H   UNL     1     -40.555 -46.050  13.269  1.00  0.00     0.210 HD
ENDBRANCH  24  30
ENDBRANCH  23  24
ENDBRANCH   3  23
TORSDOF 6
ENDMDL
MODEL 3
REMARK VINA RESULT:      -6.6      2.030      3.144
REMARK  6 active torsions:
REMARK  status: ('A' for Active; 'I' for Inactive)
REMARK    1  A    between atoms: C_2  and  N_3 
REMARK    2  A    between atoms: N_4  and  C_14 
REMARK    3  A    between atoms: C_11  and  C_14 
REMARK    4  A    between atoms: C_11  and  O_25 
REMARK    5  A    between atoms: C_15  and  C_27 
REMARK    6  A    between atoms: C_27  and  O_28 
ROOT
HETATM    1  C   UNL     1     -41.777 -53.005  12.978  1.00  0.00     0.117 A 
HETATM    2  C   UNL     1     -40.447 -52.780  13.425  1.00  0.00     0.115 A 
HETATM    3  N   UNL     1     -43.756 -53.959  13.104  1.00  0.00    -0.324 N 
HETATM    4  C   UNL     1     -42.525 -53.928  13.697  1.00  0.00     0.140 A 
HETATM    5  N   UNL     1     -42.535 -52.525  11.922  1.00  0.00    -0.346 N 
ATOM      6  HN  UNL     1     -42.239 -51.872  11.197  1.00  0.00     0.167 HD
HETATM    7  C   UNL     1     -43.720 -53.089  12.050  1.00  0.00     0.185 A 
HETATM    8  N   UNL     1     -40.063 -53.455  14.554  1.00  0.00    -0.341 N 
ATOM      9  HN  UNL     1     -39.138 -53.296  14.953  1.00  0.00     0.167 HD
HETATM   10  N   UNL     1     -42.149 -54.649  14.762  1.00  0.00    -0.336 N 
ATOM     11  HN  UNL     1     -42.732 -55.347  15.223  1.00  0.00     0.168 HD
HETATM   12  C   UNL     1     -40.903 -54.329  15.138  1.00  0.00     0.183 A 
ENDROOT
BRANCH   2  13
HETATM   13  N   UNL     1     -39.478 -51.981  12.798  1.00  0.00    -0.258 NA
HETATM   14  C   UNL     1     -38.297 -51.545  13.563  1.00  0.00     0.065 C 
HETATM   15  C   UNL     1     -38.881 -50.519  14.566  1.00  0.00     0.028 C 
HETATM   16  C   UNL     1     -37.547 -50.740  12.472  1.00  0.00     0.022 C 
HETATM   17  C   UNL     1     -40.107 -49.961  13.796  1.00  0.00     0.029 C 
HETATM   18  C   UNL     1     -39.950 -50.633  12.406  1.00  0.00     0.071 C 
HETATM   19  C   UNL     1     -38.699 -50.109  11.670  1.00  0.00     0.022 C 
BRANCH  17  20
HETATM   20  C   UNL     1     -40.242 -48.449  13.825  1.00  0.00     0.170 C 
BRANCH  20  21
HETATM   21  O   UNL     1     -39.076 -47.882  14.414  1.00  0.00    -0.400 OA
HETATM   22  H   UNL     1     -38.422 -47.737  13.706  1.00  0.00     0.209 HD
ENDBRANCH  20  21
ENDBRANCH  17  20
ENDBRANCH   2  13
BRANCH   3  23
HETATM   23  C   UNL     1     -44.919 -54.634  13.650  1.00  0.00     0.172 C 
BRANCH  23  24
HETATM   24  C   UNL     1     -45.832 -53.807  14.577  1.00  0.00     0.102 C 
HETATM   25  C   UNL     1     -45.604 -52.281  14.518  1.00  0.00     0.153 C 
HETATM   26  O   UNL     1     -45.792 -51.765  15.859  1.00  0.00    -0.383 OA
HETATM   27  C   UNL     1     -46.531 -51.509  13.596  1.00  0.00     0.042 C 
HETATM   28  C   UNL     1     -46.059 -52.867  16.732  1.00  0.00     0.171 C 
HETATM   29  C   UNL     1     -45.486 -54.083  16.037  1.00  0.00     0.068 C 
BRANCH  24  30
HETATM   30  O   UNL     1     -47.214 -54.156  14.435  1.00  0.00    -0.385 OA
HETATM   31  H   UNL     1     -47.761 -53.612  15.032  1.00  0.00     0.210 HD
ENDBRANCH  24  30
ENDBRANCH  23  24
ENDBRANCH   3  23
TORSDOF 6
ENDMDL
MODEL 4
REMARK VINA RESULT:      -6.6      2.620      7.158
REMARK  6 active torsions:
REMARK  status: ('A' for Active; 'I' for Inactive)
REMARK    1  A    between atoms: C_2  and  N_3 
REMARK    2  A    between atoms: N_4  and  C_14 
REMARK    3  A    between atoms: C_11  and  C_14 
REMARK    4  A    between atoms: C_11  and  O_25 
REMARK    5  A    between atoms: C_15  and  C_27 
REMARK    6  A    between atoms: C_27  and  O_28 
ROOT
HETATM    1  C   UNL     1     -42.251 -50.310  13.807  1.00  0.00     0.117 A 
HETATM    2  C   UNL     1     -42.181 -51.719  13.638  1.00  0.00     0.115 A 
HETATM    3  N   UNL     1     -41.565 -48.251  13.442  1.00  0.00    -0.324 N 
HETATM    4  C   UNL     1     -41.283 -49.557  13.154  1.00  0.00     0.140 A 
HETATM    5  N   UNL     1     -43.077 -49.463  14.531  1.00  0.00    -0.346 N 
ATOM      6  HN  UNL     1     -43.847 -49.730  15.144  1.00  0.00     0.167 HD
HETATM    7  C   UNL     1     -42.659 -48.243  14.260  1.00  0.00     0.185 A 
HETATM    8  N   UNL     1     -41.198 -52.182  12.801  1.00  0.00    -0.341 N 
ATOM      9  HN  UNL     1     -41.130 -53.179  12.600  1.00  0.00     0.167 HD
HETATM   10  N   UNL     1     -40.275 -49.992  12.386  1.00  0.00    -0.336 N 
ATOM     11  HN  UNL     1     -39.566 -49.391  11.967  1.00  0.00     0.168 HD
HETATM   12  C   UNL     1     -40.324 -51.324  12.245  1.00  0.00     0.183 A 
ENDROOT
BRANCH   2  13
HETATM   13  N   UNL     1     -42.977 -52.678  14.281  1.00  0.00    -0.258 NA
HETATM   14  C   UNL     1     -43.223 -53.972  13.619  1.00  0.00     0.065 C 
HETATM   15  C   UNL     1     -44.155 -53.598  12.440  1.00  0.00     0.028 C 
HETATM   16  C   UNL     1     -44.101 -54.664  14.692  1.00  0.00     0.022 C 
HETATM   17  C   UNL     1     -44.896 -52.349  12.984  1.00  0.00     0.029 C 
HETATM   18  C   UNL     1     -44.396 -52.288  14.452  1.00  0.00     0.071 C 
HETATM   19  C   UNL     1     -44.913 -53.491  15.268  1.00  0.00     0.022 C 
BRANCH  17  20
HETATM   20  C   UNL     1     -46.398 -52.353  12.763  1.00  0.00     0.170 C 
BRANCH  20  21
HETATM   21  O   UNL     1     -46.669 -52.450  11.367  1.00  0.00    -0.400 OA
HETATM   22  H   UNL     1     -46.947 -51.571  11.053  1.00  0.00     0.209 HD
ENDBRANCH  20  21
ENDBRANCH  17  20
ENDBRANCH   2  13
BRANCH   3  23
HETATM   23  C   UNL     1     -40.932 -47.111  12.805  1.00  0.00     0.172 C 
BRANCH  23  24
HETATM   24  C   UNL     1     -41.330 -46.822  11.343  1.00  0.00     0.102 C 
HETATM   25  C   UNL     1     -41.105 -45.364  10.885  1.00  0.00     0.153 C 
HETATM   26  O   UNL     1     -42.191 -45.021   9.990  1.00  0.00    -0.383 OA
HETATM   27  C   UNL     1     -39.804 -45.096  10.152  1.00  0.00     0.042 C 
HETATM   28  C   UNL     1     -43.083 -46.138   9.916  1.00  0.00     0.171 C 
HETATM   29  C   UNL     1     -42.843 -46.933  11.180  1.00  0.00     0.068 C 
BRANCH  24  30
HETATM   30  O   UNL     1     -40.773 -47.772  10.427  1.00  0.00    -0.385 OA
HETATM   31  H   UNL     1     -39.954 -48.152  10.795  1.00  0.00     0.210 HD
ENDBRANCH  24  30
ENDBRANCH  23  24
ENDBRANCH   3  23
TORSDOF 6
ENDMDL
MODEL 5
REMARK VINA RESULT:      -6.6      3.267      5.096
REMARK  6 active torsions:
REMARK  status: ('A' for Active; 'I' for Inactive)
REMARK    1  A    between atoms: C_2  and  N_3 
REMARK    2  A    between atoms: N_4  and  C_14 
REMARK    3  A    between atoms: C_11  and  C_14 
REMARK    4  A    between atoms: C_11  and  O_25 
REMARK    5  A    between atoms: C_15  and  C_27 
REMARK    6  A    between atoms: C_27  and  O_28 
ROOT
HETATM    1  C   UNL     1     -39.377 -48.287  12.593  1.00  0.00     0.117 A 
HETATM    2  C   UNL     1     -39.812 -46.986  12.966  1.00  0.00     0.115 A 
HETATM    3  N   UNL     1     -38.995 -50.418  12.987  1.00  0.00    -0.324 N 
HETATM    4  C   UNL     1     -39.434 -49.266  13.577  1.00  0.00     0.140 A 
HETATM    5  N   UNL     1     -38.853 -48.834  11.433  1.00  0.00    -0.346 N 
ATOM      6  HN  UNL     1     -38.650 -48.348  10.559  1.00  0.00     0.167 HD
HETATM    7  C   UNL     1     -38.670 -50.113  11.695  1.00  0.00     0.185 A 
HETATM    8  N   UNL     1     -40.295 -46.850  14.242  1.00  0.00    -0.341 N 
ATOM      9  HN  UNL     1     -40.669 -45.952  14.551  1.00  0.00     0.167 HD
HETATM   10  N   UNL     1     -39.838 -49.140  14.848  1.00  0.00    -0.336 N 
ATOM     11  HN  UNL     1     -39.816 -49.889  15.539  1.00  0.00     0.168 HD
HETATM   12  C   UNL     1     -40.277 -47.896  15.088  1.00  0.00     0.183 A 
ENDROOT
BRANCH   2  13
HETATM   13  N   UNL     1     -39.745 -45.825  12.181  1.00  0.00    -0.258 NA
HETATM   14  C   UNL     1     -40.610 -44.679  12.512  1.00  0.00     0.065 C 
HETATM   15  C   UNL     1     -42.026 -45.179  12.130  1.00  0.00     0.028 C 
HETATM   16  C   UNL     1     -40.169 -43.679  11.414  1.00  0.00     0.022 C 
HETATM   17  C   UNL     1     -41.727 -46.190  10.992  1.00  0.00     0.029 C 
HETATM   18  C   UNL     1     -40.200 -46.000  10.782  1.00  0.00     0.071 C 
HETATM   19  C   UNL     1     -39.885 -44.600  10.215  1.00  0.00     0.022 C 
BRANCH  17  20
HETATM   20  C   UNL     1     -42.617 -46.054   9.770  1.00  0.00     0.170 C 
BRANCH  20  21
HETATM   21  O   UNL     1     -43.406 -44.874   9.889  1.00  0.00    -0.400 OA
HETATM   22  H   UNL     1     -42.869 -44.122   9.579  1.00  0.00     0.209 HD
ENDBRANCH  20  21
ENDBRANCH  17  20
ENDBRANCH   2  13
BRANCH   3  23
HETATM   23  C   UNL     1     -39.079 -51.736  13.587  1.00  0.00     0.172 C 
BRANCH  23  24
HETATM   24  C   UNL     1     -40.295 -52.601  13.199  1.00  0.00     0.102 C 
HETATM   25  C   UNL     1     -41.663 -52.026  13.626  1.00  0.00     0.153 C 
HETATM   26  O   UNL     1     -42.502 -53.145  14.004  1.00  0.00    -0.383 OA
HETATM   27  C   UNL     1     -42.406 -51.234  12.566  1.00  0.00     0.042 C 
HETATM   28  C   UNL     1     -41.729 -54.344  13.893  1.00  0.00     0.171 C 
HETATM   29  C   UNL     1     -40.285 -53.906  13.988  1.00  0.00     0.068 C 
BRANCH  24  30
HETATM   30  O   UNL     1     -40.273 -52.986  11.819  1.00  0.00    -0.385 OA
HETATM   31  H   UNL     1     -40.708 -52.304  11.273  1.00  0.00     0.210 HD
ENDBRANCH  24  30
ENDBRANCH  23  24
ENDBRANCH   3  23
TORSDOF 6
ENDMDL
MODEL 6
REMARK VINA RESULT:      -6.5      3.488      4.760
REMARK  6 active torsions:
REMARK  status: ('A' for Active; 'I' for Inactive)
REMARK    1  A    between atoms: C_2  and  N_3 
REMARK    2  A    between atoms: N_4  and  C_14 
REMARK    3  A    between atoms: C_11  and  C_14 
REMARK    4  A    between atoms: C_11  and  O_25 
REMARK    5  A    between atoms: C_15  and  C_27 
REMARK    6  A    between atoms: C_27  and  O_28 
ROOT
HETATM    1  C   UNL     1     -40.066 -48.279  12.357  1.00  0.00     0.117 A 
HETATM    2  C   UNL     1     -40.338 -47.093  11.623  1.00  0.00     0.115 A 
HETATM    3  N   UNL     1     -40.237 -50.440  12.733  1.00  0.00    -0.324 N 
HETATM    4  C   UNL     1     -40.656 -49.447  11.893  1.00  0.00     0.140 A 
HETATM    5  N   UNL     1     -39.340 -48.558  13.505  1.00  0.00    -0.346 N 
ATOM      6  HN  UNL     1     -38.837 -47.893  14.093  1.00  0.00     0.167 HD
HETATM    7  C   UNL     1     -39.437 -49.861  13.678  1.00  0.00     0.185 A 
HETATM    8  N   UNL     1     -41.110 -47.240  10.499  1.00  0.00    -0.341 N 
ATOM      9  HN  UNL     1     -41.298 -46.434   9.902  1.00  0.00     0.167 HD
HETATM   10  N   UNL     1     -41.467 -49.602  10.838  1.00  0.00    -0.336 N 
ATOM     11  HN  UNL     1     -41.908 -50.482  10.571  1.00  0.00     0.168 HD
HETATM   12  C   UNL     1     -41.621 -48.443  10.181  1.00  0.00     0.183 A 
ENDROOT
BRANCH   2  13
HETATM   13  N   UNL     1     -39.944 -45.791  11.961  1.00  0.00    -0.258 NA
HETATM   14  C   UNL     1     -40.326 -45.238  13.273  1.00  0.00     0.065 C 
HETATM   15  C   UNL     1     -41.855 -45.028  13.139  1.00  0.00     0.028 C 
HETATM   16  C   UNL     1     -39.665 -43.840  13.183  1.00  0.00     0.022 C 
HETATM   17  C   UNL     1     -42.026 -44.780  11.617  1.00  0.00     0.029 C 
HETATM   18  C   UNL     1     -40.553 -44.726  11.130  1.00  0.00     0.071 C 
HETATM   19  C   UNL     1     -39.823 -43.488  11.694  1.00  0.00     0.022 C 
BRANCH  17  20
HETATM   20  C   UNL     1     -42.918 -43.605  11.260  1.00  0.00     0.170 C 
BRANCH  20  21
HETATM   21  O   UNL     1     -43.530 -43.844   9.996  1.00  0.00    -0.400 OA
HETATM   22  H   UNL     1     -44.477 -43.630  10.075  1.00  0.00     0.209 HD
ENDBRANCH  20  21
ENDBRANCH  17  20
ENDBRANCH   2  13
BRANCH   3  23
HETATM   23  C   UNL     1     -40.447 -51.858  12.504  1.00  0.00     0.172 C 
BRANCH  23  24
HETATM   24  C   UNL     1     -41.852 -52.411  12.816  1.00  0.00     0.102 C 
HETATM   25  C   UNL     1     -42.530 -51.798  14.060  1.00  0.00     0.153 C 
HETATM   26  O   UNL     1     -43.281 -52.855  14.707  1.00  0.00    -0.383 OA
HETATM   27  C   UNL     1     -43.490 -50.653  13.792  1.00  0.00     0.042 C 
HETATM   28  C   UNL     1     -43.062 -54.070  13.983  1.00  0.00     0.171 C 
HETATM   29  C   UNL     1     -41.758 -53.872  13.244  1.00  0.00     0.068 C 
BRANCH  24  30
HETATM   30  O   UNL     1     -42.710 -52.401  11.668  1.00  0.00    -0.385 OA
HETATM   31  H   UNL     1     -43.489 -52.967  11.826  1.00  0.00     0.210 HD
ENDBRANCH  24  30
ENDBRANCH  23  24
ENDBRANCH   3  23
TORSDOF 6
ENDMDL
MODEL 7
REMARK VINA RESULT:      -6.4      2.904      3.989
REMARK  6 active torsions:
REMARK  status: ('A' for Active; 'I' for Inactive)
REMARK    1  A    between atoms: C_2  and  N_3 
REMARK    2  A    between atoms: N_4  and  C_14 
REMARK    3  A    between atoms: C_11  and  C_14 
REMARK    4  A    between atoms: C_11  and  O_25 
REMARK    5  A    between atoms: C_15  and  C_27 
REMARK    6  A    between atoms: C_27  and  O_28 
ROOT
HETATM    1  C   UNL     1     -41.675 -49.028  13.013  1.00  0.00     0.117 A 
HETATM    2  C   UNL     1     -40.942 -48.259  12.069  1.00  0.00     0.115 A 
HETATM    3  N   UNL     1     -42.470 -50.917  13.815  1.00  0.00    -0.324 N 
HETATM    4  C   UNL     1     -41.745 -50.395  12.780  1.00  0.00     0.140 A 
HETATM    5  N   UNL     1     -42.403 -48.720  14.153  1.00  0.00    -0.346 N 
ATOM      6  HN  UNL     1     -42.571 -47.794  14.545  1.00  0.00     0.167 HD
HETATM    7  C   UNL     1     -42.832 -49.875  14.622  1.00  0.00     0.185 A 
HETATM    8  N   UNL     1     -40.333 -48.959  11.059  1.00  0.00    -0.341 N 
ATOM      9  HN  UNL     1     -39.750 -48.469  10.381  1.00  0.00     0.167 HD
HETATM   10  N   UNL     1     -41.215 -51.090  11.765  1.00  0.00    -0.336 N 
ATOM     11  HN  UNL     1     -41.339 -52.093  11.623  1.00  0.00     0.168 HD
HETATM   12  C   UNL     1     -40.502 -50.290  10.961  1.00  0.00     0.183 A 
ENDROOT
BRANCH   2  13
HETATM   13  N   UNL     1     -40.826 -46.862  12.039  1.00  0.00    -0.258 NA
HETATM   14  C   UNL     1     -41.800 -46.040  12.780  1.00  0.00     0.065 C 
HETATM   15  C   UNL     1     -43.107 -46.218  11.968  1.00  0.00     0.028 C 
HETATM   16  C   UNL     1     -41.257 -44.624  12.465  1.00  0.00     0.022 C 
HETATM   17  C   UNL     1     -42.577 -46.478  10.534  1.00  0.00     0.029 C 
HETATM   18  C   UNL     1     -41.051 -46.253  10.707  1.00  0.00     0.071 C 
HETATM   19  C   UNL     1     -40.737 -44.776  11.025  1.00  0.00     0.022 C 
BRANCH  17  20
HETATM   20  C   UNL     1     -43.276 -45.687   9.444  1.00  0.00     0.170 C 
BRANCH  20  21
HETATM   21  O   UNL     1     -42.720 -46.035   8.178  1.00  0.00    -0.400 OA
HETATM   22  H   UNL     1     -41.847 -46.439   8.335  1.00  0.00     0.209 HD
ENDBRANCH  20  21
ENDBRANCH  17  20
ENDBRANCH   2  13
BRANCH   3  23
HETATM   23  C   UNL     1     -42.619 -52.335  14.086  1.00  0.00     0.172 C 
BRANCH  23  24
HETATM   24  C   UNL     1     -43.820 -53.045  13.429  1.00  0.00     0.102 C 
HETATM   25  C   UNL     1     -45.205 -52.551  13.901  1.00  0.00     0.153 C 
HETATM   26  O   UNL     1     -46.081 -53.704  13.947  1.00  0.00    -0.383 OA
HETATM   27  C   UNL     1     -45.868 -51.506  13.023  1.00  0.00     0.042 C 
HETATM   28  C   UNL     1     -45.319 -54.863  13.594  1.00  0.00     0.171 C 
HETATM   29  C   UNL     1     -43.878 -54.502  13.878  1.00  0.00     0.068 C 
BRANCH  24  30
HETATM   30  O   UNL     1     -43.715 -53.087  12.001  1.00  0.00    -0.385 OA
HETATM   31  H   UNL     1     -42.777 -53.091  11.733  1.00  0.00     0.210 HD
ENDBRANCH  24  30
ENDBRANCH  23  24
ENDBRANCH   3  23
TORSDOF 6
ENDMDL
MODEL 8
REMARK VINA RESULT:      -6.4      2.823      4.023
REMARK  6 active torsions:
REMARK  status: ('A' for Active; 'I' for Inactive)
REMARK    1  A    between atoms: C_2  and  N_3 
REMARK    2  A    between atoms: N_4  and  C_14 
REMARK    3  A    between atoms: C_11  and  C_14 
REMARK    4  A    between atoms: C_11  and  O_25 
REMARK    5  A    between atoms: C_15  and  C_27 
REMARK    6  A    between atoms: C_27  and  O_28 
ROOT
HETATM    1  C   UNL     1     -42.061 -49.301  12.026  1.00  0.00     0.117 A 
HETATM    2  C   UNL     1     -40.971 -48.588  11.459  1.00  0.00     0.115 A 
HETATM    3  N   UNL     1     -42.986 -51.078  12.937  1.00  0.00    -0.324 N 
HETATM    4  C   UNL     1     -41.815 -50.613  12.407  1.00  0.00     0.140 A 
HETATM    5  N   UNL     1     -43.391 -48.995  12.274  1.00  0.00    -0.346 N 
ATOM      6  HN  UNL     1     -43.874 -48.123  12.056  1.00  0.00     0.167 HD
HETATM    7  C   UNL     1     -43.900 -50.066  12.848  1.00  0.00     0.185 A 
HETATM    8  N   UNL     1     -39.774 -49.255  11.401  1.00  0.00    -0.341 N 
ATOM      9  HN  UNL     1     -38.943 -48.779  11.052  1.00  0.00     0.167 HD
HETATM   10  N   UNL     1     -40.673 -51.306  12.298  1.00  0.00    -0.336 N 
ATOM     11  HN  UNL     1     -40.565 -52.287  12.556  1.00  0.00     0.168 HD
HETATM   12  C   UNL     1     -39.694 -50.536  11.803  1.00  0.00     0.183 A 
ENDROOT
BRANCH   2  13
HETATM   13  N   UNL     1     -41.011 -47.299  10.908  1.00  0.00    -0.258 NA
HETATM   14  C   UNL     1     -39.870 -46.389  11.116  1.00  0.00     0.065 C 
HETATM   15  C   UNL     1     -39.964 -46.039  12.622  1.00  0.00     0.028 C 
HETATM   16  C   UNL     1     -40.363 -45.149  10.329  1.00  0.00     0.022 C 
HETATM   17  C   UNL     1     -41.484 -46.168  12.900  1.00  0.00     0.029 C 
HETATM   18  C   UNL     1     -42.055 -46.416  11.478  1.00  0.00     0.071 C 
HETATM   19  C   UNL     1     -41.880 -45.172  10.582  1.00  0.00     0.022 C 
BRANCH  17  20
HETATM   20  C   UNL     1     -42.085 -45.025  13.699  1.00  0.00     0.170 C 
BRANCH  20  21
HETATM   21  O   UNL     1     -43.498 -45.193  13.774  1.00  0.00    -0.400 OA
HETATM   22  H   UNL     1     -43.911 -44.319  13.654  1.00  0.00     0.209 HD
ENDBRANCH  20  21
ENDBRANCH  17  20
ENDBRANCH   2  13
BRANCH   3  23
HETATM   23  C   UNL     1     -43.129 -52.337  13.646  1.00  0.00     0.172 C 
BRANCH  23  24
HETATM   24  C   UNL     1     -44.428 -53.130  13.399  1.00  0.00     0.102 C 
HETATM   25  C   UNL     1     -45.553 -52.867  14.423  1.00  0.00     0.153 C 
HETATM   26  O   UNL     1     -46.244 -54.122  14.636  1.00  0.00    -0.383 OA
HETATM   27  C   UNL     1     -46.590 -51.837  14.015  1.00  0.00     0.042 C 
HETATM   28  C   UNL     1     -45.588 -55.134  13.864  1.00  0.00     0.171 C 
HETATM   29  C   UNL     1     -44.186 -54.618  13.629  1.00  0.00     0.068 C 
BRANCH  24  30
HETATM   30  O   UNL     1     -44.886 -53.019  12.046  1.00  0.00    -0.385 OA
HETATM   31  H   UNL     1     -45.617 -53.646  11.887  1.00  0.00     0.210 HD
ENDBRANCH  24  30
ENDBRANCH  23  24
ENDBRANCH   3  23
TORSDOF 6
ENDMDL
MODEL 9
REMARK VINA RESULT:      -6.3      2.652      3.501
REMARK  6 active torsions:
REMARK  status: ('A' for Active; 'I' for Inactive)
REMARK    1  A    between atoms: C_2  and  N_3 
REMARK    2  A    between atoms: N_4  and  C_14 
REMARK    3  A    between atoms: C_11  and  C_14 
REMARK    4  A    between atoms: C_11  and  O_25 
REMARK    5  A    between atoms: C_15  and  C_27 
REMARK    6  A    between atoms: C_27  and  O_28 
ROOT
HETATM    1  C   UNL     1     -41.451 -50.189  12.968  1.00  0.00     0.117 A 
HETATM    2  C   UNL     1     -41.292 -48.858  13.439  1.00  0.00     0.115 A 
HETATM    3  N   UNL     1     -41.943 -52.318  13.225  1.00  0.00    -0.324 N 
HETATM    4  C   UNL     1     -41.834 -51.138  13.906  1.00  0.00     0.140 A 
HETATM    5  N   UNL     1     -41.276 -50.806  11.738  1.00  0.00    -0.346 N 
ATOM      6  HN  UNL     1     -40.954 -50.374  10.872  1.00  0.00     0.167 HD
HETATM    7  C   UNL     1     -41.612 -52.067  11.923  1.00  0.00     0.185 A 
HETATM    8  N   UNL     1     -41.589 -48.642  14.760  1.00  0.00    -0.341 N 
ATOM      9  HN  UNL     1     -41.543 -47.698  15.143  1.00  0.00     0.167 HD
HETATM   10  N   UNL     1     -42.064 -50.963  15.215  1.00  0.00    -0.336 N 
ATOM     11  HN  UNL     1     -42.300 -51.711  15.866  1.00  0.00     0.168 HD
HETATM   12  C   UNL     1     -41.940 -49.671  15.551  1.00  0.00     0.183 A 
ENDROOT
BRANCH   2  13
HETATM   13  N   UNL     1     -40.813 -47.763  12.704  1.00  0.00    -0.258 NA
HETATM   14  C   UNL     1     -41.244 -46.402  13.072  1.00  0.00     0.065 C 
HETATM   15  C   UNL     1     -42.735 -46.375  12.651  1.00  0.00     0.028 C 
HETATM   16  C   UNL     1     -40.460 -45.574  12.023  1.00  0.00     0.022 C 
HETATM   17  C   UNL     1     -42.768 -47.386  11.475  1.00  0.00     0.029 C 
HETATM   18  C   UNL     1     -41.263 -47.722  11.293  1.00  0.00     0.071 C 
HETATM   19  C   UNL     1     -40.474 -46.494  10.790  1.00  0.00     0.022 C 
BRANCH  17  20
HETATM   20  C   UNL     1     -43.525 -46.911  10.248  1.00  0.00     0.170 C 
BRANCH  20  21
HETATM   21  O   UNL     1     -44.451 -47.918   9.846  1.00  0.00    -0.400 OA
HETATM   22  H   UNL     1     -44.721 -47.728   8.930  1.00  0.00     0.209 HD
ENDBRANCH  20  21
ENDBRANCH  17  20
ENDBRANCH   2  13
BRANCH   3  23
HETATM   23  C   UNL     1     -42.515 -53.536  13.771  1.00  0.00     0.172 C 
BRANCH  23  24
HETATM   24  C   UNL     1     -44.006 -53.796  13.475  1.00  0.00     0.102 C 
HETATM   25  C   UNL     1     -44.977 -52.756  14.074  1.00  0.00     0.153 C 
HETATM   26  O   UNL     1     -46.169 -53.468  14.487  1.00  0.00    -0.383 OA
HETATM   27  C   UNL     1     -45.410 -51.642  13.138  1.00  0.00     0.042 C 
HETATM   28  C   UNL     1     -45.970 -54.863  14.237  1.00  0.00     0.171 C 
HETATM   29  C   UNL     1     -44.471 -55.057  14.197  1.00  0.00     0.068 C 
BRANCH  24  30
HETATM   30  O   UNL     1     -44.253 -54.035  12.085  1.00  0.00    -0.385 OA
HETATM   31  H   UNL     1     -43.700 -53.446  11.539  1.00  0.00     0.210 HD
ENDBRANCH  24  30
ENDBRANCH  23  24
ENDBRANCH   3  23
TORSDOF 6
ENDMDL
