MODEL 1
REMARK VINA RESULT:      -5.9      0.000      0.000
REMARK  4 active torsions:
REMARK  status: ('A' for Active; 'I' for Inactive)
REMARK    1  A    between atoms: C_2  and  C_3 
REMARK    2  A    between atoms: C_2  and  C_15 
REMARK    3  A    between atoms: C_3  and  N_4 
REMARK       I    between atoms: N_4  and  C_5 
REMARK       I    between atoms: C_5  and  N_7 
REMARK    4  A    between atoms: N_7  and  C_8 
ROOT
HETATM    1  N   UNL     1     -42.145 -49.361  11.294  1.00  0.00    -0.342 N 
HETATM    2  C   UNL     1     -42.862 -49.603  12.439  1.00  0.00     0.316 C 
HETATM    3  O   UNL     1     -42.933 -48.777  13.343  1.00  0.00    -0.247 OA
HETATM    4  N   UNL     1     -43.346 -50.881  12.542  1.00  0.00    -0.339 N 
HETATM    5  H   UNL     1     -42.448 -49.799  10.433  1.00  0.00     0.164 HD
HETATM    6  H   UNL     1     -43.511 -51.419  11.705  1.00  0.00     0.164 HD
ENDROOT
BRANCH   1   7
HETATM    7  C   UNL     1     -41.354 -48.141  11.250  1.00  0.00     0.135 C 
BRANCH   7   8
HETATM    8  C   UNL     1     -41.897 -46.949  10.453  1.00  0.00     0.057 C 
HETATM    9  C   UNL     1     -42.393 -45.828  11.367  1.00  0.00     0.018 C 
BRANCH   8  10
HETATM   10  C   UNL     1     -42.938 -47.343   9.437  1.00  0.00     0.056 A 
HETATM   11  N   UNL     1     -42.679 -47.845   8.247  1.00  0.00    -0.363 N 
HETATM   12  C   UNL     1     -43.861 -48.178   7.612  1.00  0.00     0.095 A 
ATOM     13  HN  UNL     1     -41.747 -47.970   7.853  1.00  0.00     0.165 HD
HETATM   14  C   UNL     1     -45.014 -47.910   8.316  1.00  0.00     0.068 A 
HETATM   15  S   UNL     1     -44.615 -47.225   9.833  1.00  0.00    -0.087 SA
ENDBRANCH   8  10
ENDBRANCH   7   8
ENDBRANCH   1   7
BRANCH   4  16
HETATM   16  C   UNL     1     -43.801 -51.373  13.851  1.00  0.00     0.086 C 
HETATM   17  C   UNL     1     -43.438 -52.854  14.033  1.00  0.00     0.026 C 
HETATM   18  C   UNL     1     -44.218 -53.709  13.041  1.00  0.00     0.006 C 
HETATM   19  C   UNL     1     -45.713 -53.684  13.350  1.00  0.00    -0.019 C 
HETATM   20  C   UNL     1     -46.016 -54.552  14.578  1.00  0.00     0.010 C 
HETATM   21  C   UNL     1     -46.245 -52.241  13.478  1.00  0.00     0.006 C 
HETATM   22  C   UNL     1     -45.307 -51.197  14.113  1.00  0.00     0.026 C 
ENDBRANCH   4  16
TORSDOF 4
ENDMDL
MODEL 2
REMARK VINA RESULT:      -5.8      2.413      3.053
REMARK  4 active torsions:
REMARK  status: ('A' for Active; 'I' for Inactive)
REMARK    1  A    between atoms: C_2  and  C_3 
REMARK    2  A    between atoms: C_2  and  C_15 
REMARK    3  A    between atoms: C_3  and  N_4 
REMARK       I    between atoms: N_4  and  C_5 
REMARK       I    between atoms: C_5  and  N_7 
REMARK    4  A    between atoms: N_7  and  C_8 
ROOT
HETATM    1  N   UNL     1     -41.631 -49.936  11.449  1.00  0.00    -0.342 N 
HETATM    2  C   UNL     1     -42.014 -50.741  12.493  1.00  0.00     0.316 C 
HETATM    3  O   UNL     1     -41.195 -51.246  13.252  1.00  0.00    -0.247 OA
HETATM    4  N   UNL     1     -43.351 -51.047  12.508  1.00  0.00    -0.339 N 
HETATM    5  H   UNL     1     -42.264 -49.206  11.144  1.00  0.00     0.164 HD
HETATM    6  H   UNL     1     -44.009 -50.421  12.068  1.00  0.00     0.164 HD
ENDROOT
BRANCH   1   7
HETATM    7  C   UNL     1     -40.205 -49.815  11.190  1.00  0.00     0.135 C 
BRANCH   7   8
HETATM    8  C   UNL     1     -39.491 -48.530  11.627  1.00  0.00     0.057 C 
HETATM    9  C   UNL     1     -38.895 -48.654  13.028  1.00  0.00     0.018 C 
BRANCH   8  10
HETATM   10  C   UNL     1     -40.355 -47.301  11.493  1.00  0.00     0.056 A 
HETATM   11  N   UNL     1     -40.664 -46.715  10.355  1.00  0.00    -0.363 N 
HETATM   12  C   UNL     1     -41.543 -45.674  10.587  1.00  0.00     0.095 A 
ATOM     13  HN  UNL     1     -40.307 -46.988   9.439  1.00  0.00     0.165 HD
HETATM   14  C   UNL     1     -41.885 -45.463  11.904  1.00  0.00     0.068 A 
HETATM   15  S   UNL     1     -41.089 -46.609  12.895  1.00  0.00    -0.087 SA
ENDBRANCH   8  10
ENDBRANCH   7   8
ENDBRANCH   1   7
BRANCH   4  16
HETATM   16  C   UNL     1     -43.820 -52.171  13.331  1.00  0.00     0.086 C 
HETATM   17  C   UNL     1     -45.191 -52.664  12.848  1.00  0.00     0.026 C 
HETATM   18  C   UNL     1     -46.246 -51.589  13.081  1.00  0.00     0.006 C 
HETATM   19  C   UNL     1     -46.473 -51.356  14.572  1.00  0.00    -0.019 C 
HETATM   20  C   UNL     1     -47.289 -52.508  15.172  1.00  0.00     0.010 C 
HETATM   21  C   UNL     1     -45.147 -51.096  15.318  1.00  0.00     0.006 C 
HETATM   22  C   UNL     1     -43.905 -51.870  14.838  1.00  0.00     0.026 C 
ENDBRANCH   4  16
TORSDOF 4
ENDMDL
MODEL 3
REMARK VINA RESULT:      -5.7      4.819      6.336
REMARK  4 active torsions:
REMARK  status: ('A' for Active; 'I' for Inactive)
REMARK    1  A    between atoms: C_2  and  C_3 
REMARK    2  A    between atoms: C_2  and  C_15 
REMARK    3  A    between atoms: C_3  and  N_4 
REMARK       I    between atoms: N_4  and  C_5 
REMARK       I    between atoms: C_5  and  N_7 
REMARK    4  A    between atoms: N_7  and  C_8 
ROOT
HETATM    1  N   UNL     1     -42.154 -54.227  16.071  1.00  0.00    -0.342 N 
HETATM    2  C   UNL     1     -43.369 -54.673  15.613  1.00  0.00     0.316 C 
HETATM    3  O   UNL     1     -43.523 -55.816  15.199  1.00  0.00    -0.247 OA
HETATM    4  N   UNL     1     -44.328 -53.697  15.515  1.00  0.00    -0.339 N 
HETATM    5  H   UNL     1     -42.141 -53.510  16.785  1.00  0.00     0.164 HD
HETATM    6  H   UNL     1     -44.264 -52.878  16.100  1.00  0.00     0.164 HD
ENDROOT
BRANCH   1   7
HETATM    7  C   UNL     1     -41.017 -55.121  15.918  1.00  0.00     0.135 C 
BRANCH   7   8
HETATM    8  C   UNL     1     -39.770 -54.598  15.195  1.00  0.00     0.057 C 
HETATM    9  C   UNL     1     -38.779 -53.947  16.160  1.00  0.00     0.018 C 
BRANCH   8  10
HETATM   10  C   UNL     1     -40.097 -53.692  14.035  1.00  0.00     0.056 A 
HETATM   11  N   UNL     1     -40.688 -54.074  12.922  1.00  0.00    -0.363 N 
HETATM   12  C   UNL     1     -40.918 -52.978  12.113  1.00  0.00     0.095 A 
ATOM     13  HN  UNL     1     -40.938 -55.035  12.691  1.00  0.00     0.165 HD
HETATM   14  C   UNL     1     -40.485 -51.768  12.608  1.00  0.00     0.068 A 
HETATM   15  S   UNL     1     -39.770 -51.999  14.146  1.00  0.00    -0.087 SA
ENDBRANCH   8  10
ENDBRANCH   7   8
ENDBRANCH   1   7
BRANCH   4  16
HETATM   16  C   UNL     1     -45.530 -53.951  14.709  1.00  0.00     0.086 C 
HETATM   17  C   UNL     1     -45.206 -53.877  13.209  1.00  0.00     0.026 C 
HETATM   18  C   UNL     1     -44.817 -52.454  12.828  1.00  0.00     0.006 C 
HETATM   19  C   UNL     1     -46.002 -51.503  12.968  1.00  0.00    -0.019 C 
HETATM   20  C   UNL     1     -46.989 -51.710  11.812  1.00  0.00     0.010 C 
HETATM   21  C   UNL     1     -46.662 -51.614  14.359  1.00  0.00     0.006 C 
HETATM   22  C   UNL     1     -46.711 -53.011  15.007  1.00  0.00     0.026 C 
ENDBRANCH   4  16
TORSDOF 4
ENDMDL
MODEL 4
REMARK VINA RESULT:      -5.5      1.717      2.129
REMARK  4 active torsions:
REMARK  status: ('A' for Active; 'I' for Inactive)
REMARK    1  A    between atoms: C_2  and  C_3 
REMARK    2  A    between atoms: C_2  and  C_15 
REMARK    3  A    between atoms: C_3  and  N_4 
REMARK       I    between atoms: N_4  and  C_5 
REMARK       I    between atoms: C_5  and  N_7 
REMARK    4  A    between atoms: N_7  and  C_8 
ROOT
HETATM    1  N   UNL     1     -41.574 -49.676  12.374  1.00  0.00    -0.342 N 
HETATM    2  C   UNL     1     -41.474 -51.045  12.379  1.00  0.00     0.316 C 
HETATM    3  O   UNL     1     -40.584 -51.629  11.771  1.00  0.00    -0.247 OA
HETATM    4  N   UNL     1     -42.529 -51.685  12.978  1.00  0.00    -0.339 N 
HETATM    5  H   UNL     1     -41.979 -49.218  13.182  1.00  0.00     0.164 HD
HETATM    6  H   UNL     1     -43.069 -51.203  13.680  1.00  0.00     0.164 HD
ENDROOT
BRANCH   1   7
HETATM    7  C   UNL     1     -40.664 -48.945  11.506  1.00  0.00     0.135 C 
BRANCH   7   8
HETATM    8  C   UNL     1     -40.922 -47.452  11.270  1.00  0.00     0.057 C 
HETATM    9  C   UNL     1     -41.223 -46.710  12.572  1.00  0.00     0.018 C 
BRANCH   8  10
HETATM   10  C   UNL     1     -41.976 -47.194  10.224  1.00  0.00     0.056 A 
HETATM   11  N   UNL     1     -42.388 -48.074   9.333  1.00  0.00    -0.363 N 
HETATM   12  C   UNL     1     -43.423 -47.539   8.591  1.00  0.00     0.095 A 
ATOM     13  HN  UNL     1     -42.000 -49.009   9.210  1.00  0.00     0.165 HD
HETATM   14  C   UNL     1     -43.783 -46.249   8.908  1.00  0.00     0.068 A 
HETATM   15  S   UNL     1     -42.801 -45.677  10.189  1.00  0.00    -0.087 SA
ENDBRANCH   8  10
ENDBRANCH   7   8
ENDBRANCH   1   7
BRANCH   4  16
HETATM   16  C   UNL     1     -42.730 -53.120  12.731  1.00  0.00     0.086 C 
HETATM   17  C   UNL     1     -44.124 -53.381  12.141  1.00  0.00     0.026 C 
HETATM   18  C   UNL     1     -45.198 -53.043  13.169  1.00  0.00     0.006 C 
HETATM   19  C   UNL     1     -45.145 -54.001  14.356  1.00  0.00    -0.019 C 
HETATM   20  C   UNL     1     -45.727 -55.365  13.964  1.00  0.00     0.010 C 
HETATM   21  C   UNL     1     -43.723 -54.094  14.951  1.00  0.00     0.006 C 
HETATM   22  C   UNL     1     -42.540 -54.016  13.968  1.00  0.00     0.026 C 
ENDBRANCH   4  16
TORSDOF 4
ENDMDL
MODEL 5
REMARK VINA RESULT:      -5.4      2.619      4.034
REMARK  4 active torsions:
REMARK  status: ('A' for Active; 'I' for Inactive)
REMARK    1  A    between atoms: C_2  and  C_3 
REMARK    2  A    between atoms: C_2  and  C_15 
REMARK    3  A    between atoms: C_3  and  N_4 
REMARK       I    between atoms: N_4  and  C_5 
REMARK       I    between atoms: C_5  and  N_7 
REMARK    4  A    between atoms: N_7  and  C_8 
ROOT
HETATM    1  N   UNL     1     -42.607 -48.648  11.500  1.00  0.00    -0.342 N 
HETATM    2  C   UNL     1     -42.624 -49.644  12.446  1.00  0.00     0.316 C 
HETATM    3  O   UNL     1     -41.591 -50.080  12.941  1.00  0.00    -0.247 OA
HETATM    4  N   UNL     1     -43.859 -50.198  12.660  1.00  0.00    -0.339 N 
HETATM    5  H   UNL     1     -43.398 -48.018  11.448  1.00  0.00     0.164 HD
HETATM    6  H   UNL     1     -44.687 -49.657  12.464  1.00  0.00     0.164 HD
ENDROOT
BRANCH   1   7
HETATM    7  C   UNL     1     -41.308 -48.224  11.003  1.00  0.00     0.135 C 
BRANCH   7   8
HETATM    8  C   UNL     1     -40.637 -47.011  11.658  1.00  0.00     0.057 C 
HETATM    9  C   UNL     1     -40.110 -46.019  10.622  1.00  0.00     0.018 C 
BRANCH   8  10
HETATM   10  C   UNL     1     -39.574 -47.393  12.657  1.00  0.00     0.056 A 
HETATM   11  N   UNL     1     -38.937 -48.546  12.679  1.00  0.00    -0.363 N 
HETATM   12  C   UNL     1     -37.968 -48.528  13.664  1.00  0.00     0.095 A 
ATOM     13  HN  UNL     1     -39.130 -49.334  12.061  1.00  0.00     0.165 HD
HETATM   14  C   UNL     1     -37.885 -47.366  14.400  1.00  0.00     0.068 A 
HETATM   15  S   UNL     1     -39.053 -46.246  13.840  1.00  0.00    -0.087 SA
ENDBRANCH   8  10
ENDBRANCH   7   8
ENDBRANCH   1   7
BRANCH   4  16
HETATM   16  C   UNL     1     -43.955 -51.491  13.353  1.00  0.00     0.086 C 
HETATM   17  C   UNL     1     -45.102 -52.334  12.777  1.00  0.00     0.026 C 
HETATM   18  C   UNL     1     -46.441 -51.670  13.076  1.00  0.00     0.006 C 
HETATM   19  C   UNL     1     -46.734 -51.673  14.575  1.00  0.00    -0.019 C 
HETATM   20  C   UNL     1     -47.150 -53.078  15.031  1.00  0.00     0.010 C 
HETATM   21  C   UNL     1     -45.557 -51.092  15.387  1.00  0.00     0.006 C 
HETATM   22  C   UNL     1     -44.134 -51.387  14.878  1.00  0.00     0.026 C 
ENDBRANCH   4  16
TORSDOF 4
ENDMDL
MODEL 6
REMARK VINA RESULT:      -5.4      2.590      3.737
REMARK  4 active torsions:
REMARK  status: ('A' for Active; 'I' for Inactive)
REMARK    1  A    between atoms: C_2  and  C_3 
REMARK    2  A    between atoms: C_2  and  C_15 
REMARK    3  A    between atoms: C_3  and  N_4 
REMARK       I    between atoms: N_4  and  C_5 
REMARK       I    between atoms: C_5  and  N_7 
REMARK    4  A    between atoms: N_7  and  C_8 
ROOT
HETATM    1  N   UNL     1     -42.105 -49.397  11.398  1.00  0.00    -0.342 N 
HETATM    2  C   UNL     1     -42.934 -49.626  12.468  1.00  0.00     0.316 C 
HETATM    3  O   UNL     1     -43.163 -48.759  13.304  1.00  0.00    -0.247 OA
HETATM    4  N   UNL     1     -43.342 -50.929  12.597  1.00  0.00    -0.339 N 
HETATM    5  H   UNL     1     -42.276 -49.902  10.538  1.00  0.00     0.164 HD
HETATM    6  H   UNL     1     -43.372 -51.523  11.782  1.00  0.00     0.164 HD
ENDROOT
BRANCH   1   7
HETATM    7  C   UNL     1     -41.395 -48.128  11.366  1.00  0.00     0.135 C 
BRANCH   7   8
HETATM    8  C   UNL     1     -40.213 -47.929  12.323  1.00  0.00     0.057 C 
HETATM    9  C   UNL     1     -39.632 -46.519  12.230  1.00  0.00     0.018 C 
BRANCH   8  10
HETATM   10  C   UNL     1     -39.147 -48.984  12.170  1.00  0.00     0.056 A 
HETATM   11  N   UNL     1     -38.374 -49.130  11.112  1.00  0.00    -0.363 N 
HETATM   12  C   UNL     1     -37.450 -50.131  11.342  1.00  0.00     0.095 A 
ATOM     13  HN  UNL     1     -38.448 -48.586  10.253  1.00  0.00     0.165 HD
HETATM   14  C   UNL     1     -37.535 -50.754  12.567  1.00  0.00     0.068 A 
HETATM   15  S   UNL     1     -38.810 -50.064  13.476  1.00  0.00    -0.087 SA
ENDBRANCH   8  10
ENDBRANCH   7   8
ENDBRANCH   1   7
BRANCH   4  16
HETATM   16  C   UNL     1     -43.914 -51.379  13.874  1.00  0.00     0.086 C 
HETATM   17  C   UNL     1     -43.503 -52.827  14.175  1.00  0.00     0.026 C 
HETATM   18  C   UNL     1     -44.127 -53.771  13.154  1.00  0.00     0.006 C 
HETATM   19  C   UNL     1     -45.646 -53.810  13.299  1.00  0.00    -0.019 C 
HETATM   20  C   UNL     1     -46.041 -54.632  14.533  1.00  0.00     0.010 C 
HETATM   21  C   UNL     1     -46.257 -52.393  13.289  1.00  0.00     0.006 C 
HETATM   22  C   UNL     1     -45.446 -51.270  13.963  1.00  0.00     0.026 C 
ENDBRANCH   4  16
TORSDOF 4
ENDMDL
MODEL 7
REMARK VINA RESULT:      -5.4      2.561      3.474
REMARK  4 active torsions:
REMARK  status: ('A' for Active; 'I' for Inactive)
REMARK    1  A    between atoms: C_2  and  C_3 
REMARK    2  A    between atoms: C_2  and  C_15 
REMARK    3  A    between atoms: C_3  and  N_4 
REMARK       I    between atoms: N_4  and  C_5 
REMARK       I    between atoms: C_5  and  N_7 
REMARK    4  A    between atoms: N_7  and  C_8 
ROOT
HETATM    1  N   UNL     1     -40.299 -51.248  13.184  1.00  0.00    -0.342 N 
HETATM    2  C   UNL     1     -40.718 -52.548  13.050  1.00  0.00     0.316 C 
HETATM    3  O   UNL     1     -40.336 -53.257  12.126  1.00  0.00    -0.247 OA
HETATM    4  N   UNL     1     -41.701 -52.918  13.932  1.00  0.00    -0.339 N 
HETATM    5  H   UNL     1     -40.241 -50.853  14.115  1.00  0.00     0.164 HD
HETATM    6  H   UNL     1     -41.784 -52.436  14.814  1.00  0.00     0.164 HD
ENDROOT
BRANCH   1   7
HETATM    7  C   UNL     1     -39.490 -50.695  12.109  1.00  0.00     0.135 C 
BRANCH   7   8
HETATM    8  C   UNL     1     -39.228 -49.184  12.097  1.00  0.00     0.057 C 
HETATM    9  C   UNL     1     -39.024 -48.627  13.506  1.00  0.00     0.018 C 
BRANCH   8  10
HETATM   10  C   UNL     1     -40.274 -48.410  11.337  1.00  0.00     0.056 A 
HETATM   11  N   UNL     1     -41.170 -48.943  10.531  1.00  0.00    -0.363 N 
HETATM   12  C   UNL     1     -42.029 -47.962  10.072  1.00  0.00     0.095 A 
ATOM     13  HN  UNL     1     -41.223 -49.930  10.283  1.00  0.00     0.165 HD
HETATM   14  C   UNL     1     -41.770 -46.685  10.517  1.00  0.00     0.068 A 
HETATM   15  S   UNL     1     -40.410 -46.702  11.556  1.00  0.00    -0.087 SA
ENDBRANCH   8  10
ENDBRANCH   7   8
ENDBRANCH   1   7
BRANCH   4  16
HETATM   16  C   UNL     1     -42.485 -54.132  13.664  1.00  0.00     0.086 C 
HETATM   17  C   UNL     1     -43.764 -53.794  12.884  1.00  0.00     0.026 C 
HETATM   18  C   UNL     1     -44.696 -52.952  13.747  1.00  0.00     0.006 C 
HETATM   19  C   UNL     1     -45.223 -53.756  14.933  1.00  0.00    -0.019 C 
HETATM   20  C   UNL     1     -46.295 -54.749  14.468  1.00  0.00     0.010 C 
HETATM   21  C   UNL     1     -44.077 -54.422  15.725  1.00  0.00     0.006 C 
HETATM   22  C   UNL     1     -42.869 -54.936  14.920  1.00  0.00     0.026 C 
ENDBRANCH   4  16
TORSDOF 4
ENDMDL
MODEL 8
REMARK VINA RESULT:      -5.3      1.903      2.816
REMARK  4 active torsions:
REMARK  status: ('A' for Active; 'I' for Inactive)
REMARK    1  A    between atoms: C_2  and  C_3 
REMARK    2  A    between atoms: C_2  and  C_15 
REMARK    3  A    between atoms: C_3  and  N_4 
REMARK       I    between atoms: N_4  and  C_5 
REMARK       I    between atoms: C_5  and  N_7 
REMARK    4  A    between atoms: N_7  and  C_8 
ROOT
HETATM    1  N   UNL     1     -43.240 -48.749  11.155  1.00  0.00    -0.342 N 
HETATM    2  C   UNL     1     -43.256 -49.272  12.425  1.00  0.00     0.316 C 
HETATM    3  O   UNL     1     -42.514 -48.851  13.305  1.00  0.00    -0.247 OA
HETATM    4  N   UNL     1     -44.045 -50.384  12.567  1.00  0.00    -0.339 N 
HETATM    5  H   UNL     1     -44.096 -48.767  10.615  1.00  0.00     0.164 HD
HETATM    6  H   UNL     1     -44.821 -50.526  11.939  1.00  0.00     0.164 HD
ENDROOT
BRANCH   1   7
HETATM    7  C   UNL     1     -42.210 -47.769  10.852  1.00  0.00     0.135 C 
BRANCH   7   8
HETATM    8  C   UNL     1     -42.644 -46.346  10.479  1.00  0.00     0.057 C 
HETATM    9  C   UNL     1     -43.254 -46.283   9.079  1.00  0.00     0.018 C 
BRANCH   8  10
HETATM   10  C   UNL     1     -41.547 -45.329  10.657  1.00  0.00     0.056 A 
HETATM   11  N   UNL     1     -40.324 -45.445  10.181  1.00  0.00    -0.363 N 
HETATM   12  C   UNL     1     -39.605 -44.295  10.448  1.00  0.00     0.095 A 
ATOM     13  HN  UNL     1     -39.962 -46.261   9.689  1.00  0.00     0.165 HD
HETATM   14  C   UNL     1     -40.280 -43.316  11.142  1.00  0.00     0.068 A 
HETATM   15  S   UNL     1     -41.877 -43.840  11.470  1.00  0.00    -0.087 SA
ENDBRANCH   8  10
ENDBRANCH   7   8
ENDBRANCH   1   7
BRANCH   4  16
HETATM   16  C   UNL     1     -43.868 -51.242  13.747  1.00  0.00     0.086 C 
HETATM   17  C   UNL     1     -43.251 -52.592  13.352  1.00  0.00     0.026 C 
HETATM   18  C   UNL     1     -44.226 -53.378  12.484  1.00  0.00     0.006 C 
HETATM   19  C   UNL     1     -45.463 -53.788  13.278  1.00  0.00    -0.019 C 
HETATM   20  C   UNL     1     -45.126 -54.948  14.225  1.00  0.00     0.010 C 
HETATM   21  C   UNL     1     -46.105 -52.583  13.996  1.00  0.00     0.006 C 
HETATM   22  C   UNL     1     -45.157 -51.502  14.549  1.00  0.00     0.026 C 
ENDBRANCH   4  16
TORSDOF 4
ENDMDL
MODEL 9
REMARK VINA RESULT:      -5.3      3.361      4.806
REMARK  4 active torsions:
REMARK  status: ('A' for Active; 'I' for Inactive)
REMARK    1  A    between atoms: C_2  and  C_3 
REMARK    2  A    between atoms: C_2  and  C_15 
REMARK    3  A    between atoms: C_3  and  N_4 
REMARK       I    between atoms: N_4  and  C_5 
REMARK       I    between atoms: C_5  and  N_7 
REMARK    4  A    between atoms: N_7  and  C_8 
ROOT
HETATM    1  N   UNL     1     -42.080 -53.252  14.076  1.00  0.00    -0.342 N 
HETATM    2  C   UNL     1     -43.155 -52.427  13.855  1.00  0.00     0.316 C 
HETATM    3  O   UNL     1     -43.293 -51.817  12.800  1.00  0.00    -0.247 OA
HETATM    4  N   UNL     1     -43.952 -52.231  14.953  1.00  0.00    -0.339 N 
HETATM    5  H   UNL     1     -42.201 -54.046  14.693  1.00  0.00     0.164 HD
HETATM    6  H   UNL     1     -43.978 -52.931  15.679  1.00  0.00     0.164 HD
ENDROOT
BRANCH   1   7
HETATM    7  C   UNL     1     -41.035 -53.269  13.065  1.00  0.00     0.135 C 
BRANCH   7   8
HETATM    8  C   UNL     1     -39.820 -52.354  13.257  1.00  0.00     0.057 C 
HETATM    9  C   UNL     1     -39.516 -52.108  14.735  1.00  0.00     0.018 C 
BRANCH   8  10
HETATM   10  C   UNL     1     -39.926 -51.063  12.487  1.00  0.00     0.056 A 
HETATM   11  N   UNL     1     -40.686 -50.876  11.426  1.00  0.00    -0.363 N 
HETATM   12  C   UNL     1     -40.614 -49.556  11.025  1.00  0.00     0.095 A 
ATOM     13  HN  UNL     1     -41.243 -51.598  10.970  1.00  0.00     0.165 HD
HETATM   14  C   UNL     1     -39.785 -48.748  11.772  1.00  0.00     0.068 A 
HETATM   15  S   UNL     1     -39.071 -49.663  13.030  1.00  0.00    -0.087 SA
ENDBRANCH   8  10
ENDBRANCH   7   8
ENDBRANCH   1   7
BRANCH   4  16
HETATM   16  C   UNL     1     -44.899 -51.107  14.961  1.00  0.00     0.086 C 
HETATM   17  C   UNL     1     -45.047 -50.529  16.376  1.00  0.00     0.026 C 
HETATM   18  C   UNL     1     -45.703 -51.553  17.294  1.00  0.00     0.006 C 
HETATM   19  C   UNL     1     -47.149 -51.815  16.881  1.00  0.00    -0.019 C 
HETATM   20  C   UNL     1     -48.041 -50.639  17.295  1.00  0.00     0.010 C 
HETATM   21  C   UNL     1     -47.259 -52.165  15.381  1.00  0.00     0.006 C 
HETATM   22  C   UNL     1     -46.298 -51.445  14.416  1.00  0.00     0.026 C 
ENDBRANCH   4  16
TORSDOF 4
ENDMDL
