MODEL 1
REMARK VINA RESULT:      -5.9      0.000      0.000
REMARK  5 active torsions:
REMARK  status: ('A' for Active; 'I' for Inactive)
REMARK    1  A    between atoms: C_10  and  N_11 
REMARK    2  A    between atoms: N_11  and  C_12 
REMARK    3  A    between atoms: C_12  and  C_13 
REMARK    4  A    between atoms: C_13  and  O_14 
REMARK    5  A    between atoms: O_14  and  C_15 
ROOT
HETATM    1  N   UNL     1     -41.612 -44.832  12.614  1.00  0.00    -0.190 NA
HETATM    2  C   UNL     1     -42.024 -45.448  11.718  1.00  0.00     0.121 C 
HETATM    3  C   UNL     1     -42.540 -46.239  10.639  1.00  0.00     0.158 A 
HETATM    4  N   UNL     1     -43.612 -45.680  10.000  1.00  0.00    -0.353 N 
ATOM      5  HN  UNL     1     -44.026 -44.798  10.303  1.00  0.00     0.166 HD
HETATM    6  C   UNL     1     -44.085 -46.372   8.946  1.00  0.00     0.106 A 
HETATM    7  C   UNL     1     -43.524 -47.567   8.543  1.00  0.00     0.106 A 
HETATM    8  N   UNL     1     -42.477 -48.132   9.188  1.00  0.00    -0.349 N 
ATOM      9  HN  UNL     1     -42.080 -49.021   8.882  1.00  0.00     0.167 HD
HETATM   10  C   UNL     1     -41.975 -47.468  10.259  1.00  0.00     0.139 A 
ENDROOT
BRANCH  10  11
HETATM   11  N   UNL     1     -40.894 -48.102  10.829  1.00  0.00    -0.372 N 
HETATM   12  H   UNL     1     -40.027 -47.713  10.462  1.00  0.00     0.161 HD
BRANCH  11  13
HETATM   13  C   UNL     1     -40.865 -49.539  11.082  1.00  0.00     0.147 C 
BRANCH  13  14
HETATM   14  C   UNL     1     -41.859 -49.926  12.187  1.00  0.00     0.187 C 
BRANCH  14  15
HETATM   15  O   UNL     1     -42.102 -51.331  12.133  1.00  0.00    -0.384 OA
BRANCH  15  16
HETATM   16  C   UNL     1     -43.111 -51.845  13.015  1.00  0.00     0.121 C 
HETATM   17  C   UNL     1     -43.729 -53.140  12.468  1.00  0.00     0.032 C 
HETATM   18  C   UNL     1     -44.478 -53.941  13.527  1.00  0.00     0.002 C 
HETATM   19  C   UNL     1     -45.936 -53.537  13.719  1.00  0.00     0.000 C 
HETATM   20  C   UNL     1     -46.249 -52.044  13.696  1.00  0.00     0.000 C 
HETATM   21  C   UNL     1     -45.205 -51.157  14.368  1.00  0.00     0.002 C 
HETATM   22  C   UNL     1     -44.098 -50.739  13.404  1.00  0.00     0.032 C 
ENDBRANCH  15  16
ENDBRANCH  14  15
ENDBRANCH  13  14
ENDBRANCH  11  13
ENDBRANCH  10  11
TORSDOF 5
ENDMDL
MODEL 2
REMARK VINA RESULT:      -5.9      2.513      4.052
REMARK  5 active torsions:
REMARK  status: ('A' for Active; 'I' for Inactive)
REMARK    1  A    between atoms: C_10  and  N_11 
REMARK    2  A    between atoms: N_11  and  C_12 
REMARK    3  A    between atoms: C_12  and  C_13 
REMARK    4  A    between atoms: C_13  and  O_14 
REMARK    5  A    between atoms: O_14  and  C_15 
ROOT
HETATM    1  N   UNL     1     -37.125 -51.323  12.357  1.00  0.00    -0.190 NA
HETATM    2  C   UNL     1     -38.051 -50.678  12.078  1.00  0.00     0.121 C 
HETATM    3  C   UNL     1     -39.214 -49.899  11.767  1.00  0.00     0.158 A 
HETATM    4  N   UNL     1     -39.002 -48.548  11.787  1.00  0.00    -0.353 N 
ATOM      5  HN  UNL     1     -38.101 -48.143  12.044  1.00  0.00     0.166 HD
HETATM    6  C   UNL     1     -40.060 -47.788  11.443  1.00  0.00     0.106 A 
HETATM    7  C   UNL     1     -41.277 -48.342  11.099  1.00  0.00     0.106 A 
HETATM    8  N   UNL     1     -41.494 -49.678  11.101  1.00  0.00    -0.349 N 
ATOM      9  HN  UNL     1     -42.403 -50.069  10.853  1.00  0.00     0.167 HD
HETATM   10  C   UNL     1     -40.453 -50.476  11.446  1.00  0.00     0.139 A 
ENDROOT
BRANCH  10  11
HETATM   11  N   UNL     1     -40.759 -51.817  11.389  1.00  0.00    -0.372 N 
HETATM   12  H   UNL     1     -41.235 -52.030  10.513  1.00  0.00     0.161 HD
BRANCH  11  13
HETATM   13  C   UNL     1     -41.237 -52.568  12.545  1.00  0.00     0.147 C 
BRANCH  13  14
HETATM   14  C   UNL     1     -42.739 -52.863  12.431  1.00  0.00     0.187 C 
BRANCH  14  15
HETATM   15  O   UNL     1     -43.479 -51.729  12.879  1.00  0.00    -0.384 OA
BRANCH  15  16
HETATM   16  C   UNL     1     -44.370 -51.936  13.986  1.00  0.00     0.121 C 
HETATM   17  C   UNL     1     -45.774 -51.392  13.687  1.00  0.00     0.032 C 
HETATM   18  C   UNL     1     -46.843 -51.945  14.623  1.00  0.00     0.002 C 
HETATM   19  C   UNL     1     -47.014 -51.170  15.925  1.00  0.00     0.000 C 
HETATM   20  C   UNL     1     -45.741 -50.684  16.613  1.00  0.00     0.000 C 
HETATM   21  C   UNL     1     -44.565 -51.653  16.549  1.00  0.00     0.002 C 
HETATM   22  C   UNL     1     -43.724 -51.457  15.291  1.00  0.00     0.032 C 
ENDBRANCH  15  16
ENDBRANCH  14  15
ENDBRANCH  13  14
ENDBRANCH  11  13
ENDBRANCH  10  11
TORSDOF 5
ENDMDL
MODEL 3
REMARK VINA RESULT:      -5.8      1.657      2.979
REMARK  5 active torsions:
REMARK  status: ('A' for Active; 'I' for Inactive)
REMARK    1  A    between atoms: C_10  and  N_11 
REMARK    2  A    between atoms: N_11  and  C_12 
REMARK    3  A    between atoms: C_12  and  C_13 
REMARK    4  A    between atoms: C_13  and  O_14 
REMARK    5  A    between atoms: O_14  and  C_15 
ROOT
HETATM    1  N   UNL     1     -37.876 -48.970  13.236  1.00  0.00    -0.190 NA
HETATM    2  C   UNL     1     -38.765 -48.619  12.576  1.00  0.00     0.121 C 
HETATM    3  C   UNL     1     -39.888 -48.208  11.783  1.00  0.00     0.158 A 
HETATM    4  N   UNL     1     -40.123 -46.861  11.805  1.00  0.00    -0.353 N 
ATOM      5  HN  UNL     1     -39.567 -46.221  12.373  1.00  0.00     0.166 HD
HETATM    6  C   UNL     1     -41.136 -46.436  11.026  1.00  0.00     0.106 A 
HETATM    7  C   UNL     1     -41.887 -47.306  10.261  1.00  0.00     0.106 A 
HETATM    8  N   UNL     1     -41.669 -48.642  10.257  1.00  0.00    -0.349 N 
ATOM      9  HN  UNL     1     -42.240 -49.272   9.693  1.00  0.00     0.167 HD
HETATM   10  C   UNL     1     -40.660 -49.110  11.033  1.00  0.00     0.139 A 
ENDROOT
BRANCH  10  11
HETATM   11  N   UNL     1     -40.495 -50.473  10.940  1.00  0.00    -0.372 N 
HETATM   12  H   UNL     1     -40.888 -50.814  10.063  1.00  0.00     0.161 HD
BRANCH  11  13
HETATM   13  C   UNL     1     -40.665 -51.369  12.079  1.00  0.00     0.147 C 
BRANCH  13  14
HETATM   14  C   UNL     1     -42.121 -51.375  12.565  1.00  0.00     0.187 C 
BRANCH  14  15
HETATM   15  O   UNL     1     -42.615 -52.714  12.564  1.00  0.00    -0.384 OA
BRANCH  15  16
HETATM   16  C   UNL     1     -44.011 -52.887  12.854  1.00  0.00     0.121 C 
HETATM   17  C   UNL     1     -44.598 -51.650  13.547  1.00  0.00     0.032 C 
HETATM   18  C   UNL     1     -46.121 -51.601  13.496  1.00  0.00     0.002 C 
HETATM   19  C   UNL     1     -46.822 -52.348  14.626  1.00  0.00     0.000 C 
HETATM   20  C   UNL     1     -46.231 -53.694  15.036  1.00  0.00     0.000 C 
HETATM   21  C   UNL     1     -45.707 -54.545  13.883  1.00  0.00     0.002 C 
HETATM   22  C   UNL     1     -44.251 -54.230  13.550  1.00  0.00     0.032 C 
ENDBRANCH  15  16
ENDBRANCH  14  15
ENDBRANCH  13  14
ENDBRANCH  11  13
ENDBRANCH  10  11
TORSDOF 5
ENDMDL
MODEL 4
REMARK VINA RESULT:      -5.6      2.699      4.007
REMARK  5 active torsions:
REMARK  status: ('A' for Active; 'I' for Inactive)
REMARK    1  A    between atoms: C_10  and  N_11 
REMARK    2  A    between atoms: N_11  and  C_12 
REMARK    3  A    between atoms: C_12  and  C_13 
REMARK    4  A    between atoms: C_13  and  O_14 
REMARK    5  A    between atoms: O_14  and  C_15 
ROOT
HETATM    1  N   UNL     1     -43.136 -48.674  12.665  1.00  0.00    -0.190 NA
HETATM    2  C   UNL     1     -42.022 -48.958  12.503  1.00  0.00     0.121 C 
HETATM    3  C   UNL     1     -40.653 -49.317  12.264  1.00  0.00     0.158 A 
HETATM    4  N   UNL     1     -39.760 -48.318  12.534  1.00  0.00    -0.353 N 
ATOM      5  HN  UNL     1     -40.057 -47.389  12.836  1.00  0.00     0.166 HD
HETATM    6  C   UNL     1     -38.462 -48.640  12.373  1.00  0.00     0.106 A 
HETATM    7  C   UNL     1     -38.065 -49.897  11.960  1.00  0.00     0.106 A 
HETATM    8  N   UNL     1     -38.951 -50.879  11.672  1.00  0.00    -0.349 N 
ATOM      9  HN  UNL     1     -38.640 -51.800  11.359  1.00  0.00     0.167 HD
HETATM   10  C   UNL     1     -40.268 -50.591  11.817  1.00  0.00     0.139 A 
ENDROOT
BRANCH  10  11
HETATM   11  N   UNL     1     -41.088 -51.659  11.532  1.00  0.00    -0.372 N 
HETATM   12  H   UNL     1     -42.045 -51.337  11.390  1.00  0.00     0.161 HD
BRANCH  11  13
HETATM   13  C   UNL     1     -40.968 -52.949  12.205  1.00  0.00     0.147 C 
BRANCH  13  14
HETATM   14  C   UNL     1     -42.275 -53.326  12.915  1.00  0.00     0.187 C 
BRANCH  14  15
HETATM   15  O   UNL     1     -43.378 -52.769  12.202  1.00  0.00    -0.384 OA
BRANCH  15  16
HETATM   16  C   UNL     1     -44.667 -52.870  12.826  1.00  0.00     0.121 C 
HETATM   17  C   UNL     1     -45.106 -51.530  13.432  1.00  0.00     0.032 C 
HETATM   18  C   UNL     1     -46.601 -51.464  13.723  1.00  0.00     0.002 C 
HETATM   19  C   UNL     1     -47.010 -52.011  15.087  1.00  0.00     0.000 C 
HETATM   20  C   UNL     1     -46.315 -53.285  15.558  1.00  0.00     0.000 C 
HETATM   21  C   UNL     1     -46.051 -54.316  14.465  1.00  0.00     0.002 C 
HETATM   22  C   UNL     1     -44.716 -54.083  13.763  1.00  0.00     0.032 C 
ENDBRANCH  15  16
ENDBRANCH  14  15
ENDBRANCH  13  14
ENDBRANCH  11  13
ENDBRANCH  10  11
TORSDOF 5
ENDMDL
MODEL 5
REMARK VINA RESULT:      -5.6      1.628      2.267
REMARK  5 active torsions:
REMARK  status: ('A' for Active; 'I' for Inactive)
REMARK    1  A    between atoms: C_10  and  N_11 
REMARK    2  A    between atoms: N_11  and  C_12 
REMARK    3  A    between atoms: C_12  and  C_13 
REMARK    4  A    between atoms: C_13  and  O_14 
REMARK    5  A    between atoms: O_14  and  C_15 
ROOT
HETATM    1  N   UNL     1     -42.426 -46.043  13.420  1.00  0.00    -0.190 NA
HETATM    2  C   UNL     1     -42.629 -46.292  12.304  1.00  0.00     0.121 C 
HETATM    3  C   UNL     1     -42.907 -46.628  10.937  1.00  0.00     0.158 A 
HETATM    4  N   UNL     1     -43.415 -45.593  10.201  1.00  0.00    -0.353 N 
ATOM      5  HN  UNL     1     -43.615 -44.680  10.611  1.00  0.00     0.166 HD
HETATM    6  C   UNL     1     -43.634 -45.860   8.899  1.00  0.00     0.106 A 
HETATM    7  C   UNL     1     -43.366 -47.098   8.350  1.00  0.00     0.106 A 
HETATM    8  N   UNL     1     -42.884 -48.129   9.084  1.00  0.00    -0.349 N 
ATOM      9  HN  UNL     1     -42.701 -49.040   8.663  1.00  0.00     0.167 HD
HETATM   10  C   UNL     1     -42.655 -47.901  10.401  1.00  0.00     0.139 A 
ENDROOT
BRANCH  10  11
HETATM   11  N   UNL     1     -42.138 -48.995  11.056  1.00  0.00    -0.372 N 
HETATM   12  H   UNL     1     -42.776 -49.296  11.791  1.00  0.00     0.161 HD
BRANCH  11  13
HETATM   13  C   UNL     1     -40.721 -49.123  11.381  1.00  0.00     0.147 C 
BRANCH  13  14
HETATM   14  C   UNL     1     -40.463 -50.365  12.247  1.00  0.00     0.187 C 
BRANCH  14  15
HETATM   15  O   UNL     1     -40.686 -51.539  11.467  1.00  0.00    -0.384 OA
BRANCH  15  16
HETATM   16  C   UNL     1     -41.281 -52.658  12.142  1.00  0.00     0.121 C 
HETATM   17  C   UNL     1     -42.762 -52.401  12.457  1.00  0.00     0.032 C 
HETATM   18  C   UNL     1     -43.535 -53.675  12.778  1.00  0.00     0.002 C 
HETATM   19  C   UNL     1     -43.482 -54.103  14.242  1.00  0.00     0.000 C 
HETATM   20  C   UNL     1     -42.139 -53.965  14.953  1.00  0.00     0.000 C 
HETATM   21  C   UNL     1     -40.921 -54.307  14.102  1.00  0.00     0.002 C 
HETATM   22  C   UNL     1     -40.407 -53.100  13.320  1.00  0.00     0.032 C 
ENDBRANCH  15  16
ENDBRANCH  14  15
ENDBRANCH  13  14
ENDBRANCH  11  13
ENDBRANCH  10  11
TORSDOF 5
ENDMDL
MODEL 6
REMARK VINA RESULT:      -5.6      0.875      1.602
REMARK  5 active torsions:
REMARK  status: ('A' for Active; 'I' for Inactive)
REMARK    1  A    between atoms: C_10  and  N_11 
REMARK    2  A    between atoms: N_11  and  C_12 
REMARK    3  A    between atoms: C_12  and  C_13 
REMARK    4  A    between atoms: C_13  and  O_14 
REMARK    5  A    between atoms: O_14  and  C_15 
ROOT
HETATM    1  N   UNL     1     -41.255 -45.962  13.620  1.00  0.00    -0.190 NA
HETATM    2  C   UNL     1     -41.637 -46.336  12.589  1.00  0.00     0.121 C 
HETATM    3  C   UNL     1     -42.119 -46.834  11.333  1.00  0.00     0.158 A 
HETATM    4  N   UNL     1     -43.156 -46.114  10.808  1.00  0.00    -0.353 N 
ATOM      5  HN  UNL     1     -43.570 -45.320  11.298  1.00  0.00     0.166 HD
HETATM    6  C   UNL     1     -43.594 -46.522   9.601  1.00  0.00     0.106 A 
HETATM    7  C   UNL     1     -43.033 -47.598   8.944  1.00  0.00     0.106 A 
HETATM    8  N   UNL     1     -42.021 -48.325   9.474  1.00  0.00    -0.349 N 
ATOM      9  HN  UNL     1     -41.625 -49.124   8.977  1.00  0.00     0.167 HD
HETATM   10  C   UNL     1     -41.556 -47.949  10.690  1.00  0.00     0.139 A 
ENDROOT
BRANCH  10  11
HETATM   11  N   UNL     1     -40.509 -48.726  11.131  1.00  0.00    -0.372 N 
HETATM   12  H   UNL     1     -39.651 -48.465  10.647  1.00  0.00     0.161 HD
BRANCH  11  13
HETATM   13  C   UNL     1     -40.646 -50.152  11.411  1.00  0.00     0.147 C 
BRANCH  13  14
HETATM   14  C   UNL     1     -41.785 -50.412  12.407  1.00  0.00     0.187 C 
BRANCH  14  15
HETATM   15  O   UNL     1     -42.012 -51.817  12.508  1.00  0.00    -0.384 OA
BRANCH  15  16
HETATM   16  C   UNL     1     -43.378 -52.243  12.631  1.00  0.00     0.121 C 
HETATM   17  C   UNL     1     -44.224 -51.208  13.386  1.00  0.00     0.032 C 
HETATM   18  C   UNL     1     -45.723 -51.396  13.183  1.00  0.00     0.002 C 
HETATM   19  C   UNL     1     -46.380 -52.375  14.149  1.00  0.00     0.000 C 
HETATM   20  C   UNL     1     -45.607 -53.650  14.474  1.00  0.00     0.000 C 
HETATM   21  C   UNL     1     -44.851 -54.261  13.299  1.00  0.00     0.002 C 
HETATM   22  C   UNL     1     -43.446 -53.682  13.154  1.00  0.00     0.032 C 
ENDBRANCH  15  16
ENDBRANCH  14  15
ENDBRANCH  13  14
ENDBRANCH  11  13
ENDBRANCH  10  11
TORSDOF 5
ENDMDL
MODEL 7
REMARK VINA RESULT:      -5.5      3.262      7.232
REMARK  5 active torsions:
REMARK  status: ('A' for Active; 'I' for Inactive)
REMARK    1  A    between atoms: C_10  and  N_11 
REMARK    2  A    between atoms: N_11  and  C_12 
REMARK    3  A    between atoms: C_12  and  C_13 
REMARK    4  A    between atoms: C_13  and  O_14 
REMARK    5  A    between atoms: O_14  and  C_15 
ROOT
HETATM    1  N   UNL     1     -38.952 -53.836  13.816  1.00  0.00    -0.190 NA
HETATM    2  C   UNL     1     -40.066 -53.705  13.514  1.00  0.00     0.121 C 
HETATM    3  C   UNL     1     -41.433 -53.556  13.103  1.00  0.00     0.158 A 
HETATM    4  N   UNL     1     -42.312 -54.344  13.794  1.00  0.00    -0.353 N 
ATOM      5  HN  UNL     1     -42.004 -55.007  14.506  1.00  0.00     0.166 HD
HETATM    6  C   UNL     1     -43.610 -54.186  13.471  1.00  0.00     0.106 A 
HETATM    7  C   UNL     1     -44.020 -53.290  12.504  1.00  0.00     0.106 A 
HETATM    8  N   UNL     1     -43.148 -52.526  11.805  1.00  0.00    -0.349 N 
ATOM      9  HN  UNL     1     -43.469 -51.875  11.087  1.00  0.00     0.167 HD
HETATM   10  C   UNL     1     -41.831 -52.660  12.098  1.00  0.00     0.139 A 
ENDROOT
BRANCH  10  11
HETATM   11  N   UNL     1     -41.026 -51.822  11.360  1.00  0.00    -0.372 N 
HETATM   12  H   UNL     1     -40.355 -52.367  10.821  1.00  0.00     0.161 HD
BRANCH  11  13
HETATM   13  C   UNL     1     -40.515 -50.558  11.881  1.00  0.00     0.147 C 
BRANCH  13  14
HETATM   14  C   UNL     1     -41.572 -49.450  11.779  1.00  0.00     0.187 C 
BRANCH  14  15
HETATM   15  O   UNL     1     -41.313 -48.654  10.623  1.00  0.00    -0.384 OA
BRANCH  15  16
HETATM   16  C   UNL     1     -41.330 -47.229  10.804  1.00  0.00     0.121 C 
HETATM   17  C   UNL     1     -39.909 -46.661  10.927  1.00  0.00     0.032 C 
HETATM   18  C   UNL     1     -39.845 -45.155  10.698  1.00  0.00     0.002 C 
HETATM   19  C   UNL     1     -40.099 -44.309  11.941  1.00  0.00     0.000 C 
HETATM   20  C   UNL     1     -41.211 -44.773  12.878  1.00  0.00     0.000 C 
HETATM   21  C   UNL     1     -42.442 -45.344  12.182  1.00  0.00     0.002 C 
HETATM   22  C   UNL     1     -42.311 -46.842  11.916  1.00  0.00     0.032 C 
ENDBRANCH  15  16
ENDBRANCH  14  15
ENDBRANCH  13  14
ENDBRANCH  11  13
ENDBRANCH  10  11
TORSDOF 5
ENDMDL
MODEL 8
REMARK VINA RESULT:      -5.3      2.931      4.827
REMARK  5 active torsions:
REMARK  status: ('A' for Active; 'I' for Inactive)
REMARK    1  A    between atoms: C_10  and  N_11 
REMARK    2  A    between atoms: N_11  and  C_12 
REMARK    3  A    between atoms: C_12  and  C_13 
REMARK    4  A    between atoms: C_13  and  O_14 
REMARK    5  A    between atoms: O_14  and  C_15 
ROOT
HETATM    1  N   UNL     1     -37.037 -51.598  12.469  1.00  0.00    -0.190 NA
HETATM    2  C   UNL     1     -37.433 -50.550  12.776  1.00  0.00     0.121 C 
HETATM    3  C   UNL     1     -37.959 -49.271  13.158  1.00  0.00     0.158 A 
HETATM    4  N   UNL     1     -37.398 -48.754  14.293  1.00  0.00    -0.353 N 
ATOM      5  HN  UNL     1     -36.698 -49.262  14.835  1.00  0.00     0.166 HD
HETATM    6  C   UNL     1     -37.830 -47.528  14.648  1.00  0.00     0.106 A 
HETATM    7  C   UNL     1     -38.779 -46.845  13.913  1.00  0.00     0.106 A 
HETATM    8  N   UNL     1     -39.351 -47.367  12.803  1.00  0.00    -0.349 N 
ATOM      9  HN  UNL     1     -40.058 -46.852  12.277  1.00  0.00     0.167 HD
HETATM   10  C   UNL     1     -38.946 -48.602  12.416  1.00  0.00     0.139 A 
ENDROOT
BRANCH  10  11
HETATM   11  N   UNL     1     -39.558 -49.034  11.261  1.00  0.00    -0.372 N 
HETATM   12  H   UNL     1     -39.316 -48.419  10.486  1.00  0.00     0.161 HD
BRANCH  11  13
HETATM   13  C   UNL     1     -40.925 -49.545  11.236  1.00  0.00     0.147 C 
BRANCH  13  14
HETATM   14  C   UNL     1     -40.991 -50.974  11.792  1.00  0.00     0.187 C 
BRANCH  14  15
HETATM   15  O   UNL     1     -42.271 -51.192  12.384  1.00  0.00    -0.384 OA
BRANCH  15  16
HETATM   16  C   UNL     1     -42.603 -52.548  12.724  1.00  0.00     0.121 C 
HETATM   17  C   UNL     1     -44.117 -52.728  12.900  1.00  0.00     0.032 C 
HETATM   18  C   UNL     1     -44.557 -54.187  12.841  1.00  0.00     0.002 C 
HETATM   19  C   UNL     1     -44.493 -54.927  14.173  1.00  0.00     0.000 C 
HETATM   20  C   UNL     1     -43.282 -54.653  15.059  1.00  0.00     0.000 C 
HETATM   21  C   UNL     1     -41.962 -54.485  14.312  1.00  0.00     0.002 C 
HETATM   22  C   UNL     1     -41.724 -53.041  13.878  1.00  0.00     0.032 C 
ENDBRANCH  15  16
ENDBRANCH  14  15
ENDBRANCH  13  14
ENDBRANCH  11  13
ENDBRANCH  10  11
TORSDOF 5
ENDMDL
MODEL 9
REMARK VINA RESULT:      -5.3      4.049      5.138
REMARK  5 active torsions:
REMARK  status: ('A' for Active; 'I' for Inactive)
REMARK    1  A    between atoms: C_10  and  N_11 
REMARK    2  A    between atoms: N_11  and  C_12 
REMARK    3  A    between atoms: C_12  and  C_13 
REMARK    4  A    between atoms: C_13  and  O_14 
REMARK    5  A    between atoms: O_14  and  C_15 
ROOT
HETATM    1  N   UNL     1     -38.591 -51.788  16.443  1.00  0.00    -0.190 NA
HETATM    2  C   UNL     1     -38.603 -51.355  15.365  1.00  0.00     0.121 C 
HETATM    3  C   UNL     1     -38.659 -50.812  14.038  1.00  0.00     0.158 A 
HETATM    4  N   UNL     1     -37.832 -49.741  13.839  1.00  0.00    -0.353 N 
ATOM      5  HN  UNL     1     -37.263 -49.346  14.588  1.00  0.00     0.166 HD
HETATM    6  C   UNL     1     -37.819 -49.243  12.587  1.00  0.00     0.106 A 
HETATM    7  C   UNL     1     -38.593 -49.779  11.578  1.00  0.00     0.106 A 
HETATM    8  N   UNL     1     -39.428 -50.825  11.780  1.00  0.00    -0.349 N 
ATOM      9  HN  UNL     1     -40.000 -51.202  11.024  1.00  0.00     0.167 HD
HETATM   10  C   UNL     1     -39.474 -51.351  13.029  1.00  0.00     0.139 A 
ENDROOT
BRANCH  10  11
HETATM   11  N   UNL     1     -40.325 -52.428  13.130  1.00  0.00    -0.372 N 
HETATM   12  H   UNL     1     -39.837 -53.222  13.544  1.00  0.00     0.161 HD
BRANCH  11  13
HETATM   13  C   UNL     1     -41.288 -52.773  12.090  1.00  0.00     0.147 C 
BRANCH  13  14
HETATM   14  C   UNL     1     -42.691 -52.261  12.443  1.00  0.00     0.187 C 
BRANCH  14  15
HETATM   15  O   UNL     1     -43.637 -53.316  12.270  1.00  0.00    -0.384 OA
BRANCH  15  16
HETATM   16  C   UNL     1     -44.896 -53.171  12.944  1.00  0.00     0.121 C 
HETATM   17  C   UNL     1     -45.102 -51.735  13.448  1.00  0.00     0.032 C 
HETATM   18  C   UNL     1     -46.555 -51.421  13.784  1.00  0.00     0.002 C 
HETATM   19  C   UNL     1     -46.976 -51.789  15.203  1.00  0.00     0.000 C 
HETATM   20  C   UNL     1     -46.457 -53.113  15.757  1.00  0.00     0.000 C 
HETATM   21  C   UNL     1     -46.401 -54.255  14.747  1.00  0.00     0.002 C 
HETATM   22  C   UNL     1     -45.080 -54.284  13.982  1.00  0.00     0.032 C 
ENDBRANCH  15  16
ENDBRANCH  14  15
ENDBRANCH  13  14
ENDBRANCH  11  13
ENDBRANCH  10  11
TORSDOF 5
ENDMDL
