MODEL 1
REMARK VINA RESULT:      -5.8      0.000      0.000
REMARK  4 active torsions:
REMARK  status: ('A' for Active; 'I' for Inactive)
REMARK    1  A    between atoms: C_2  and  C_3 
REMARK    2  A    between atoms: C_2  and  N_10 
REMARK    3  A    between atoms: C_3  and  N_4 
REMARK       I    between atoms: N_10  and  C_11 
REMARK    4  A    between atoms: C_11  and  C_13 
ROOT
HETATM    1  N   UNL     1     -41.872 -50.373  11.889  1.00  0.00    -0.355 N 
HETATM    2  C   UNL     1     -42.676 -51.201  12.647  1.00  0.00     0.222 C 
HETATM    3  O   UNL     1     -43.468 -50.787  13.485  1.00  0.00    -0.273 OA
HETATM    4  H   UNL     1     -41.306 -50.776  11.148  1.00  0.00     0.162 HD
ENDROOT
BRANCH   1   5
HETATM    5  C   UNL     1     -41.948 -48.914  11.972  1.00  0.00     0.100 C 
HETATM    6  C   UNL     1     -40.995 -48.416  13.061  1.00  0.00     0.034 C 
BRANCH   5   7
HETATM    7  C   UNL     1     -41.611 -48.226  10.643  1.00  0.00     0.172 C 
BRANCH   7   8
HETATM    8  N   UNL     1     -42.785 -47.917   9.846  1.00  0.00    -0.302 N 
HETATM    9  C   UNL     1     -43.990 -47.463  10.297  1.00  0.00     0.111 A 
HETATM   10  C   UNL     1     -44.766 -47.268   9.178  1.00  0.00     0.037 A 
HETATM   11  C   UNL     1     -43.935 -47.626   8.101  1.00  0.00     0.108 A 
HETATM   12  N   UNL     1     -42.726 -48.029   8.502  1.00  0.00    -0.310 N 
ATOM     13  HN  UNL     1     -41.943 -48.346   7.928  1.00  0.00     0.186 HD
ENDBRANCH   7   8
ENDBRANCH   5   7
ENDBRANCH   1   5
BRANCH   2  14
HETATM   14  C   UNL     1     -42.479 -52.680  12.352  1.00  0.00     0.088 C 
HETATM   15  C   UNL     1     -43.130 -53.597  13.388  1.00  0.00     0.034 C 
HETATM   16  C   UNL     1     -42.275 -53.788  14.632  1.00  0.00     0.126 C 
HETATM   17  N   UNL     1     -40.905 -54.139  14.300  1.00  0.00    -0.356 N 
HETATM   18  C   UNL     1     -40.106 -54.764  15.338  1.00  0.00     0.152 C 
HETATM   19  C   UNL     1     -40.232 -53.301  13.414  1.00  0.00     0.220 C 
HETATM   20  O   UNL     1     -39.053 -52.982  13.539  1.00  0.00    -0.273 OA
HETATM   21  C   UNL     1     -41.001 -52.985  12.147  1.00  0.00     0.117 C 
ENDBRANCH   2  14
TORSDOF 4
ENDMDL
MODEL 2
REMARK VINA RESULT:      -5.7      2.392      4.369
REMARK  4 active torsions:
REMARK  status: ('A' for Active; 'I' for Inactive)
REMARK    1  A    between atoms: C_2  and  C_3 
REMARK    2  A    between atoms: C_2  and  N_10 
REMARK    3  A    between atoms: C_3  and  N_4 
REMARK       I    between atoms: N_10  and  C_11 
REMARK    4  A    between atoms: C_11  and  C_13 
ROOT
HETATM    1  N   UNL     1     -42.708 -49.192  12.042  1.00  0.00    -0.355 N 
HETATM    2  C   UNL     1     -42.540 -50.450  12.588  1.00  0.00     0.222 C 
HETATM    3  O   UNL     1     -41.726 -51.263  12.169  1.00  0.00    -0.273 OA
HETATM    4  H   UNL     1     -43.335 -48.535  12.498  1.00  0.00     0.162 HD
ENDROOT
BRANCH   1   5
HETATM    5  C   UNL     1     -41.870 -48.693  10.952  1.00  0.00     0.100 C 
HETATM    6  C   UNL     1     -42.717 -47.836  10.009  1.00  0.00     0.034 C 
BRANCH   5   7
HETATM    7  C   UNL     1     -40.673 -47.872  11.452  1.00  0.00     0.172 C 
BRANCH   7   8
HETATM    8  N   UNL     1     -39.529 -48.691  11.809  1.00  0.00    -0.302 N 
HETATM    9  C   UNL     1     -38.722 -48.548  12.900  1.00  0.00     0.111 A 
HETATM   10  C   UNL     1     -37.814 -49.579  12.840  1.00  0.00     0.037 A 
HETATM   11  C   UNL     1     -38.162 -50.293  11.679  1.00  0.00     0.108 A 
HETATM   12  N   UNL     1     -39.204 -49.754  11.041  1.00  0.00    -0.310 N 
ATOM     13  HN  UNL     1     -39.649 -50.069  10.179  1.00  0.00     0.186 HD
ENDBRANCH   7   8
ENDBRANCH   5   7
ENDBRANCH   1   5
BRANCH   2  14
HETATM   14  C   UNL     1     -43.473 -50.737  13.755  1.00  0.00     0.088 C 
HETATM   15  C   UNL     1     -42.930 -51.792  14.719  1.00  0.00     0.034 C 
HETATM   16  C   UNL     1     -43.178 -53.216  14.243  1.00  0.00     0.126 C 
HETATM   17  N   UNL     1     -44.561 -53.422  13.848  1.00  0.00    -0.356 N 
HETATM   18  C   UNL     1     -45.042 -54.790  13.792  1.00  0.00     0.152 C 
HETATM   19  C   UNL     1     -45.094 -52.535  12.916  1.00  0.00     0.220 C 
HETATM   20  O   UNL     1     -45.839 -52.873  12.001  1.00  0.00    -0.273 OA
HETATM   21  C   UNL     1     -44.868 -51.073  13.246  1.00  0.00     0.117 C 
ENDBRANCH   2  14
TORSDOF 4
ENDMDL
MODEL 3
REMARK VINA RESULT:      -5.7      2.861      3.638
REMARK  4 active torsions:
REMARK  status: ('A' for Active; 'I' for Inactive)
REMARK    1  A    between atoms: C_2  and  C_3 
REMARK    2  A    between atoms: C_2  and  N_10 
REMARK    3  A    between atoms: C_3  and  N_4 
REMARK       I    between atoms: N_10  and  C_11 
REMARK    4  A    between atoms: C_11  and  C_13 
ROOT
HETATM    1  N   UNL     1     -41.496 -47.973  10.252  1.00  0.00    -0.355 N 
HETATM    2  C   UNL     1     -41.478 -48.968  11.211  1.00  0.00     0.222 C 
HETATM    3  O   UNL     1     -42.424 -49.205  11.952  1.00  0.00    -0.273 OA
HETATM    4  H   UNL     1     -40.714 -47.892   9.610  1.00  0.00     0.162 HD
ENDROOT
BRANCH   1   5
HETATM    5  C   UNL     1     -42.683 -47.158   9.990  1.00  0.00     0.100 C 
HETATM    6  C   UNL     1     -42.342 -45.681  10.198  1.00  0.00     0.034 C 
BRANCH   5   7
HETATM    7  C   UNL     1     -43.240 -47.360   8.575  1.00  0.00     0.172 C 
BRANCH   7   8
HETATM    8  N   UNL     1     -44.623 -47.802   8.564  1.00  0.00    -0.302 N 
HETATM    9  C   UNL     1     -45.580 -47.533   9.498  1.00  0.00     0.111 A 
HETATM   10  C   UNL     1     -46.738 -48.115   9.036  1.00  0.00     0.037 A 
HETATM   11  C   UNL     1     -46.376 -48.704   7.811  1.00  0.00     0.108 A 
HETATM   12  N   UNL     1     -45.085 -48.522   7.519  1.00  0.00    -0.310 N 
ATOM     13  HN  UNL     1     -44.570 -48.849   6.701  1.00  0.00     0.186 HD
ENDBRANCH   7   8
ENDBRANCH   5   7
ENDBRANCH   1   5
BRANCH   2  14
HETATM   14  C   UNL     1     -40.166 -49.735  11.269  1.00  0.00     0.088 C 
HETATM   15  C   UNL     1     -40.245 -51.006  12.115  1.00  0.00     0.034 C 
HETATM   16  C   UNL     1     -40.089 -50.738  13.604  1.00  0.00     0.126 C 
HETATM   17  N   UNL     1     -38.935 -49.901  13.887  1.00  0.00    -0.356 N 
HETATM   18  C   UNL     1     -38.414 -49.920  15.242  1.00  0.00     0.152 C 
HETATM   19  C   UNL     1     -38.843 -48.695  13.199  1.00  0.00     0.220 C 
HETATM   20  O   UNL     1     -38.462 -47.645  13.711  1.00  0.00    -0.273 OA
HETATM   21  C   UNL     1     -39.034 -48.813  11.701  1.00  0.00     0.117 C 
ENDBRANCH   2  14
TORSDOF 4
ENDMDL
MODEL 4
REMARK VINA RESULT:      -5.5      3.336      5.253
REMARK  4 active torsions:
REMARK  status: ('A' for Active; 'I' for Inactive)
REMARK    1  A    between atoms: C_2  and  C_3 
REMARK    2  A    between atoms: C_2  and  N_10 
REMARK    3  A    between atoms: C_3  and  N_4 
REMARK       I    between atoms: N_10  and  C_11 
REMARK    4  A    between atoms: C_11  and  C_13 
ROOT
HETATM    1  N   UNL     1     -43.144 -52.118  12.457  1.00  0.00    -0.355 N 
HETATM    2  C   UNL     1     -43.727 -53.180  13.121  1.00  0.00     0.222 C 
HETATM    3  O   UNL     1     -43.092 -53.988  13.787  1.00  0.00    -0.273 OA
HETATM    4  H   UNL     1     -43.739 -51.434  12.000  1.00  0.00     0.162 HD
ENDROOT
BRANCH   1   5
HETATM    5  C   UNL     1     -41.714 -51.824  12.552  1.00  0.00     0.100 C 
HETATM    6  C   UNL     1     -40.919 -52.923  11.843  1.00  0.00     0.034 C 
BRANCH   5   7
HETATM    7  C   UNL     1     -41.348 -50.460  11.952  1.00  0.00     0.172 C 
BRANCH   7   8
HETATM    8  N   UNL     1     -39.939 -50.136  12.089  1.00  0.00    -0.302 N 
HETATM    9  C   UNL     1     -39.234 -50.004  13.249  1.00  0.00     0.111 A 
HETATM   10  C   UNL     1     -37.935 -49.746  12.878  1.00  0.00     0.037 A 
HETATM   11  C   UNL     1     -37.959 -49.749  11.471  1.00  0.00     0.108 A 
HETATM   12  N   UNL     1     -39.180 -49.981  10.982  1.00  0.00    -0.310 N 
ATOM     13  HN  UNL     1     -39.471 -50.030  10.005  1.00  0.00     0.186 HD
ENDBRANCH   7   8
ENDBRANCH   5   7
ENDBRANCH   1   5
BRANCH   2  14
HETATM   14  C   UNL     1     -45.235 -53.260  12.938  1.00  0.00     0.088 C 
HETATM   15  C   UNL     1     -45.919 -51.893  12.951  1.00  0.00     0.034 C 
HETATM   16  C   UNL     1     -46.175 -51.371  14.357  1.00  0.00     0.126 C 
HETATM   17  N   UNL     1     -46.813 -52.368  15.199  1.00  0.00    -0.356 N 
HETATM   18  C   UNL     1     -47.498 -51.898  16.389  1.00  0.00     0.152 C 
HETATM   19  C   UNL     1     -46.198 -53.614  15.284  1.00  0.00     0.220 C 
HETATM   20  O   UNL     1     -46.108 -54.260  16.325  1.00  0.00    -0.273 OA
HETATM   21  C   UNL     1     -45.839 -54.227  13.946  1.00  0.00     0.117 C 
ENDBRANCH   2  14
TORSDOF 4
ENDMDL
MODEL 5
REMARK VINA RESULT:      -5.5      3.580      5.504
REMARK  4 active torsions:
REMARK  status: ('A' for Active; 'I' for Inactive)
REMARK    1  A    between atoms: C_2  and  C_3 
REMARK    2  A    between atoms: C_2  and  N_10 
REMARK    3  A    between atoms: C_3  and  N_4 
REMARK       I    between atoms: N_10  and  C_11 
REMARK    4  A    between atoms: C_11  and  C_13 
ROOT
HETATM    1  N   UNL     1     -42.030 -52.705  13.603  1.00  0.00    -0.355 N 
HETATM    2  C   UNL     1     -40.650 -52.711  13.539  1.00  0.00     0.222 C 
HETATM    3  O   UNL     1     -39.996 -53.688  13.197  1.00  0.00    -0.273 OA
HETATM    4  H   UNL     1     -42.512 -51.834  13.805  1.00  0.00     0.162 HD
ENDROOT
BRANCH   1   5
HETATM    5  C   UNL     1     -42.838 -53.854  13.195  1.00  0.00     0.100 C 
HETATM    6  C   UNL     1     -43.248 -54.654  14.433  1.00  0.00     0.034 C 
BRANCH   5   7
HETATM    7  C   UNL     1     -44.093 -53.447  12.410  1.00  0.00     0.172 C 
BRANCH   7   8
HETATM    8  N   UNL     1     -45.125 -52.863  13.247  1.00  0.00    -0.302 N 
HETATM    9  C   UNL     1     -45.197 -51.572  13.684  1.00  0.00     0.111 A 
HETATM   10  C   UNL     1     -46.370 -51.477  14.397  1.00  0.00     0.037 A 
HETATM   11  C   UNL     1     -46.936 -52.763  14.326  1.00  0.00     0.108 A 
HETATM   12  N   UNL     1     -46.179 -53.616  13.630  1.00  0.00    -0.310 N 
ATOM     13  HN  UNL     1     -46.354 -54.602  13.434  1.00  0.00     0.186 HD
ENDBRANCH   7   8
ENDBRANCH   5   7
ENDBRANCH   1   5
BRANCH   2  14
HETATM   14  C   UNL     1     -40.015 -51.390  13.948  1.00  0.00     0.088 C 
HETATM   15  C   UNL     1     -40.460 -50.212  13.081  1.00  0.00     0.034 C 
HETATM   16  C   UNL     1     -39.690 -50.113  11.773  1.00  0.00     0.126 C 
HETATM   17  N   UNL     1     -38.255 -50.194  11.980  1.00  0.00    -0.356 N 
HETATM   18  C   UNL     1     -37.398 -49.691  10.922  1.00  0.00     0.152 C 
HETATM   19  C   UNL     1     -37.779 -51.285  12.703  1.00  0.00     0.220 C 
HETATM   20  O   UNL     1     -36.754 -51.898  12.417  1.00  0.00    -0.273 OA
HETATM   21  C   UNL     1     -38.501 -51.529  14.013  1.00  0.00     0.117 C 
ENDBRANCH   2  14
TORSDOF 4
ENDMDL
MODEL 6
REMARK VINA RESULT:      -5.4      2.699      3.610
REMARK  4 active torsions:
REMARK  status: ('A' for Active; 'I' for Inactive)
REMARK    1  A    between atoms: C_2  and  C_3 
REMARK    2  A    between atoms: C_2  and  N_10 
REMARK    3  A    between atoms: C_3  and  N_4 
REMARK       I    between atoms: N_10  and  C_11 
REMARK    4  A    between atoms: C_11  and  C_13 
ROOT
HETATM    1  N   UNL     1     -42.703 -48.721  10.842  1.00  0.00    -0.355 N 
HETATM    2  C   UNL     1     -41.568 -49.213  11.456  1.00  0.00     0.222 C 
HETATM    3  O   UNL     1     -40.452 -48.735  11.291  1.00  0.00    -0.273 OA
HETATM    4  H   UNL     1     -43.609 -49.106  11.095  1.00  0.00     0.162 HD
ENDROOT
BRANCH   1   5
HETATM    5  C   UNL     1     -42.681 -47.531   9.991  1.00  0.00     0.100 C 
HETATM    6  C   UNL     1     -43.849 -47.588   9.004  1.00  0.00     0.034 C 
BRANCH   5   7
HETATM    7  C   UNL     1     -42.755 -46.226  10.795  1.00  0.00     0.172 C 
BRANCH   7   8
HETATM    8  N   UNL     1     -41.551 -45.421  10.689  1.00  0.00    -0.302 N 
HETATM    9  C   UNL     1     -41.359 -44.159  11.170  1.00  0.00     0.111 A 
HETATM   10  C   UNL     1     -40.055 -43.834  10.876  1.00  0.00     0.037 A 
HETATM   11  C   UNL     1     -39.543 -44.971  10.224  1.00  0.00     0.108 A 
HETATM   12  N   UNL     1     -40.452 -45.942  10.101  1.00  0.00    -0.310 N 
ATOM     13  HN  UNL     1     -40.342 -46.858   9.666  1.00  0.00     0.186 HD
ENDBRANCH   7   8
ENDBRANCH   5   7
ENDBRANCH   1   5
BRANCH   2  14
HETATM   14  C   UNL     1     -41.831 -50.417  12.348  1.00  0.00     0.088 C 
HETATM   15  C   UNL     1     -42.044 -50.047  13.816  1.00  0.00     0.034 C 
HETATM   16  C   UNL     1     -40.741 -49.841  14.572  1.00  0.00     0.126 C 
HETATM   17  N   UNL     1     -39.812 -50.938  14.361  1.00  0.00    -0.356 N 
HETATM   18  C   UNL     1     -38.741 -51.101  15.327  1.00  0.00     0.152 C 
HETATM   19  C   UNL     1     -39.521 -51.278  13.043  1.00  0.00     0.220 C 
HETATM   20  O   UNL     1     -38.398 -51.585  12.650  1.00  0.00    -0.273 OA
HETATM   21  C   UNL     1     -40.739 -51.461  12.161  1.00  0.00     0.117 C 
ENDBRANCH   2  14
TORSDOF 4
ENDMDL
MODEL 7
REMARK VINA RESULT:      -5.4      3.166      6.076
REMARK  4 active torsions:
REMARK  status: ('A' for Active; 'I' for Inactive)
REMARK    1  A    between atoms: C_2  and  C_3 
REMARK    2  A    between atoms: C_2  and  N_10 
REMARK    3  A    between atoms: C_3  and  N_4 
REMARK       I    between atoms: N_10  and  C_11 
REMARK    4  A    between atoms: C_11  and  C_13 
ROOT
HETATM    1  N   UNL     1     -43.073 -51.797  12.514  1.00  0.00    -0.355 N 
HETATM    2  C   UNL     1     -43.652 -53.032  12.734  1.00  0.00     0.222 C 
HETATM    3  O   UNL     1     -43.004 -54.061  12.888  1.00  0.00    -0.273 OA
HETATM    4  H   UNL     1     -43.664 -50.972  12.488  1.00  0.00     0.162 HD
ENDROOT
BRANCH   1   5
HETATM    5  C   UNL     1     -41.623 -51.599  12.516  1.00  0.00     0.100 C 
HETATM    6  C   UNL     1     -41.284 -50.312  11.762  1.00  0.00     0.034 C 
BRANCH   5   7
HETATM    7  C   UNL     1     -41.036 -51.532  13.932  1.00  0.00     0.172 C 
BRANCH   7   8
HETATM    8  N   UNL     1     -40.223 -52.688  14.267  1.00  0.00    -0.302 N 
HETATM    9  C   UNL     1     -39.593 -52.935  15.452  1.00  0.00     0.111 A 
HETATM   10  C   UNL     1     -38.994 -54.166  15.315  1.00  0.00     0.037 A 
HETATM   11  C   UNL     1     -39.329 -54.582  14.013  1.00  0.00     0.108 A 
HETATM   12  N   UNL     1     -40.074 -53.682  13.365  1.00  0.00    -0.310 N 
ATOM     13  HN  UNL     1     -40.442 -53.733  12.415  1.00  0.00     0.186 HD
ENDBRANCH   7   8
ENDBRANCH   5   7
ENDBRANCH   1   5
BRANCH   2  14
HETATM   14  C   UNL     1     -45.172 -52.998  12.757  1.00  0.00     0.088 C 
HETATM   15  C   UNL     1     -45.741 -51.626  13.118  1.00  0.00     0.034 C 
HETATM   16  C   UNL     1     -45.769 -51.370  14.617  1.00  0.00     0.126 C 
HETATM   17  N   UNL     1     -46.367 -52.477  15.345  1.00  0.00    -0.356 N 
HETATM   18  C   UNL     1     -46.852 -52.209  16.687  1.00  0.00     0.152 C 
HETATM   19  C   UNL     1     -45.844 -53.746  15.112  1.00  0.00     0.220 C 
HETATM   20  O   UNL     1     -45.669 -54.583  15.994  1.00  0.00    -0.273 OA
HETATM   21  C   UNL     1     -45.712 -54.108  13.647  1.00  0.00     0.117 C 
ENDBRANCH   2  14
TORSDOF 4
ENDMDL
MODEL 8
REMARK VINA RESULT:      -5.3      1.969      2.877
REMARK  4 active torsions:
REMARK  status: ('A' for Active; 'I' for Inactive)
REMARK    1  A    between atoms: C_2  and  C_3 
REMARK    2  A    between atoms: C_2  and  N_10 
REMARK    3  A    between atoms: C_3  and  N_4 
REMARK       I    between atoms: N_10  and  C_11 
REMARK    4  A    between atoms: C_11  and  C_13 
ROOT
HETATM    1  N   UNL     1     -39.688 -50.783  11.788  1.00  0.00    -0.355 N 
HETATM    2  C   UNL     1     -39.970 -51.797  12.684  1.00  0.00     0.222 C 
HETATM    3  O   UNL     1     -39.397 -51.924  13.759  1.00  0.00    -0.273 OA
HETATM    4  H   UNL     1     -40.265 -50.683  10.958  1.00  0.00     0.162 HD
ENDROOT
BRANCH   1   5
HETATM    5  C   UNL     1     -38.724 -49.724  12.082  1.00  0.00     0.100 C 
HETATM    6  C   UNL     1     -37.464 -49.933  11.238  1.00  0.00     0.034 C 
BRANCH   5   7
HETATM    7  C   UNL     1     -39.287 -48.320  11.821  1.00  0.00     0.172 C 
BRANCH   7   8
HETATM    8  N   UNL     1     -40.720 -48.314  11.590  1.00  0.00    -0.302 N 
HETATM    9  C   UNL     1     -41.704 -48.472  12.522  1.00  0.00     0.111 A 
HETATM   10  C   UNL     1     -42.894 -48.341  11.845  1.00  0.00     0.037 A 
HETATM   11  C   UNL     1     -42.520 -48.098  10.511  1.00  0.00     0.108 A 
HETATM   12  N   UNL     1     -41.194 -48.086  10.347  1.00  0.00    -0.310 N 
ATOM     13  HN  UNL     1     -40.666 -47.939   9.486  1.00  0.00     0.186 HD
ENDBRANCH   7   8
ENDBRANCH   5   7
ENDBRANCH   1   5
BRANCH   2  14
HETATM   14  C   UNL     1     -41.052 -52.752  12.203  1.00  0.00     0.088 C 
HETATM   15  C   UNL     1     -42.455 -52.148  12.248  1.00  0.00     0.034 C 
HETATM   16  C   UNL     1     -43.088 -52.216  13.630  1.00  0.00     0.126 C 
HETATM   17  N   UNL     1     -42.990 -53.546  14.206  1.00  0.00    -0.356 N 
HETATM   18  C   UNL     1     -43.900 -53.873  15.289  1.00  0.00     0.152 C 
HETATM   19  C   UNL     1     -41.724 -54.123  14.259  1.00  0.00     0.220 C 
HETATM   20  O   UNL     1     -41.313 -54.780  15.213  1.00  0.00    -0.273 OA
HETATM   21  C   UNL     1     -40.960 -54.074  12.952  1.00  0.00     0.117 C 
ENDBRANCH   2  14
TORSDOF 4
ENDMDL
MODEL 9
REMARK VINA RESULT:      -5.2      3.126      5.551
REMARK  4 active torsions:
REMARK  status: ('A' for Active; 'I' for Inactive)
REMARK    1  A    between atoms: C_2  and  C_3 
REMARK    2  A    between atoms: C_2  and  N_10 
REMARK    3  A    between atoms: C_3  and  N_4 
REMARK       I    between atoms: N_10  and  C_11 
REMARK    4  A    between atoms: C_11  and  C_13 
ROOT
HETATM    1  N   UNL     1     -43.831 -50.417  13.314  1.00  0.00    -0.355 N 
HETATM    2  C   UNL     1     -44.660 -51.522  13.332  1.00  0.00     0.222 C 
HETATM    3  O   UNL     1     -44.457 -52.526  12.659  1.00  0.00    -0.273 OA
HETATM    4  H   UNL     1     -44.006 -49.657  13.965  1.00  0.00     0.162 HD
ENDROOT
BRANCH   1   5
HETATM    5  C   UNL     1     -42.591 -50.378  12.538  1.00  0.00     0.100 C 
HETATM    6  C   UNL     1     -42.394 -48.975  11.962  1.00  0.00     0.034 C 
BRANCH   5   7
HETATM    7  C   UNL     1     -41.360 -50.769  13.367  1.00  0.00     0.172 C 
BRANCH   7   8
HETATM    8  N   UNL     1     -41.175 -52.205  13.472  1.00  0.00    -0.302 N 
HETATM    9  C   UNL     1     -40.882 -52.918  14.598  1.00  0.00     0.111 A 
HETATM   10  C   UNL     1     -40.855 -54.239  14.216  1.00  0.00     0.037 A 
HETATM   11  C   UNL     1     -41.152 -54.219  12.841  1.00  0.00     0.108 A 
HETATM   12  N   UNL     1     -41.342 -52.980  12.378  1.00  0.00    -0.310 N 
ATOM     13  HN  UNL     1     -41.562 -52.689  11.425  1.00  0.00     0.186 HD
ENDBRANCH   7   8
ENDBRANCH   5   7
ENDBRANCH   1   5
BRANCH   2  14
HETATM   14  C   UNL     1     -45.857 -51.372  14.257  1.00  0.00     0.088 C 
HETATM   15  C   UNL     1     -45.481 -50.898  15.661  1.00  0.00     0.034 C 
HETATM   16  C   UNL     1     -45.000 -52.028  16.560  1.00  0.00     0.126 C 
HETATM   17  N   UNL     1     -45.905 -53.165  16.534  1.00  0.00    -0.356 N 
HETATM   18  C   UNL     1     -45.822 -54.109  17.633  1.00  0.00     0.152 C 
HETATM   19  C   UNL     1     -46.230 -53.688  15.285  1.00  0.00     0.220 C 
HETATM   20  O   UNL     1     -46.330 -54.890  15.054  1.00  0.00    -0.273 OA
HETATM   21  C   UNL     1     -46.678 -52.654  14.272  1.00  0.00     0.117 C 
ENDBRANCH   2  14
TORSDOF 4
ENDMDL
