MODEL 1
REMARK VINA RESULT:      -6.9      0.000      0.000
REMARK  8 active torsions:
REMARK  status: ('A' for Active; 'I' for Inactive)
REMARK    1  A    between atoms: C_2  and  N_3 
REMARK    2  A    between atoms: N_4  and  C_16 
REMARK    3  A    between atoms: C_13  and  C_24 
REMARK    4  A    between atoms: C_16  and  C_19 
REMARK    5  A    between atoms: C_19  and  C_23 
REMARK    6  A    between atoms: C_19  and  C_25 
REMARK    7  A    between atoms: C_24  and  O_27 
REMARK    8  A    between atoms: C_25  and  O_28 
ROOT
HETATM    1  C   UNL     1     -42.173 -50.477  13.077  1.00  0.00     0.117 A 
HETATM    2  C   UNL     1     -43.150 -51.456  12.753  1.00  0.00     0.115 A 
HETATM    3  N   UNL     1     -40.161 -49.598  12.960  1.00  0.00    -0.327 N 
HETATM    4  C   UNL     1     -40.881 -50.719  12.634  1.00  0.00     0.140 A 
HETATM    5  N   UNL     1     -42.210 -49.272  13.769  1.00  0.00    -0.346 N 
ATOM      6  HN  UNL     1     -43.003 -48.867  14.265  1.00  0.00     0.167 HD
HETATM    7  C   UNL     1     -40.999 -48.762  13.647  1.00  0.00     0.185 A 
HETATM    8  N   UNL     1     -42.715 -52.538  12.033  1.00  0.00    -0.341 N 
ATOM      9  HN  UNL     1     -43.375 -53.264  11.755  1.00  0.00     0.167 HD
HETATM   10  N   UNL     1     -40.427 -51.781  11.952  1.00  0.00    -0.336 N 
ATOM     11  HN  UNL     1     -39.456 -51.914  11.669  1.00  0.00     0.168 HD
HETATM   12  C   UNL     1     -41.417 -52.643  11.692  1.00  0.00     0.183 A 
ENDROOT
BRANCH   2  13
HETATM   13  N   UNL     1     -44.500 -51.432  13.125  1.00  0.00    -0.258 NA
HETATM   14  C   UNL     1     -44.837 -51.432  14.557  1.00  0.00     0.065 C 
HETATM   15  C   UNL     1     -44.471 -52.870  15.001  1.00  0.00     0.028 C 
HETATM   16  C   UNL     1     -46.379 -51.348  14.469  1.00  0.00     0.022 C 
HETATM   17  C   UNL     1     -44.692 -53.690  13.702  1.00  0.00     0.029 C 
HETATM   18  C   UNL     1     -45.288 -52.625  12.745  1.00  0.00     0.071 C 
HETATM   19  C   UNL     1     -46.691 -52.185  13.215  1.00  0.00     0.022 C 
BRANCH  17  20
HETATM   20  C   UNL     1     -45.480 -54.970  13.894  1.00  0.00     0.170 C 
BRANCH  20  21
HETATM   21  O   UNL     1     -46.148 -54.931  15.152  1.00  0.00    -0.400 OA
HETATM   22  H   UNL     1     -46.940 -54.374  15.052  1.00  0.00     0.209 HD
ENDBRANCH  20  21
ENDBRANCH  17  20
ENDBRANCH   2  13
BRANCH   3  23
HETATM   23  C   UNL     1     -38.936 -49.226  12.289  1.00  0.00     0.138 C 
BRANCH  23  24
HETATM   24  C   UNL     1     -37.580 -49.443  12.997  1.00  0.00     0.034 C 
BRANCH  24  25
HETATM   25  C   UNL     1     -37.584 -49.058  14.499  1.00  0.00     0.019 C 
HETATM   26  C   UNL     1     -36.987 -47.671  14.781  1.00  0.00     0.172 C 
HETATM   27  O   UNL     1     -35.837 -47.870  15.608  1.00  0.00    -0.391 OA
HETATM   28  C   UNL     1     -36.073 -49.057  16.365  1.00  0.00     0.168 C 
HETATM   29  C   UNL     1     -36.791 -49.988  15.414  1.00  0.00     0.033 C 
ENDBRANCH  24  25
BRANCH  24  30
HETATM   30  C   UNL     1     -37.176 -50.917  12.755  1.00  0.00     0.170 C 
BRANCH  30  31
HETATM   31  O   UNL     1     -37.480 -51.287  11.413  1.00  0.00    -0.400 OA
HETATM   32  H   UNL     1     -37.956 -50.550  10.993  1.00  0.00     0.209 HD
ENDBRANCH  30  31
ENDBRANCH  24  30
ENDBRANCH  23  24
ENDBRANCH   3  23
TORSDOF 8
ENDMDL
MODEL 2
REMARK VINA RESULT:      -6.7      2.958      7.360
REMARK  8 active torsions:
REMARK  status: ('A' for Active; 'I' for Inactive)
REMARK    1  A    between atoms: C_2  and  N_3 
REMARK    2  A    between atoms: N_4  and  C_16 
REMARK    3  A    between atoms: C_13  and  C_24 
REMARK    4  A    between atoms: C_16  and  C_19 
REMARK    5  A    between atoms: C_19  and  C_23 
REMARK    6  A    between atoms: C_19  and  C_25 
REMARK    7  A    between atoms: C_24  and  O_27 
REMARK    8  A    between atoms: C_25  and  O_28 
ROOT
HETATM    1  C   UNL     1     -41.759 -49.154  12.851  1.00  0.00     0.117 A 
HETATM    2  C   UNL     1     -40.681 -48.235  12.756  1.00  0.00     0.115 A 
HETATM    3  N   UNL     1     -42.721 -51.097  12.477  1.00  0.00    -0.327 N 
HETATM    4  C   UNL     1     -41.630 -50.338  12.138  1.00  0.00     0.140 A 
HETATM    5  N   UNL     1     -42.975 -49.148  13.524  1.00  0.00    -0.346 N 
ATOM      6  HN  UNL     1     -43.375 -48.386  14.072  1.00  0.00     0.167 HD
HETATM    7  C   UNL     1     -43.503 -50.337  13.304  1.00  0.00     0.185 A 
HETATM    8  N   UNL     1     -39.622 -48.613  11.972  1.00  0.00    -0.341 N 
ATOM      9  HN  UNL     1     -38.811 -48.001  11.881  1.00  0.00     0.167 HD
HETATM   10  N   UNL     1     -40.617 -50.718  11.344  1.00  0.00    -0.336 N 
ATOM     11  HN  UNL     1     -40.586 -51.597  10.827  1.00  0.00     0.168 HD
HETATM   12  C   UNL     1     -39.652 -49.791  11.322  1.00  0.00     0.183 A 
ENDROOT
BRANCH   2  13
HETATM   13  N   UNL     1     -40.615 -46.974  13.362  1.00  0.00    -0.258 NA
HETATM   14  C   UNL     1     -41.785 -46.087  13.274  1.00  0.00     0.065 C 
HETATM   15  C   UNL     1     -41.788 -45.660  11.786  1.00  0.00     0.028 C 
HETATM   16  C   UNL     1     -41.274 -44.886  14.104  1.00  0.00     0.022 C 
HETATM   17  C   UNL     1     -40.283 -45.723  11.414  1.00  0.00     0.029 C 
HETATM   18  C   UNL     1     -39.625 -46.038  12.783  1.00  0.00     0.071 C 
HETATM   19  C   UNL     1     -39.775 -44.848  13.754  1.00  0.00     0.022 C 
BRANCH  17  20
HETATM   20  C   UNL     1     -39.771 -44.513  10.660  1.00  0.00     0.170 C 
BRANCH  20  21
HETATM   21  O   UNL     1     -39.736 -44.802   9.265  1.00  0.00    -0.400 OA
HETATM   22  H   UNL     1     -40.213 -45.639   9.122  1.00  0.00     0.209 HD
ENDBRANCH  20  21
ENDBRANCH  17  20
ENDBRANCH   2  13
BRANCH   3  23
HETATM   23  C   UNL     1     -42.749 -52.536  12.350  1.00  0.00     0.138 C 
BRANCH  23  24
HETATM   24  C   UNL     1     -42.218 -53.416  13.503  1.00  0.00     0.034 C 
BRANCH  24  25
HETATM   25  C   UNL     1     -43.300 -54.309  14.166  1.00  0.00     0.019 C 
HETATM   26  C   UNL     1     -44.591 -54.425  13.344  1.00  0.00     0.172 C 
HETATM   27  O   UNL     1     -45.643 -53.864  14.136  1.00  0.00    -0.391 OA
HETATM   28  C   UNL     1     -45.277 -54.056  15.503  1.00  0.00     0.168 C 
HETATM   29  C   UNL     1     -43.781 -53.843  15.537  1.00  0.00     0.033 C 
ENDBRANCH  24  25
BRANCH  24  30
HETATM   30  C   UNL     1     -41.030 -54.230  12.939  1.00  0.00     0.170 C 
BRANCH  30  31
HETATM   31  O   UNL     1     -40.578 -53.644  11.721  1.00  0.00    -0.400 OA
HETATM   32  H   UNL     1     -40.459 -54.354  11.066  1.00  0.00     0.209 HD
ENDBRANCH  30  31
ENDBRANCH  24  30
ENDBRANCH  23  24
ENDBRANCH   3  23
TORSDOF 8
ENDMDL
MODEL 3
REMARK VINA RESULT:      -6.6      3.415      4.754
REMARK  8 active torsions:
REMARK  status: ('A' for Active; 'I' for Inactive)
REMARK    1  A    between atoms: C_2  and  N_3 
REMARK    2  A    between atoms: N_4  and  C_16 
REMARK    3  A    between atoms: C_13  and  C_24 
REMARK    4  A    between atoms: C_16  and  C_19 
REMARK    5  A    between atoms: C_19  and  C_23 
REMARK    6  A    between atoms: C_19  and  C_25 
REMARK    7  A    between atoms: C_24  and  O_27 
REMARK    8  A    between atoms: C_25  and  O_28 
ROOT
HETATM    1  C   UNL     1     -41.845 -49.578  11.874  1.00  0.00     0.117 A 
HETATM    2  C   UNL     1     -41.219 -50.844  12.029  1.00  0.00     0.115 A 
HETATM    3  N   UNL     1     -41.883 -47.473  11.241  1.00  0.00    -0.327 N 
HETATM    4  C   UNL     1     -41.042 -48.541  11.419  1.00  0.00     0.140 A 
HETATM    5  N   UNL     1     -43.137 -49.110  12.081  1.00  0.00    -0.346 N 
ATOM      6  HN  UNL     1     -43.925 -49.623  12.476  1.00  0.00     0.167 HD
HETATM    7  C   UNL     1     -43.127 -47.860  11.660  1.00  0.00     0.185 A 
HETATM    8  N   UNL     1     -39.888 -50.911  11.710  1.00  0.00    -0.341 N 
ATOM      9  HN  UNL     1     -39.390 -51.799  11.784  1.00  0.00     0.167 HD
HETATM   10  N   UNL     1     -39.734 -48.577  11.126  1.00  0.00    -0.336 N 
ATOM     11  HN  UNL     1     -39.190 -47.773  10.812  1.00  0.00     0.168 HD
HETATM   12  C   UNL     1     -39.237 -49.807  11.299  1.00  0.00     0.183 A 
ENDROOT
BRANCH   2  13
HETATM   13  N   UNL     1     -41.826 -52.014  12.503  1.00  0.00    -0.258 NA
HETATM   14  C   UNL     1     -42.330 -52.036  13.885  1.00  0.00     0.065 C 
HETATM   15  C   UNL     1     -41.033 -52.057  14.729  1.00  0.00     0.028 C 
HETATM   16  C   UNL     1     -42.937 -53.458  13.926  1.00  0.00     0.022 C 
HETATM   17  C   UNL     1     -40.032 -52.782  13.791  1.00  0.00     0.029 C 
HETATM   18  C   UNL     1     -40.942 -53.196  12.605  1.00  0.00     0.071 C 
HETATM   19  C   UNL     1     -41.967 -54.265  13.043  1.00  0.00     0.022 C 
BRANCH  17  20
HETATM   20  C   UNL     1     -39.223 -53.875  14.459  1.00  0.00     0.170 C 
BRANCH  20  21
HETATM   21  O   UNL     1     -38.541 -54.636  13.465  1.00  0.00    -0.400 OA
HETATM   22  H   UNL     1     -39.211 -55.032  12.880  1.00  0.00     0.209 HD
ENDBRANCH  20  21
ENDBRANCH  17  20
ENDBRANCH   2  13
BRANCH   3  23
HETATM   23  C   UNL     1     -41.578 -46.369  10.358  1.00  0.00     0.138 C 
BRANCH  23  24
HETATM   24  C   UNL     1     -40.866 -45.118  10.918  1.00  0.00     0.034 C 
BRANCH  24  25
HETATM   25  C   UNL     1     -40.885 -45.019  12.466  1.00  0.00     0.019 C 
HETATM   26  C   UNL     1     -40.942 -43.577  12.991  1.00  0.00     0.172 C 
HETATM   27  O   UNL     1     -39.745 -43.358  13.743  1.00  0.00    -0.391 OA
HETATM   28  C   UNL     1     -39.349 -44.625  14.269  1.00  0.00     0.168 C 
HETATM   29  C   UNL     1     -39.673 -45.617  13.174  1.00  0.00     0.033 C 
ENDBRANCH  24  25
BRANCH  24  30
HETATM   30  C   UNL     1     -39.434 -45.114  10.334  1.00  0.00     0.170 C 
BRANCH  30  31
HETATM   31  O   UNL     1     -39.465 -44.660   8.984  1.00  0.00    -0.400 OA
HETATM   32  H   UNL     1     -39.974 -43.831   8.951  1.00  0.00     0.209 HD
ENDBRANCH  30  31
ENDBRANCH  24  30
ENDBRANCH  23  24
ENDBRANCH   3  23
TORSDOF 8
ENDMDL
MODEL 4
REMARK VINA RESULT:      -6.4      2.467      3.561
REMARK  8 active torsions:
REMARK  status: ('A' for Active; 'I' for Inactive)
REMARK    1  A    between atoms: C_2  and  N_3 
REMARK    2  A    between atoms: N_4  and  C_16 
REMARK    3  A    between atoms: C_13  and  C_24 
REMARK    4  A    between atoms: C_16  and  C_19 
REMARK    5  A    between atoms: C_19  and  C_23 
REMARK    6  A    between atoms: C_19  and  C_25 
REMARK    7  A    between atoms: C_24  and  O_27 
REMARK    8  A    between atoms: C_25  and  O_28 
ROOT
HETATM    1  C   UNL     1     -42.058 -52.166  14.704  1.00  0.00     0.117 A 
HETATM    2  C   UNL     1     -42.850 -53.311  14.423  1.00  0.00     0.115 A 
HETATM    3  N   UNL     1     -40.249 -50.932  14.495  1.00  0.00    -0.327 N 
HETATM    4  C   UNL     1     -40.764 -52.169  14.202  1.00  0.00     0.140 A 
HETATM    5  N   UNL     1     -42.285 -50.983  15.397  1.00  0.00    -0.346 N 
ATOM      6  HN  UNL     1     -43.116 -50.728  15.930  1.00  0.00     0.167 HD
HETATM    7  C   UNL     1     -41.195 -50.260  15.220  1.00  0.00     0.185 A 
HETATM    8  N   UNL     1     -42.256 -54.299  13.683  1.00  0.00    -0.341 N 
ATOM      9  HN  UNL     1     -42.783 -55.137  13.436  1.00  0.00     0.167 HD
HETATM   10  N   UNL     1     -40.153 -53.135  13.499  1.00  0.00    -0.336 N 
ATOM     11  HN  UNL     1     -39.188 -53.088  13.171  1.00  0.00     0.168 HD
HETATM   12  C   UNL     1     -40.978 -54.166  13.283  1.00  0.00     0.183 A 
ENDROOT
BRANCH   2  13
HETATM   13  N   UNL     1     -44.164 -53.533  14.857  1.00  0.00    -0.258 NA
HETATM   14  C   UNL     1     -44.956 -54.583  14.197  1.00  0.00     0.065 C 
HETATM   15  C   UNL     1     -45.242 -53.978  12.801  1.00  0.00     0.028 C 
HETATM   16  C   UNL     1     -46.261 -54.492  15.022  1.00  0.00     0.022 C 
HETATM   17  C   UNL     1     -45.249 -52.453  13.089  1.00  0.00     0.029 C 
HETATM   18  C   UNL     1     -45.108 -52.416  14.633  1.00  0.00     0.071 C 
HETATM   19  C   UNL     1     -46.369 -52.985  15.317  1.00  0.00     0.022 C 
BRANCH  17  20
HETATM   20  C   UNL     1     -46.417 -51.704  12.481  1.00  0.00     0.170 C 
BRANCH  20  21
HETATM   21  O   UNL     1     -46.869 -52.393  11.318  1.00  0.00    -0.400 OA
HETATM   22  H   UNL     1     -47.313 -51.746  10.741  1.00  0.00     0.209 HD
ENDBRANCH  20  21
ENDBRANCH  17  20
ENDBRANCH   2  13
BRANCH   3  23
HETATM   23  C   UNL     1     -39.146 -50.346  13.769  1.00  0.00     0.138 C 
BRANCH  23  24
HETATM   24  C   UNL     1     -39.372 -49.810  12.338  1.00  0.00     0.034 C 
BRANCH  24  25
HETATM   25  C   UNL     1     -40.394 -48.647  12.253  1.00  0.00     0.019 C 
HETATM   26  C   UNL     1     -41.655 -48.994  11.448  1.00  0.00     0.172 C 
HETATM   27  O   UNL     1     -41.691 -48.108  10.324  1.00  0.00    -0.391 OA
HETATM   28  C   UNL     1     -41.027 -46.909  10.723  1.00  0.00     0.168 C 
HETATM   29  C   UNL     1     -39.880 -47.371  11.592  1.00  0.00     0.033 C 
ENDBRANCH  24  25
BRANCH  24  30
HETATM   30  C   UNL     1     -37.982 -49.431  11.773  1.00  0.00     0.170 C 
BRANCH  30  31
HETATM   31  O   UNL     1     -37.782 -50.070  10.515  1.00  0.00    -0.400 OA
HETATM   32  H   UNL     1     -38.226 -50.935  10.537  1.00  0.00     0.209 HD
ENDBRANCH  30  31
ENDBRANCH  24  30
ENDBRANCH  23  24
ENDBRANCH   3  23
TORSDOF 8
ENDMDL
MODEL 5
REMARK VINA RESULT:      -6.4      3.196      6.814
REMARK  8 active torsions:
REMARK  status: ('A' for Active; 'I' for Inactive)
REMARK    1  A    between atoms: C_2  and  N_3 
REMARK    2  A    between atoms: N_4  and  C_16 
REMARK    3  A    between atoms: C_13  and  C_24 
REMARK    4  A    between atoms: C_16  and  C_19 
REMARK    5  A    between atoms: C_19  and  C_23 
REMARK    6  A    between atoms: C_19  and  C_25 
REMARK    7  A    between atoms: C_24  and  O_27 
REMARK    8  A    between atoms: C_25  and  O_28 
ROOT
HETATM    1  C   UNL     1     -41.374 -49.159  13.047  1.00  0.00     0.117 A 
HETATM    2  C   UNL     1     -40.949 -48.258  12.034  1.00  0.00     0.115 A 
HETATM    3  N   UNL     1     -41.430 -51.128  14.025  1.00  0.00    -0.327 N 
HETATM    4  C   UNL     1     -41.017 -50.490  12.883  1.00  0.00     0.140 A 
HETATM    5  N   UNL     1     -42.100 -49.014  14.223  1.00  0.00    -0.346 N 
ATOM      6  HN  UNL     1     -42.551 -48.167  14.571  1.00  0.00     0.167 HD
HETATM    7  C   UNL     1     -42.082 -50.203  14.794  1.00  0.00     0.185 A 
HETATM    8  N   UNL     1     -40.227 -48.796  11.001  1.00  0.00    -0.341 N 
ATOM      9  HN  UNL     1     -39.879 -48.194  10.254  1.00  0.00     0.167 HD
HETATM   10  N   UNL     1     -40.335 -51.043  11.869  1.00  0.00    -0.336 N 
ATOM     11  HN  UNL     1     -40.118 -52.037  11.793  1.00  0.00     0.168 HD
HETATM   12  C   UNL     1     -39.977 -50.118  10.971  1.00  0.00     0.183 A 
ENDROOT
BRANCH   2  13
HETATM   13  N   UNL     1     -41.224 -46.886  11.980  1.00  0.00    -0.258 NA
HETATM   14  C   UNL     1     -42.472 -46.393  12.582  1.00  0.00     0.065 C 
HETATM   15  C   UNL     1     -43.558 -46.914  11.610  1.00  0.00     0.028 C 
HETATM   16  C   UNL     1     -42.309 -44.875  12.331  1.00  0.00     0.022 C 
HETATM   17  C   UNL     1     -42.802 -46.965  10.256  1.00  0.00     0.029 C 
HETATM   18  C   UNL     1     -41.436 -46.330  10.625  1.00  0.00     0.071 C 
HETATM   19  C   UNL     1     -41.597 -44.833  10.967  1.00  0.00     0.022 C 
BRANCH  17  20
HETATM   20  C   UNL     1     -43.557 -46.357   9.091  1.00  0.00     0.170 C 
BRANCH  20  21
HETATM   21  O   UNL     1     -42.651 -46.097   8.022  1.00  0.00    -0.400 OA
HETATM   22  H   UNL     1     -42.058 -45.377   8.303  1.00  0.00     0.209 HD
ENDBRANCH  20  21
ENDBRANCH  17  20
ENDBRANCH   2  13
BRANCH   3  23
HETATM   23  C   UNL     1     -40.860 -52.376  14.479  1.00  0.00     0.138 C 
BRANCH  23  24
HETATM   24  C   UNL     1     -41.625 -53.697  14.239  1.00  0.00     0.034 C 
BRANCH  24  25
HETATM   25  C   UNL     1     -43.168 -53.557  14.316  1.00  0.00     0.019 C 
HETATM   26  C   UNL     1     -43.820 -54.490  15.347  1.00  0.00     0.172 C 
HETATM   27  O   UNL     1     -44.689 -55.368  14.625  1.00  0.00    -0.391 OA
HETATM   28  C   UNL     1     -45.124 -54.658  13.466  1.00  0.00     0.168 C 
HETATM   29  C   UNL     1     -43.917 -53.862  13.022  1.00  0.00     0.033 C 
ENDBRANCH  24  25
BRANCH  24  30
HETATM   30  C   UNL     1     -41.140 -54.259  12.881  1.00  0.00     0.170 C 
BRANCH  30  31
HETATM   31  O   UNL     1     -39.740 -54.034  12.739  1.00  0.00    -0.400 OA
HETATM   32  H   UNL     1     -39.287 -54.896  12.767  1.00  0.00     0.209 HD
ENDBRANCH  30  31
ENDBRANCH  24  30
ENDBRANCH  23  24
ENDBRANCH   3  23
TORSDOF 8
ENDMDL
MODEL 6
REMARK VINA RESULT:      -6.1      2.393      7.556
REMARK  8 active torsions:
REMARK  status: ('A' for Active; 'I' for Inactive)
REMARK    1  A    between atoms: C_2  and  N_3 
REMARK    2  A    between atoms: N_4  and  C_16 
REMARK    3  A    between atoms: C_13  and  C_24 
REMARK    4  A    between atoms: C_16  and  C_19 
REMARK    5  A    between atoms: C_19  and  C_23 
REMARK    6  A    between atoms: C_19  and  C_25 
REMARK    7  A    between atoms: C_24  and  O_27 
REMARK    8  A    between atoms: C_25  and  O_28 
ROOT
HETATM    1  C   UNL     1     -41.078 -52.898  13.197  1.00  0.00     0.117 A 
HETATM    2  C   UNL     1     -39.718 -52.519  13.348  1.00  0.00     0.115 A 
HETATM    3  N   UNL     1     -42.899 -53.964  13.819  1.00  0.00    -0.327 N 
HETATM    4  C   UNL     1     -41.557 -53.855  14.081  1.00  0.00     0.140 A 
HETATM    5  N   UNL     1     -42.095 -52.516  12.330  1.00  0.00    -0.346 N 
ATOM      6  HN  UNL     1     -42.023 -51.883  11.534  1.00  0.00     0.167 HD
HETATM    7  C   UNL     1     -43.173 -53.148  12.755  1.00  0.00     0.185 A 
HETATM    8  N   UNL     1     -39.019 -53.136  14.352  1.00  0.00    -0.341 N 
ATOM      9  HN  UNL     1     -38.043 -52.891  14.519  1.00  0.00     0.167 HD
HETATM   10  N   UNL     1     -40.886 -54.491  15.053  1.00  0.00    -0.336 N 
ATOM     11  HN  UNL     1     -41.288 -55.204  15.662  1.00  0.00     0.168 HD
HETATM   12  C   UNL     1     -39.619 -54.066  15.118  1.00  0.00     0.183 A 
ENDROOT
BRANCH   2  13
HETATM   13  N   UNL     1     -39.022 -51.602  12.550  1.00  0.00    -0.258 NA
HETATM   14  C   UNL     1     -37.704 -51.131  13.002  1.00  0.00     0.065 C 
HETATM   15  C   UNL     1     -38.053 -50.218  14.203  1.00  0.00     0.028 C 
HETATM   16  C   UNL     1     -37.324 -50.216  11.814  1.00  0.00     0.022 C 
HETATM   17  C   UNL     1     -39.465 -49.696  13.830  1.00  0.00     0.029 C 
HETATM   18  C   UNL     1     -39.657 -50.273  12.403  1.00  0.00     0.071 C 
HETATM   19  C   UNL     1     -38.681 -49.614  11.405  1.00  0.00     0.022 C 
BRANCH  17  20
HETATM   20  C   UNL     1     -39.648 -48.202  14.004  1.00  0.00     0.170 C 
BRANCH  20  21
HETATM   21  O   UNL     1     -41.015 -47.863  13.787  1.00  0.00    -0.400 OA
HETATM   22  H   UNL     1     -41.535 -48.686  13.814  1.00  0.00     0.209 HD
ENDBRANCH  20  21
ENDBRANCH  17  20
ENDBRANCH   2  13
BRANCH   3  23
HETATM   23  C   UNL     1     -43.851 -54.470  14.782  1.00  0.00     0.138 C 
BRANCH  23  24
HETATM   24  C   UNL     1     -44.293 -53.576  15.962  1.00  0.00     0.034 C 
BRANCH  24  25
HETATM   25  C   UNL     1     -45.705 -52.957  15.791  1.00  0.00     0.019 C 
HETATM   26  C   UNL     1     -46.542 -53.627  14.692  1.00  0.00     0.172 C 
HETATM   27  O   UNL     1     -46.808 -52.630  13.701  1.00  0.00    -0.391 OA
HETATM   28  C   UNL     1     -46.821 -51.371  14.376  1.00  0.00     0.168 C 
HETATM   29  C   UNL     1     -45.729 -51.478  15.416  1.00  0.00     0.033 C 
ENDBRANCH  24  25
BRANCH  24  30
HETATM   30  C   UNL     1     -44.161 -54.427  17.247  1.00  0.00     0.170 C 
BRANCH  30  31
HETATM   31  O   UNL     1     -43.200 -55.459  17.046  1.00  0.00    -0.400 OA
HETATM   32  H   UNL     1     -42.501 -55.361  17.716  1.00  0.00     0.209 HD
ENDBRANCH  30  31
ENDBRANCH  24  30
ENDBRANCH  23  24
ENDBRANCH   3  23
TORSDOF 8
ENDMDL
MODEL 7
REMARK VINA RESULT:      -6.1      2.059      3.300
REMARK  8 active torsions:
REMARK  status: ('A' for Active; 'I' for Inactive)
REMARK    1  A    between atoms: C_2  and  N_3 
REMARK    2  A    between atoms: N_4  and  C_16 
REMARK    3  A    between atoms: C_13  and  C_24 
REMARK    4  A    between atoms: C_16  and  C_19 
REMARK    5  A    between atoms: C_19  and  C_23 
REMARK    6  A    between atoms: C_19  and  C_25 
REMARK    7  A    between atoms: C_24  and  O_27 
REMARK    8  A    between atoms: C_25  and  O_28 
ROOT
HETATM    1  C   UNL     1     -42.234 -52.330  13.566  1.00  0.00     0.117 A 
HETATM    2  C   UNL     1     -43.104 -52.533  14.671  1.00  0.00     0.115 A 
HETATM    3  N   UNL     1     -40.486 -51.426  12.585  1.00  0.00    -0.327 N 
HETATM    4  C   UNL     1     -41.261 -51.353  13.714  1.00  0.00     0.140 A 
HETATM    5  N   UNL     1     -42.122 -52.911  12.308  1.00  0.00    -0.346 N 
ATOM      6  HN  UNL     1     -42.740 -53.608  11.891  1.00  0.00     0.167 HD
HETATM    7  C   UNL     1     -41.048 -52.369  11.768  1.00  0.00     0.185 A 
HETATM    8  N   UNL     1     -42.890 -51.744  15.770  1.00  0.00    -0.341 N 
ATOM      9  HN  UNL     1     -43.473 -51.857  16.600  1.00  0.00     0.167 HD
HETATM   10  N   UNL     1     -41.049 -50.551  14.769  1.00  0.00    -0.336 N 
ATOM     11  HN  UNL     1     -40.326 -49.833  14.813  1.00  0.00     0.168 HD
HETATM   12  C   UNL     1     -41.913 -50.819  15.755  1.00  0.00     0.183 A 
ENDROOT
BRANCH   2  13
HETATM   13  N   UNL     1     -44.172 -53.438  14.727  1.00  0.00    -0.258 NA
HETATM   14  C   UNL     1     -45.053 -53.561  13.555  1.00  0.00     0.065 C 
HETATM   15  C   UNL     1     -45.842 -52.229  13.570  1.00  0.00     0.028 C 
HETATM   16  C   UNL     1     -46.006 -54.674  14.054  1.00  0.00     0.022 C 
HETATM   17  C   UNL     1     -45.873 -51.872  15.080  1.00  0.00     0.029 C 
HETATM   18  C   UNL     1     -45.222 -53.126  15.721  1.00  0.00     0.071 C 
HETATM   19  C   UNL     1     -46.129 -54.364  15.557  1.00  0.00     0.022 C 
BRANCH  17  20
HETATM   20  C   UNL     1     -47.234 -51.455  15.598  1.00  0.00     0.170 C 
BRANCH  20  21
HETATM   21  O   UNL     1     -47.077 -50.747  16.825  1.00  0.00    -0.400 OA
HETATM   22  H   UNL     1     -46.931 -49.808  16.612  1.00  0.00     0.209 HD
ENDBRANCH  20  21
ENDBRANCH  17  20
ENDBRANCH   2  13
BRANCH   3  23
HETATM   23  C   UNL     1     -39.125 -50.941  12.530  1.00  0.00     0.138 C 
BRANCH  23  24
HETATM   24  C   UNL     1     -38.755 -49.816  11.539  1.00  0.00     0.034 C 
BRANCH  24  25
HETATM   25  C   UNL     1     -39.017 -48.386  12.080  1.00  0.00     0.019 C 
HETATM   26  C   UNL     1     -38.678 -48.219  13.568  1.00  0.00     0.172 C 
HETATM   27  O   UNL     1     -39.896 -47.883  14.240  1.00  0.00    -0.391 OA
HETATM   28  C   UNL     1     -40.714 -47.198  13.291  1.00  0.00     0.168 C 
HETATM   29  C   UNL     1     -40.461 -47.903  11.978  1.00  0.00     0.033 C 
ENDBRANCH  24  25
BRANCH  24  30
HETATM   30  C   UNL     1     -37.280 -50.043  11.129  1.00  0.00     0.170 C 
BRANCH  30  31
HETATM   31  O   UNL     1     -37.169 -50.042   9.709  1.00  0.00    -0.400 OA
HETATM   32  H   UNL     1     -37.551 -50.870   9.371  1.00  0.00     0.209 HD
ENDBRANCH  30  31
ENDBRANCH  24  30
ENDBRANCH  23  24
ENDBRANCH   3  23
TORSDOF 8
ENDMDL
MODEL 8
REMARK VINA RESULT:      -6.1      3.327      7.100
REMARK  8 active torsions:
REMARK  status: ('A' for Active; 'I' for Inactive)
REMARK    1  A    between atoms: C_2  and  N_3 
REMARK    2  A    between atoms: N_4  and  C_16 
REMARK    3  A    between atoms: C_13  and  C_24 
REMARK    4  A    between atoms: C_16  and  C_19 
REMARK    5  A    between atoms: C_19  and  C_23 
REMARK    6  A    between atoms: C_19  and  C_25 
REMARK    7  A    between atoms: C_24  and  O_27 
REMARK    8  A    between atoms: C_25  and  O_28 
ROOT
HETATM    1  C   UNL     1     -40.019 -48.952  13.118  1.00  0.00     0.117 A 
HETATM    2  C   UNL     1     -40.027 -47.806  12.279  1.00  0.00     0.115 A 
HETATM    3  N   UNL     1     -40.299 -51.098  13.511  1.00  0.00    -0.327 N 
HETATM    4  C   UNL     1     -40.519 -50.125  12.569  1.00  0.00     0.140 A 
HETATM    5  N   UNL     1     -39.606 -49.189  14.424  1.00  0.00    -0.346 N 
ATOM      6  HN  UNL     1     -39.260 -48.505  15.096  1.00  0.00     0.167 HD
HETATM    7  C   UNL     1     -39.757 -50.487  14.608  1.00  0.00     0.185 A 
HETATM    8  N   UNL     1     -40.526 -47.977  11.015  1.00  0.00    -0.341 N 
ATOM      9  HN  UNL     1     -40.540 -47.193  10.362  1.00  0.00     0.167 HD
HETATM   10  N   UNL     1     -41.036 -50.310  11.345  1.00  0.00    -0.336 N 
ATOM     11  HN  UNL     1     -41.409 -51.196  11.003  1.00  0.00     0.168 HD
HETATM   12  C   UNL     1     -40.997 -49.178  10.633  1.00  0.00     0.183 A 
ENDROOT
BRANCH   2  13
HETATM   13  N   UNL     1     -39.603 -46.519  12.635  1.00  0.00    -0.258 NA
HETATM   14  C   UNL     1     -39.982 -45.992  13.955  1.00  0.00     0.065 C 
HETATM   15  C   UNL     1     -41.501 -45.732  13.804  1.00  0.00     0.028 C 
HETATM   16  C   UNL     1     -39.267 -44.621  13.911  1.00  0.00     0.022 C 
HETATM   17  C   UNL     1     -41.641 -45.426  12.289  1.00  0.00     0.029 C 
HETATM   18  C   UNL     1     -40.162 -45.415  11.823  1.00  0.00     0.071 C 
HETATM   19  C   UNL     1     -39.400 -44.218  12.431  1.00  0.00     0.022 C 
BRANCH  17  20
HETATM   20  C   UNL     1     -42.478 -44.204  11.969  1.00  0.00     0.170 C 
BRANCH  20  21
HETATM   21  O   UNL     1     -43.171 -43.784  13.141  1.00  0.00    -0.400 OA
HETATM   22  H   UNL     1     -43.963 -44.343  13.236  1.00  0.00     0.209 HD
ENDBRANCH  20  21
ENDBRANCH  17  20
ENDBRANCH   2  13
BRANCH   3  23
HETATM   23  C   UNL     1     -40.226 -52.505  13.187  1.00  0.00     0.138 C 
BRANCH  23  24
HETATM   24  C   UNL     1     -40.765 -53.549  14.190  1.00  0.00     0.034 C 
BRANCH  24  25
HETATM   25  C   UNL     1     -42.031 -54.300  13.701  1.00  0.00     0.019 C 
HETATM   26  C   UNL     1     -43.018 -53.408  12.934  1.00  0.00     0.172 C 
HETATM   27  O   UNL     1     -44.237 -53.390  13.685  1.00  0.00    -0.391 OA
HETATM   28  C   UNL     1     -44.308 -54.633  14.385  1.00  0.00     0.168 C 
HETATM   29  C   UNL     1     -42.884 -54.927  14.800  1.00  0.00     0.033 C 
ENDBRANCH  24  25
BRANCH  24  30
HETATM   30  C   UNL     1     -39.592 -54.502  14.523  1.00  0.00     0.170 C 
BRANCH  30  31
HETATM   31  O   UNL     1     -38.848 -54.782  13.340  1.00  0.00    -0.400 OA
HETATM   32  H   UNL     1     -39.422 -55.272  12.726  1.00  0.00     0.209 HD
ENDBRANCH  30  31
ENDBRANCH  24  30
ENDBRANCH  23  24
ENDBRANCH   3  23
TORSDOF 8
ENDMDL
MODEL 9
REMARK VINA RESULT:      -6.1      2.913      7.110
REMARK  8 active torsions:
REMARK  status: ('A' for Active; 'I' for Inactive)
REMARK    1  A    between atoms: C_2  and  N_3 
REMARK    2  A    between atoms: N_4  and  C_16 
REMARK    3  A    between atoms: C_13  and  C_24 
REMARK    4  A    between atoms: C_16  and  C_19 
REMARK    5  A    between atoms: C_19  and  C_23 
REMARK    6  A    between atoms: C_19  and  C_25 
REMARK    7  A    between atoms: C_24  and  O_27 
REMARK    8  A    between atoms: C_25  and  O_28 
ROOT
HETATM    1  C   UNL     1     -39.969 -50.147  12.467  1.00  0.00     0.117 A 
HETATM    2  C   UNL     1     -39.456 -48.887  12.876  1.00  0.00     0.115 A 
HETATM    3  N   UNL     1     -40.401 -52.281  12.770  1.00  0.00    -0.327 N 
HETATM    4  C   UNL     1     -39.717 -51.221  13.308  1.00  0.00     0.140 A 
HETATM    5  N   UNL     1     -40.702 -50.579  11.367  1.00  0.00    -0.346 N 
ATOM      6  HN  UNL     1     -40.974 -50.030  10.552  1.00  0.00     0.167 HD
HETATM    7  C   UNL     1     -40.968 -51.849  11.603  1.00  0.00     0.185 A 
HETATM    8  N   UNL     1     -38.768 -48.862  14.060  1.00  0.00    -0.341 N 
ATOM      9  HN  UNL     1     -38.393 -47.981  14.413  1.00  0.00     0.167 HD
HETATM   10  N   UNL     1     -39.025 -51.226  14.457  1.00  0.00    -0.336 N 
ATOM     11  HN  UNL     1     -38.855 -52.056  15.026  1.00  0.00     0.168 HD
HETATM   12  C   UNL     1     -38.587 -49.998  14.758  1.00  0.00     0.183 A 
ENDROOT
BRANCH   2  13
HETATM   13  N   UNL     1     -39.563 -47.682  12.168  1.00  0.00    -0.258 NA
HETATM   14  C   UNL     1     -39.536 -46.418  12.921  1.00  0.00     0.065 C 
HETATM   15  C   UNL     1     -40.904 -46.415  13.647  1.00  0.00     0.028 C 
HETATM   16  C   UNL     1     -39.625 -45.409  11.752  1.00  0.00     0.022 C 
HETATM   17  C   UNL     1     -41.800 -47.232  12.680  1.00  0.00     0.029 C 
HETATM   18  C   UNL     1     -40.852 -47.461  11.475  1.00  0.00     0.071 C 
HETATM   19  C   UNL     1     -40.547 -46.132  10.752  1.00  0.00     0.022 C 
BRANCH  17  20
HETATM   20  C   UNL     1     -43.149 -46.605  12.392  1.00  0.00     0.170 C 
BRANCH  20  21
HETATM   21  O   UNL     1     -43.192 -45.295  12.952  1.00  0.00    -0.400 OA
HETATM   22  H   UNL     1     -44.127 -45.058  13.087  1.00  0.00     0.209 HD
ENDBRANCH  20  21
ENDBRANCH  17  20
ENDBRANCH   2  13
BRANCH   3  23
HETATM   23  C   UNL     1     -40.799 -53.436  13.544  1.00  0.00     0.138 C 
BRANCH  23  24
HETATM   24  C   UNL     1     -42.173 -53.444  14.252  1.00  0.00     0.034 C 
BRANCH  24  25
HETATM   25  C   UNL     1     -43.189 -54.447  13.645  1.00  0.00     0.019 C 
HETATM   26  C   UNL     1     -44.041 -53.852  12.515  1.00  0.00     0.172 C 
HETATM   27  O   UNL     1     -45.404 -53.894  12.951  1.00  0.00    -0.391 OA
HETATM   28  C   UNL     1     -45.516 -55.001  13.846  1.00  0.00     0.168 C 
HETATM   29  C   UNL     1     -44.219 -55.005  14.623  1.00  0.00     0.033 C 
ENDBRANCH  24  25
BRANCH  24  30
HETATM   30  C   UNL     1     -41.905 -53.695  15.754  1.00  0.00     0.170 C 
BRANCH  30  31
HETATM   31  O   UNL     1     -40.535 -53.437  16.050  1.00  0.00    -0.400 OA
HETATM   32  H   UNL     1     -40.252 -52.661  15.535  1.00  0.00     0.209 HD
ENDBRANCH  30  31
ENDBRANCH  24  30
ENDBRANCH  23  24
ENDBRANCH   3  23
TORSDOF 8
ENDMDL
