MODEL 1
REMARK VINA RESULT:      -5.2      0.000      0.000
REMARK  3 active torsions:
REMARK  status: ('A' for Active; 'I' for Inactive)
REMARK    1  A    between atoms: O_6  and  C_7 
REMARK    2  A    between atoms: C_7  and  C_8 
REMARK    3  A    between atoms: C_13  and  C_16 
ROOT
HETATM    1  C   UNL     3     -43.414 -52.331  12.601  1.00  0.00     0.105 A 
HETATM    2  N   UNL     3     -42.431 -53.201  12.273  1.00  0.00    -0.354 N 
ATOM      3  HN  UNL     3     -42.640 -54.198  12.222  1.00  0.00     0.166 HD
HETATM    4  C   UNL     3     -41.172 -52.771  12.010  1.00  0.00     0.091 A 
HETATM    5  C   UNL     3     -40.870 -51.409  12.070  1.00  0.00     0.042 A 
HETATM    6  C   UNL     3     -41.891 -50.498  12.400  1.00  0.00     0.017 A 
HETATM    7  N   UNL     3     -43.142 -50.993  12.650  1.00  0.00    -0.347 N 
ATOM      8  HN  UNL     3     -43.894 -50.344  12.880  1.00  0.00     0.167 HD
ENDROOT
BRANCH   6   9
HETATM    9  C   UNL     3     -41.704 -48.977  12.392  1.00  0.00     0.064 C 
HETATM   10  C   UNL     3     -42.979 -48.086  12.378  1.00  0.00     0.014 C 
HETATM   11  C   UNL     3     -43.631 -47.995  10.983  1.00  0.00     0.031 C 
HETATM   12  C   UNL     3     -42.583 -47.575   9.951  1.00  0.00     0.269 C 
HETATM   13  N   UNL     3     -41.479 -48.546   9.951  1.00  0.00     0.084 N 
HETATM   14  C   UNL     3     -40.781 -48.509  11.247  1.00  0.00     0.280 C 
HETATM   15  H   UNL     3     -40.801 -48.264   9.204  1.00  0.00     0.315 HD
ENDBRANCH   6   9
BRANCH   1  16
HETATM   16  C   UNL     3     -44.792 -52.859  12.886  1.00  0.00     0.243 C 
BRANCH  16  17
HETATM   17  O   UNL     3     -44.808 -54.247  12.618  1.00  0.00    -0.389 OA
HETATM   18  C   UNL     3     -45.367 -54.971  13.696  1.00  0.00     0.202 C 
ENDBRANCH  16  17
ENDBRANCH   1  16
TORSDOF 3
ENDMDL
MODEL 2
REMARK VINA RESULT:      -5.2      3.747      5.468
REMARK  3 active torsions:
REMARK  status: ('A' for Active; 'I' for Inactive)
REMARK    1  A    between atoms: O_6  and  C_7 
REMARK    2  A    between atoms: C_7  and  C_8 
REMARK    3  A    between atoms: C_13  and  C_16 
ROOT
HETATM    1  C   UNL     3     -42.996 -47.385   9.373  1.00  0.00     0.105 A 
HETATM    2  N   UNL     3     -42.490 -46.131   9.399  1.00  0.00    -0.354 N 
ATOM      3  HN  UNL     3     -42.869 -45.425   8.766  1.00  0.00     0.166 HD
HETATM    4  C   UNL     3     -41.490 -45.793  10.249  1.00  0.00     0.091 A 
HETATM    5  C   UNL     3     -40.964 -46.745  11.124  1.00  0.00     0.042 A 
HETATM    6  C   UNL     3     -41.493 -48.050  11.112  1.00  0.00     0.017 A 
HETATM    7  N   UNL     3     -42.506 -48.327  10.233  1.00  0.00    -0.347 N 
ATOM      8  HN  UNL     3     -42.906 -49.265  10.220  1.00  0.00     0.167 HD
ENDROOT
BRANCH   6   9
HETATM    9  C   UNL     3     -41.071 -49.145  12.097  1.00  0.00     0.064 C 
HETATM   10  C   UNL     3     -40.135 -48.745  13.274  1.00  0.00     0.014 C 
HETATM   11  C   UNL     3     -38.663 -48.590  12.842  1.00  0.00     0.031 C 
HETATM   12  C   UNL     3     -38.207 -49.849  12.103  1.00  0.00     0.269 C 
HETATM   13  N   UNL     3     -39.074 -50.073  10.936  1.00  0.00     0.084 N 
HETATM   14  C   UNL     3     -40.447 -50.362  11.382  1.00  0.00     0.280 C 
HETATM   15  H   UNL     3     -38.712 -50.909  10.420  1.00  0.00     0.315 HD
ENDBRANCH   6   9
BRANCH   1  16
HETATM   16  C   UNL     3     -44.104 -47.708   8.410  1.00  0.00     0.243 C 
BRANCH  16  17
HETATM   17  O   UNL     3     -45.336 -47.353   9.005  1.00  0.00    -0.389 OA
HETATM   18  C   UNL     3     -46.362 -48.253   8.635  1.00  0.00     0.202 C 
ENDBRANCH  16  17
ENDBRANCH   1  16
TORSDOF 3
ENDMDL
MODEL 3
REMARK VINA RESULT:      -5.0      2.877      5.199
REMARK  3 active torsions:
REMARK  status: ('A' for Active; 'I' for Inactive)
REMARK    1  A    between atoms: O_6  and  C_7 
REMARK    2  A    between atoms: C_7  and  C_8 
REMARK    3  A    between atoms: C_13  and  C_16 
ROOT
HETATM    1  C   UNL     3     -42.107 -51.484  12.720  1.00  0.00     0.105 A 
HETATM    2  N   UNL     3     -41.636 -50.632  13.660  1.00  0.00    -0.354 N 
ATOM      3  HN  UNL     3     -40.635 -50.436  13.703  1.00  0.00     0.166 HD
HETATM    4  C   UNL     3     -42.469 -50.033  14.547  1.00  0.00     0.091 A 
HETATM    5  C   UNL     3     -43.841 -50.287  14.500  1.00  0.00     0.042 A 
HETATM    6  C   UNL     3     -44.339 -51.163  13.517  1.00  0.00     0.017 A 
HETATM    7  N   UNL     3     -43.448 -51.733  12.648  1.00  0.00    -0.347 N 
ATOM      8  HN  UNL     3     -43.796 -52.362  11.924  1.00  0.00     0.167 HD
ENDROOT
BRANCH   6   9
HETATM    9  C   UNL     3     -45.833 -51.434  13.301  1.00  0.00     0.064 C 
HETATM   10  C   UNL     3     -46.778 -51.323  14.532  1.00  0.00     0.014 C 
HETATM   11  C   UNL     3     -46.706 -52.557  15.455  1.00  0.00     0.031 C 
HETATM   12  C   UNL     3     -46.922 -53.829  14.632  1.00  0.00     0.269 C 
HETATM   13  N   UNL     3     -45.904 -53.907  13.574  1.00  0.00     0.084 N 
HETATM   14  C   UNL     3     -46.086 -52.797  12.623  1.00  0.00     0.280 C 
HETATM   15  H   UNL     3     -46.042 -54.807  13.058  1.00  0.00     0.315 HD
ENDBRANCH   6   9
BRANCH   1  16
HETATM   16  C   UNL     3     -41.141 -52.123  11.762  1.00  0.00     0.243 C 
BRANCH  16  17
HETATM   17  O   UNL     3     -40.216 -52.894  12.502  1.00  0.00    -0.389 OA
HETATM   18  C   UNL     3     -40.780 -54.127  12.901  1.00  0.00     0.202 C 
ENDBRANCH  16  17
ENDBRANCH   1  16
TORSDOF 3
ENDMDL
MODEL 4
REMARK VINA RESULT:      -5.0      2.590      5.519
REMARK  3 active torsions:
REMARK  status: ('A' for Active; 'I' for Inactive)
REMARK    1  A    between atoms: O_6  and  C_7 
REMARK    2  A    between atoms: C_7  and  C_8 
REMARK    3  A    between atoms: C_13  and  C_16 
ROOT
HETATM    1  C   UNL     3     -42.131 -51.561  12.518  1.00  0.00     0.105 A 
HETATM    2  N   UNL     3     -41.236 -52.473  12.962  1.00  0.00    -0.354 N 
ATOM      3  HN  UNL     3     -40.248 -52.225  13.006  1.00  0.00     0.166 HD
HETATM    4  C   UNL     3     -41.629 -53.711  13.349  1.00  0.00     0.091 A 
HETATM    5  C   UNL     3     -42.978 -54.066  13.299  1.00  0.00     0.042 A 
HETATM    6  C   UNL     3     -43.917 -53.118  12.849  1.00  0.00     0.017 A 
HETATM    7  N   UNL     3     -43.458 -51.883  12.476  1.00  0.00    -0.347 N 
ATOM      8  HN  UNL     3     -44.128 -51.183  12.158  1.00  0.00     0.167 HD
ENDROOT
BRANCH   6   9
HETATM    9  C   UNL     3     -45.431 -53.357  12.852  1.00  0.00     0.064 C 
HETATM   10  C   UNL     3     -46.364 -52.112  12.836  1.00  0.00     0.014 C 
HETATM   11  C   UNL     3     -46.486 -51.436  14.217  1.00  0.00     0.031 C 
HETATM   12  C   UNL     3     -46.877 -52.478  15.267  1.00  0.00     0.269 C 
HETATM   13  N   UNL     3     -45.869 -53.548  15.295  1.00  0.00     0.084 N 
HETATM   14  C   UNL     3     -45.874 -54.273  14.013  1.00  0.00     0.280 C 
HETATM   15  H   UNL     3     -46.132 -54.220  16.053  1.00  0.00     0.315 HD
ENDBRANCH   6   9
BRANCH   1  16
HETATM   16  C   UNL     3     -41.644 -50.202  12.098  1.00  0.00     0.243 C 
BRANCH  16  17
HETATM   17  O   UNL     3     -40.485 -50.364  11.306  1.00  0.00    -0.389 OA
HETATM   18  C   UNL     3     -39.471 -49.457  11.690  1.00  0.00     0.202 C 
ENDBRANCH  16  17
ENDBRANCH   1  16
TORSDOF 3
ENDMDL
MODEL 5
REMARK VINA RESULT:      -4.8      4.224      5.824
REMARK  3 active torsions:
REMARK  status: ('A' for Active; 'I' for Inactive)
REMARK    1  A    between atoms: O_6  and  C_7 
REMARK    2  A    between atoms: C_7  and  C_8 
REMARK    3  A    between atoms: C_13  and  C_16 
ROOT
HETATM    1  C   UNL     3     -42.806 -47.292   9.658  1.00  0.00     0.105 A 
HETATM    2  N   UNL     3     -42.313 -48.456  10.140  1.00  0.00    -0.354 N 
ATOM      3  HN  UNL     3     -42.783 -49.332   9.912  1.00  0.00     0.166 HD
HETATM    4  C   UNL     3     -41.205 -48.480  10.921  1.00  0.00     0.091 A 
HETATM    5  C   UNL     3     -40.547 -47.290  11.240  1.00  0.00     0.042 A 
HETATM    6  C   UNL     3     -41.048 -46.076  10.732  1.00  0.00     0.017 A 
HETATM    7  N   UNL     3     -42.167 -46.119   9.945  1.00  0.00    -0.347 N 
ATOM      8  HN  UNL     3     -42.536 -45.249   9.561  1.00  0.00     0.167 HD
ENDROOT
BRANCH   6   9
HETATM    9  C   UNL     3     -40.351 -44.725  10.925  1.00  0.00     0.064 C 
HETATM   10  C   UNL     3     -39.274 -44.614  12.042  1.00  0.00     0.014 C 
HETATM   11  C   UNL     3     -39.886 -44.480  13.452  1.00  0.00     0.031 C 
HETATM   12  C   UNL     3     -40.900 -43.335  13.467  1.00  0.00     0.269 C 
HETATM   13  N   UNL     3     -41.946 -43.593  12.466  1.00  0.00     0.084 N 
HETATM   14  C   UNL     3     -41.359 -43.572  11.115  1.00  0.00     0.280 C 
HETATM   15  H   UNL     3     -42.652 -42.823  12.530  1.00  0.00     0.315 HD
ENDBRANCH   6   9
BRANCH   1  16
HETATM   16  C   UNL     3     -44.038 -47.320   8.798  1.00  0.00     0.243 C 
BRANCH  16  17
HETATM   17  O   UNL     3     -45.149 -47.634   9.613  1.00  0.00    -0.389 OA
HETATM   18  C   UNL     3     -46.335 -47.052   9.108  1.00  0.00     0.202 C 
ENDBRANCH  16  17
ENDBRANCH   1  16
TORSDOF 3
ENDMDL
MODEL 6
REMARK VINA RESULT:      -4.8      2.919      4.440
REMARK  3 active torsions:
REMARK  status: ('A' for Active; 'I' for Inactive)
REMARK    1  A    between atoms: O_6  and  C_7 
REMARK    2  A    between atoms: C_7  and  C_8 
REMARK    3  A    between atoms: C_13  and  C_16 
ROOT
HETATM    1  C   UNL     3     -45.502 -52.959  13.266  1.00  0.00     0.105 A 
HETATM    2  N   UNL     3     -46.056 -54.175  13.482  1.00  0.00    -0.354 N 
ATOM      3  HN  UNL     3     -47.033 -54.330  13.234  1.00  0.00     0.166 HD
HETATM    4  C   UNL     3     -45.336 -55.189  14.020  1.00  0.00     0.091 A 
HETATM    5  C   UNL     3     -43.996 -54.994  14.361  1.00  0.00     0.042 A 
HETATM    6  C   UNL     3     -43.410 -53.736  14.129  1.00  0.00     0.017 A 
HETATM    7  N   UNL     3     -44.188 -52.753  13.578  1.00  0.00    -0.347 N 
ATOM      8  HN  UNL     3     -43.774 -51.839  13.395  1.00  0.00     0.167 HD
ENDROOT
BRANCH   6   9
HETATM    9  C   UNL     3     -41.925 -53.437  14.363  1.00  0.00     0.064 C 
HETATM   10  C   UNL     3     -41.488 -51.946  14.457  1.00  0.00     0.014 C 
HETATM   11  C   UNL     3     -41.391 -51.262  13.078  1.00  0.00     0.031 C 
HETATM   12  C   UNL     3     -40.509 -52.098  12.149  1.00  0.00     0.269 C 
HETATM   13  N   UNL     3     -41.072 -53.451  12.024  1.00  0.00     0.084 N 
HETATM   14  C   UNL     3     -41.020 -54.136  13.326  1.00  0.00     0.280 C 
HETATM   15  H   UNL     3     -40.480 -53.986  11.347  1.00  0.00     0.315 HD
ENDBRANCH   6   9
BRANCH   1  16
HETATM   16  C   UNL     3     -46.343 -51.867  12.668  1.00  0.00     0.243 C 
BRANCH  16  17
HETATM   17  O   UNL     3     -46.847 -52.316  11.426  1.00  0.00    -0.389 OA
HETATM   18  C   UNL     3     -47.644 -51.324  10.808  1.00  0.00     0.202 C 
ENDBRANCH  16  17
ENDBRANCH   1  16
TORSDOF 3
ENDMDL
MODEL 7
REMARK VINA RESULT:      -4.7      1.478      2.375
REMARK  3 active torsions:
REMARK  status: ('A' for Active; 'I' for Inactive)
REMARK    1  A    between atoms: O_6  and  C_7 
REMARK    2  A    between atoms: C_7  and  C_8 
REMARK    3  A    between atoms: C_13  and  C_16 
ROOT
HETATM    1  C   UNL     3     -43.156 -52.933  12.504  1.00  0.00     0.105 A 
HETATM    2  N   UNL     3     -42.326 -53.937  12.870  1.00  0.00    -0.354 N 
ATOM      3  HN  UNL     3     -42.720 -54.831  13.164  1.00  0.00     0.166 HD
HETATM    4  C   UNL     3     -40.980 -53.777  12.855  1.00  0.00     0.091 A 
HETATM    5  C   UNL     3     -40.424 -52.561  12.452  1.00  0.00     0.042 A 
HETATM    6  C   UNL     3     -41.281 -51.516  12.058  1.00  0.00     0.017 A 
HETATM    7  N   UNL     3     -42.631 -51.742  12.091  1.00  0.00    -0.347 N 
ATOM      8  HN  UNL     3     -43.264 -50.997  11.799  1.00  0.00     0.167 HD
ENDROOT
BRANCH   6   9
HETATM    9  C   UNL     3     -40.785 -50.179  11.497  1.00  0.00     0.064 C 
HETATM   10  C   UNL     3     -39.327 -49.746  11.827  1.00  0.00     0.014 C 
HETATM   11  C   UNL     3     -39.179 -49.182  13.255  1.00  0.00     0.031 C 
HETATM   12  C   UNL     3     -40.210 -48.074  13.481  1.00  0.00     0.269 C 
HETATM   13  N   UNL     3     -41.562 -48.612  13.268  1.00  0.00     0.084 N 
HETATM   14  C   UNL     3     -41.726 -49.010  11.860  1.00  0.00     0.280 C 
HETATM   15  H   UNL     3     -42.249 -47.850  13.476  1.00  0.00     0.315 HD
ENDBRANCH   6   9
BRANCH   1  16
HETATM   16  C   UNL     3     -44.641 -53.162  12.541  1.00  0.00     0.243 C 
BRANCH  16  17
HETATM   17  O   UNL     3     -44.881 -54.551  12.635  1.00  0.00    -0.389 OA
HETATM   18  C   UNL     3     -45.570 -54.873  13.827  1.00  0.00     0.202 C 
ENDBRANCH  16  17
ENDBRANCH   1  16
TORSDOF 3
ENDMDL
MODEL 8
REMARK VINA RESULT:      -4.5      4.299      5.612
REMARK  3 active torsions:
REMARK  status: ('A' for Active; 'I' for Inactive)
REMARK    1  A    between atoms: O_6  and  C_7 
REMARK    2  A    between atoms: C_7  and  C_8 
REMARK    3  A    between atoms: C_13  and  C_16 
ROOT
HETATM    1  C   UNL     3     -42.238 -54.869  15.204  1.00  0.00     0.105 A 
HETATM    2  N   UNL     3     -41.341 -54.392  14.311  1.00  0.00    -0.354 N 
ATOM      3  HN  UNL     3     -40.345 -54.544  14.472  1.00  0.00     0.166 HD
HETATM    4  C   UNL     3     -41.740 -53.716  13.206  1.00  0.00     0.091 A 
HETATM    5  C   UNL     3     -43.100 -53.503  12.969  1.00  0.00     0.042 A 
HETATM    6  C   UNL     3     -44.040 -54.007  13.888  1.00  0.00     0.017 A 
HETATM    7  N   UNL     3     -43.573 -54.685  14.982  1.00  0.00    -0.347 N 
ATOM      8  HN  UNL     3     -44.243 -55.065  15.651  1.00  0.00     0.167 HD
ENDROOT
BRANCH   6   9
HETATM    9  C   UNL     3     -45.556 -53.928  13.678  1.00  0.00     0.064 C 
HETATM   10  C   UNL     3     -46.122 -52.700  12.908  1.00  0.00     0.014 C 
HETATM   11  C   UNL     3     -46.194 -51.429  13.778  1.00  0.00     0.031 C 
HETATM   12  C   UNL     3     -46.945 -51.734  15.075  1.00  0.00     0.269 C 
HETATM   13  N   UNL     3     -46.263 -52.821  15.793  1.00  0.00     0.084 N 
HETATM   14  C   UNL     3     -46.335 -54.063  15.004  1.00  0.00     0.280 C 
HETATM   15  H   UNL     3     -46.766 -52.977  16.698  1.00  0.00     0.315 HD
ENDBRANCH   6   9
BRANCH   1  16
HETATM   16  C   UNL     3     -41.743 -55.610  16.414  1.00  0.00     0.243 C 
BRANCH  16  17
HETATM   17  O   UNL     3     -42.853 -56.176  17.082  1.00  0.00    -0.389 OA
HETATM   18  C   UNL     3     -42.764 -55.983  18.479  1.00  0.00     0.202 C 
ENDBRANCH  16  17
ENDBRANCH   1  16
TORSDOF 3
ENDMDL
MODEL 9
REMARK VINA RESULT:      -4.5      3.981      6.334
REMARK  3 active torsions:
REMARK  status: ('A' for Active; 'I' for Inactive)
REMARK    1  A    between atoms: O_6  and  C_7 
REMARK    2  A    between atoms: C_7  and  C_8 
REMARK    3  A    between atoms: C_13  and  C_16 
ROOT
HETATM    1  C   UNL     3     -46.138 -53.287  17.411  1.00  0.00     0.105 A 
HETATM    2  N   UNL     3     -46.635 -52.047  17.623  1.00  0.00    -0.354 N 
ATOM      3  HN  UNL     3     -46.711 -51.694  18.578  1.00  0.00     0.166 HD
HETATM    4  C   UNL     3     -47.033 -51.263  16.591  1.00  0.00     0.091 A 
HETATM    5  C   UNL     3     -46.931 -51.729  15.279  1.00  0.00     0.042 A 
HETATM    6  C   UNL     3     -46.404 -53.014  15.050  1.00  0.00     0.017 A 
HETATM    7  N   UNL     3     -46.016 -53.754  16.133  1.00  0.00    -0.347 N 
ATOM      8  HN  UNL     3     -45.623 -54.684  15.982  1.00  0.00     0.167 HD
ENDROOT
BRANCH   6   9
HETATM    9  C   UNL     3     -46.146 -53.587  13.652  1.00  0.00     0.064 C 
HETATM   10  C   UNL     3     -45.043 -54.674  13.503  1.00  0.00     0.014 C 
HETATM   11  C   UNL     3     -43.618 -54.084  13.505  1.00  0.00     0.031 C 
HETATM   12  C   UNL     3     -43.520 -52.969  12.462  1.00  0.00     0.269 C 
HETATM   13  N   UNL     3     -44.517 -51.930  12.761  1.00  0.00     0.084 N 
HETATM   14  C   UNL     3     -45.874 -52.481  12.610  1.00  0.00     0.280 C 
HETATM   15  H   UNL     3     -44.397 -51.157  12.065  1.00  0.00     0.315 HD
ENDBRANCH   6   9
BRANCH   1  16
HETATM   16  C   UNL     3     -45.713 -54.117  18.590  1.00  0.00     0.243 C 
BRANCH  16  17
HETATM   17  O   UNL     3     -46.367 -55.367  18.521  1.00  0.00    -0.389 OA
HETATM   18  C   UNL     3     -46.459 -55.969  19.797  1.00  0.00     0.202 C 
ENDBRANCH  16  17
ENDBRANCH   1  16
TORSDOF 3
ENDMDL
