MODEL 1
REMARK VINA RESULT:      -6.1      0.000      0.000
REMARK  7 active torsions:
REMARK  status: ('A' for Active; 'I' for Inactive)
REMARK    1  A    between atoms: O_2  and  C_3 
REMARK    2  A    between atoms: C_3  and  C_4 
REMARK    3  A    between atoms: C_10  and  N_13 
REMARK    4  A    between atoms: C_17  and  O_19 
REMARK    5  A    between atoms: O_19  and  C_20 
REMARK    6  A    between atoms: C_20  and  C_21 
REMARK    7  A    between atoms: C_21  and  O_22 
ROOT
HETATM    1  C   UNL     1     -41.235 -49.085  11.032  1.00  0.00     0.107 A 
HETATM    2  N   UNL     1     -39.893 -49.029  11.074  1.00  0.00    -0.348 N 
ATOM      3  HN  UNL     1     -39.368 -48.308  10.579  1.00  0.00     0.167 HD
HETATM    4  C   UNL     1     -39.281 -49.976  11.803  1.00  0.00     0.010 A 
HETATM    5  C   UNL     1     -37.784 -49.976  11.836  1.00  0.00     0.068 C 
HETATM    6  C   UNL     1     -39.983 -50.940  12.502  1.00  0.00     0.073 A 
HETATM    7  C   UNL     1     -41.361 -50.935  12.420  1.00  0.00     0.106 A 
HETATM    8  N   UNL     1     -41.981 -50.014  11.664  1.00  0.00    -0.330 N 
ATOM      9  HN  UNL     1     -42.996 -50.018  11.569  1.00  0.00     0.168 HD
ENDROOT
BRANCH   7  10
HETATM   10  N   UNL     1     -42.127 -51.884  13.058  1.00  0.00    -0.365 N 
HETATM   11  C   UNL     1     -41.632 -52.773  14.098  1.00  0.00     0.124 C 
HETATM   12  C   UNL     1     -42.000 -54.202  13.706  1.00  0.00     0.022 C 
HETATM   13  C   UNL     1     -43.509 -54.338  13.467  1.00  0.00     0.035 C 
HETATM   14  C   UNL     1     -44.040 -53.292  12.467  1.00  0.00     0.139 C 
HETATM   15  C   UNL     1     -43.577 -51.874  12.885  1.00  0.00     0.156 C 
BRANCH  14  16
HETATM   16  O   UNL     1     -45.472 -53.418  12.411  1.00  0.00    -0.382 OA
BRANCH  16  17
HETATM   17  C   UNL     1     -46.149 -52.252  12.909  1.00  0.00     0.194 C 
BRANCH  17  18
HETATM   18  C   UNL     1     -46.952 -51.614  11.782  1.00  0.00     0.190 C 
BRANCH  18  19
HETATM   19  O   UNL     1     -47.525 -52.628  10.958  1.00  0.00    -0.399 OA
HETATM   20  H   UNL     1     -48.478 -52.420  10.923  1.00  0.00     0.209 HD
ENDBRANCH  18  19
ENDBRANCH  17  18
ENDBRANCH  16  17
ENDBRANCH  14  16
ENDBRANCH   7  10
BRANCH   1  21
HETATM   21  C   UNL     1     -41.956 -47.973  10.294  1.00  0.00     0.243 C 
BRANCH  21  22
HETATM   22  O   UNL     1     -43.341 -47.825  10.651  1.00  0.00    -0.389 OA
HETATM   23  C   UNL     1     -44.122 -47.300   9.586  1.00  0.00     0.202 C 
ENDBRANCH  21  22
ENDBRANCH   1  21
TORSDOF 7
ENDMDL
MODEL 2
REMARK VINA RESULT:      -5.8      1.804      3.140
REMARK  7 active torsions:
REMARK  status: ('A' for Active; 'I' for Inactive)
REMARK    1  A    between atoms: O_2  and  C_3 
REMARK    2  A    between atoms: C_3  and  C_4 
REMARK    3  A    between atoms: C_10  and  N_13 
REMARK    4  A    between atoms: C_17  and  O_19 
REMARK    5  A    between atoms: O_19  and  C_20 
REMARK    6  A    between atoms: C_20  and  C_21 
REMARK    7  A    between atoms: C_21  and  O_22 
ROOT
HETATM    1  C   UNL     1     -42.711 -47.471   9.796  1.00  0.00     0.107 A 
HETATM    2  N   UNL     1     -41.944 -46.368   9.736  1.00  0.00    -0.348 N 
ATOM      3  HN  UNL     1     -42.174 -45.585   9.125  1.00  0.00     0.167 HD
HETATM    4  C   UNL     1     -40.858 -46.357  10.526  1.00  0.00     0.010 A 
HETATM    5  C   UNL     1     -39.953 -45.166  10.453  1.00  0.00     0.068 C 
HETATM    6  C   UNL     1     -40.553 -47.400  11.379  1.00  0.00     0.073 A 
HETATM    7  C   UNL     1     -41.388 -48.499  11.394  1.00  0.00     0.106 A 
HETATM    8  N   UNL     1     -42.456 -48.537  10.582  1.00  0.00    -0.330 N 
ATOM      9  HN  UNL     1     -43.063 -49.355  10.560  1.00  0.00     0.168 HD
ENDROOT
BRANCH   7  10
HETATM   10  N   UNL     1     -41.130 -49.593  12.190  1.00  0.00    -0.365 N 
HETATM   11  C   UNL     1     -39.926 -49.757  12.992  1.00  0.00     0.124 C 
HETATM   12  C   UNL     1     -39.330 -51.125  12.665  1.00  0.00     0.022 C 
HETATM   13  C   UNL     1     -40.357 -52.242  12.886  1.00  0.00     0.035 C 
HETATM   14  C   UNL     1     -41.680 -51.976  12.140  1.00  0.00     0.139 C 
HETATM   15  C   UNL     1     -42.196 -50.552  12.463  1.00  0.00     0.156 C 
BRANCH  14  16
HETATM   16  O   UNL     1     -42.613 -53.006  12.513  1.00  0.00    -0.382 OA
BRANCH  16  17
HETATM   17  C   UNL     1     -43.878 -52.475  12.942  1.00  0.00     0.194 C 
BRANCH  17  18
HETATM   18  C   UNL     1     -44.927 -53.581  12.910  1.00  0.00     0.190 C 
BRANCH  18  19
HETATM   19  O   UNL     1     -46.087 -53.132  12.213  1.00  0.00    -0.399 OA
HETATM   20  H   UNL     1     -46.835 -53.594  12.638  1.00  0.00     0.209 HD
ENDBRANCH  18  19
ENDBRANCH  17  18
ENDBRANCH  16  17
ENDBRANCH  14  16
ENDBRANCH   7  10
BRANCH   1  21
HETATM   21  C   UNL     1     -43.994 -47.472   8.987  1.00  0.00     0.243 C 
BRANCH  21  22
HETATM   22  O   UNL     1     -45.189 -47.621   9.771  1.00  0.00    -0.389 OA
HETATM   23  C   UNL     1     -46.351 -47.189   9.075  1.00  0.00     0.202 C 
ENDBRANCH  21  22
ENDBRANCH   1  21
TORSDOF 7
ENDMDL
MODEL 3
REMARK VINA RESULT:      -5.8      1.060      1.377
REMARK  7 active torsions:
REMARK  status: ('A' for Active; 'I' for Inactive)
REMARK    1  A    between atoms: O_2  and  C_3 
REMARK    2  A    between atoms: C_3  and  C_4 
REMARK    3  A    between atoms: C_10  and  N_13 
REMARK    4  A    between atoms: C_17  and  O_19 
REMARK    5  A    between atoms: O_19  and  C_20 
REMARK    6  A    between atoms: C_20  and  C_21 
REMARK    7  A    between atoms: C_21  and  O_22 
ROOT
HETATM    1  C   UNL     1     -41.247 -49.084  11.016  1.00  0.00     0.107 A 
HETATM    2  N   UNL     1     -39.904 -49.027  10.995  1.00  0.00    -0.348 N 
ATOM      3  HN  UNL     1     -39.404 -48.300  10.482  1.00  0.00     0.167 HD
HETATM    4  C   UNL     1     -39.257 -49.979  11.686  1.00  0.00     0.010 A 
HETATM    5  C   UNL     1     -37.760 -49.976  11.647  1.00  0.00     0.068 C 
HETATM    6  C   UNL     1     -39.924 -50.950  12.408  1.00  0.00     0.073 A 
HETATM    7  C   UNL     1     -41.304 -50.946  12.392  1.00  0.00     0.106 A 
HETATM    8  N   UNL     1     -41.961 -50.020  11.674  1.00  0.00    -0.330 N 
ATOM      9  HN  UNL     1     -42.979 -50.025  11.628  1.00  0.00     0.168 HD
ENDROOT
BRANCH   7  10
HETATM   10  N   UNL     1     -42.038 -51.903  13.057  1.00  0.00    -0.365 N 
HETATM   11  C   UNL     1     -41.501 -52.778  14.089  1.00  0.00     0.124 C 
HETATM   12  C   UNL     1     -41.859 -54.214  13.715  1.00  0.00     0.022 C 
HETATM   13  C   UNL     1     -43.371 -54.374  13.520  1.00  0.00     0.035 C 
HETATM   14  C   UNL     1     -43.945 -53.342  12.529  1.00  0.00     0.139 C 
HETATM   15  C   UNL     1     -43.492 -51.915  12.925  1.00  0.00     0.156 C 
BRANCH  14  16
HETATM   16  O   UNL     1     -45.376 -53.490  12.514  1.00  0.00    -0.382 OA
BRANCH  16  17
HETATM   17  C   UNL     1     -46.046 -52.453  13.249  1.00  0.00     0.194 C 
BRANCH  17  18
HETATM   18  C   UNL     1     -46.764 -53.065  14.446  1.00  0.00     0.190 C 
BRANCH  18  19
HETATM   19  O   UNL     1     -46.856 -54.480  14.288  1.00  0.00    -0.399 OA
HETATM   20  H   UNL     1     -47.550 -54.618  13.615  1.00  0.00     0.209 HD
ENDBRANCH  18  19
ENDBRANCH  17  18
ENDBRANCH  16  17
ENDBRANCH  14  16
ENDBRANCH   7  10
BRANCH   1  21
HETATM   21  C   UNL     1     -42.003 -47.967  10.324  1.00  0.00     0.243 C 
BRANCH  21  22
HETATM   22  O   UNL     1     -41.389 -46.673  10.441  1.00  0.00    -0.389 OA
HETATM   23  C   UNL     1     -42.249 -45.717  11.048  1.00  0.00     0.202 C 
ENDBRANCH  21  22
ENDBRANCH   1  21
TORSDOF 7
ENDMDL
MODEL 4
REMARK VINA RESULT:      -5.6      3.125      5.307
REMARK  7 active torsions:
REMARK  status: ('A' for Active; 'I' for Inactive)
REMARK    1  A    between atoms: O_2  and  C_3 
REMARK    2  A    between atoms: C_3  and  C_4 
REMARK    3  A    between atoms: C_10  and  N_13 
REMARK    4  A    between atoms: C_17  and  O_19 
REMARK    5  A    between atoms: O_19  and  C_20 
REMARK    6  A    between atoms: C_20  and  C_21 
REMARK    7  A    between atoms: C_21  and  O_22 
ROOT
HETATM    1  C   UNL     1     -43.095 -46.993   9.593  1.00  0.00     0.107 A 
HETATM    2  N   UNL     1     -42.251 -45.947   9.621  1.00  0.00    -0.348 N 
ATOM      3  HN  UNL     1     -42.430 -45.097   9.087  1.00  0.00     0.167 HD
HETATM    4  C   UNL     1     -41.160 -46.084  10.391  1.00  0.00     0.010 A 
HETATM    5  C   UNL     1     -40.172 -44.959  10.411  1.00  0.00     0.068 C 
HETATM    6  C   UNL     1     -40.922 -47.220  11.142  1.00  0.00     0.073 A 
HETATM    7  C   UNL     1     -41.834 -48.254  11.071  1.00  0.00     0.106 A 
HETATM    8  N   UNL     1     -42.910 -48.142  10.276  1.00  0.00    -0.330 N 
ATOM      9  HN  UNL     1     -43.575 -48.910  10.191  1.00  0.00     0.168 HD
ENDROOT
BRANCH   7  10
HETATM   10  N   UNL     1     -41.648 -49.431  11.761  1.00  0.00    -0.365 N 
HETATM   11  C   UNL     1     -42.624 -50.010  12.673  1.00  0.00     0.124 C 
HETATM   12  C   UNL     1     -41.914 -50.303  13.992  1.00  0.00     0.022 C 
HETATM   13  C   UNL     1     -40.690 -51.202  13.772  1.00  0.00     0.035 C 
HETATM   14  C   UNL     1     -39.739 -50.641  12.697  1.00  0.00     0.139 C 
HETATM   15  C   UNL     1     -40.531 -50.302  11.410  1.00  0.00     0.156 C 
BRANCH  14  16
HETATM   16  O   UNL     1     -38.700 -51.611  12.475  1.00  0.00    -0.382 OA
BRANCH  16  17
HETATM   17  C   UNL     1     -37.388 -51.024  12.468  1.00  0.00     0.194 C 
BRANCH  17  18
HETATM   18  C   UNL     1     -37.363 -49.855  11.491  1.00  0.00     0.190 C 
BRANCH  18  19
HETATM   19  O   UNL     1     -37.190 -50.336  10.160  1.00  0.00    -0.399 OA
HETATM   20  H   UNL     1     -36.380 -49.899   9.833  1.00  0.00     0.209 HD
ENDBRANCH  18  19
ENDBRANCH  17  18
ENDBRANCH  16  17
ENDBRANCH  14  16
ENDBRANCH   7  10
BRANCH   1  21
HETATM   21  C   UNL     1     -44.382 -46.830   8.808  1.00  0.00     0.243 C 
BRANCH  21  22
HETATM   22  O   UNL     1     -44.949 -48.063   8.334  1.00  0.00    -0.389 OA
HETATM   23  C   UNL     1     -46.322 -48.196   8.676  1.00  0.00     0.202 C 
ENDBRANCH  21  22
ENDBRANCH   1  21
TORSDOF 7
ENDMDL
MODEL 5
REMARK VINA RESULT:      -5.6      1.603      5.764
REMARK  7 active torsions:
REMARK  status: ('A' for Active; 'I' for Inactive)
REMARK    1  A    between atoms: O_2  and  C_3 
REMARK    2  A    between atoms: C_3  and  C_4 
REMARK    3  A    between atoms: C_10  and  N_13 
REMARK    4  A    between atoms: C_17  and  O_19 
REMARK    5  A    between atoms: O_19  and  C_20 
REMARK    6  A    between atoms: C_20  and  C_21 
REMARK    7  A    between atoms: C_21  and  O_22 
ROOT
HETATM    1  C   UNL     1     -42.876 -52.398  12.639  1.00  0.00     0.107 A 
HETATM    2  N   UNL     1     -42.021 -53.312  13.129  1.00  0.00    -0.348 N 
ATOM      3  HN  UNL     1     -42.339 -54.222  13.462  1.00  0.00     0.167 HD
HETATM    4  C   UNL     1     -40.726 -52.960  13.157  1.00  0.00     0.010 A 
HETATM    5  C   UNL     1     -39.748 -53.934  13.740  1.00  0.00     0.068 C 
HETATM    6  C   UNL     1     -40.281 -51.741  12.681  1.00  0.00     0.073 A 
HETATM    7  C   UNL     1     -41.213 -50.852  12.185  1.00  0.00     0.106 A 
HETATM    8  N   UNL     1     -42.514 -51.180  12.186  1.00  0.00    -0.330 N 
ATOM      9  HN  UNL     1     -43.216 -50.521  11.852  1.00  0.00     0.168 HD
ENDROOT
BRANCH   7  10
HETATM   10  N   UNL     1     -40.850 -49.605  11.727  1.00  0.00    -0.365 N 
HETATM   11  C   UNL     1     -39.484 -49.102  11.712  1.00  0.00     0.124 C 
HETATM   12  C   UNL     1     -39.481 -47.738  12.398  1.00  0.00     0.022 C 
HETATM   13  C   UNL     1     -40.481 -46.783  11.733  1.00  0.00     0.035 C 
HETATM   14  C   UNL     1     -41.892 -47.394  11.631  1.00  0.00     0.139 C 
HETATM   15  C   UNL     1     -41.818 -48.801  10.988  1.00  0.00     0.156 C 
BRANCH  14  16
HETATM   16  O   UNL     1     -42.716 -46.481  10.883  1.00  0.00    -0.382 OA
BRANCH  16  17
HETATM   17  C   UNL     1     -43.551 -47.150   9.923  1.00  0.00     0.194 C 
BRANCH  17  18
HETATM   18  C   UNL     1     -43.863 -46.198   8.775  1.00  0.00     0.190 C 
BRANCH  18  19
HETATM   19  O   UNL     1     -42.716 -46.045   7.942  1.00  0.00    -0.399 OA
HETATM   20  H   UNL     1     -41.952 -46.227   8.523  1.00  0.00     0.209 HD
ENDBRANCH  18  19
ENDBRANCH  17  18
ENDBRANCH  16  17
ENDBRANCH  14  16
ENDBRANCH   7  10
BRANCH   1  21
HETATM   21  C   UNL     1     -44.331 -52.804  12.507  1.00  0.00     0.243 C 
BRANCH  21  22
HETATM   22  O   UNL     1     -44.544 -54.221  12.396  1.00  0.00    -0.389 OA
HETATM   23  C   UNL     1     -45.267 -54.750  13.501  1.00  0.00     0.202 C 
ENDBRANCH  21  22
ENDBRANCH   1  21
TORSDOF 7
ENDMDL
MODEL 6
REMARK VINA RESULT:      -5.5      3.156      5.012
REMARK  7 active torsions:
REMARK  status: ('A' for Active; 'I' for Inactive)
REMARK    1  A    between atoms: O_2  and  C_3 
REMARK    2  A    between atoms: C_3  and  C_4 
REMARK    3  A    between atoms: C_10  and  N_13 
REMARK    4  A    between atoms: C_17  and  O_19 
REMARK    5  A    between atoms: O_19  and  C_20 
REMARK    6  A    between atoms: C_20  and  C_21 
REMARK    7  A    between atoms: C_21  and  O_22 
ROOT
HETATM    1  C   UNL     1     -41.803 -47.199  10.375  1.00  0.00     0.107 A 
HETATM    2  N   UNL     1     -41.457 -45.916  10.170  1.00  0.00    -0.348 N 
ATOM      3  HN  UNL     1     -41.929 -45.334   9.479  1.00  0.00     0.167 HD
HETATM    4  C   UNL     1     -40.454 -45.444  10.927  1.00  0.00     0.010 A 
HETATM    5  C   UNL     1     -40.007 -44.033  10.696  1.00  0.00     0.068 C 
HETATM    6  C   UNL     1     -39.825 -46.214  11.888  1.00  0.00     0.073 A 
HETATM    7  C   UNL     1     -40.236 -47.522  12.049  1.00  0.00     0.106 A 
HETATM    8  N   UNL     1     -41.214 -48.015  11.272  1.00  0.00    -0.330 N 
ATOM      9  HN  UNL     1     -41.506 -48.988  11.360  1.00  0.00     0.168 HD
ENDROOT
BRANCH   7  10
HETATM   10  N   UNL     1     -39.635 -48.362  12.959  1.00  0.00    -0.365 N 
HETATM   11  C   UNL     1     -38.829 -47.909  14.084  1.00  0.00     0.124 C 
HETATM   12  C   UNL     1     -37.501 -48.660  14.039  1.00  0.00     0.022 C 
HETATM   13  C   UNL     1     -37.724 -50.178  14.031  1.00  0.00     0.035 C 
HETATM   14  C   UNL     1     -38.695 -50.620  12.919  1.00  0.00     0.139 C 
HETATM   15  C   UNL     1     -39.992 -49.777  12.979  1.00  0.00     0.156 C 
BRANCH  14  16
HETATM   16  O   UNL     1     -38.937 -52.030  13.077  1.00  0.00    -0.382 OA
BRANCH  16  17
HETATM   17  C   UNL     1     -40.288 -52.317  13.472  1.00  0.00     0.194 C 
BRANCH  17  18
HETATM   18  C   UNL     1     -40.792 -53.533  12.704  1.00  0.00     0.190 C 
BRANCH  18  19
HETATM   19  O   UNL     1     -40.629 -53.326  11.302  1.00  0.00    -0.399 OA
HETATM   20  H   UNL     1     -39.717 -53.614  11.105  1.00  0.00     0.209 HD
ENDBRANCH  18  19
ENDBRANCH  17  18
ENDBRANCH  16  17
ENDBRANCH  14  16
ENDBRANCH   7  10
BRANCH   1  21
HETATM   21  C   UNL     1     -42.995 -47.730   9.602  1.00  0.00     0.243 C 
BRANCH  21  22
HETATM   22  O   UNL     1     -44.270 -47.395  10.174  1.00  0.00    -0.389 OA
HETATM   23  C   UNL     1     -45.315 -47.396   9.210  1.00  0.00     0.202 C 
ENDBRANCH  21  22
ENDBRANCH   1  21
TORSDOF 7
ENDMDL
MODEL 7
REMARK VINA RESULT:      -5.4      3.708      5.422
REMARK  7 active torsions:
REMARK  status: ('A' for Active; 'I' for Inactive)
REMARK    1  A    between atoms: O_2  and  C_3 
REMARK    2  A    between atoms: C_3  and  C_4 
REMARK    3  A    between atoms: C_10  and  N_13 
REMARK    4  A    between atoms: C_17  and  O_19 
REMARK    5  A    between atoms: O_19  and  C_20 
REMARK    6  A    between atoms: C_20  and  C_21 
REMARK    7  A    between atoms: C_21  and  O_22 
ROOT
HETATM    1  C   UNL     1     -40.428 -45.853  10.619  1.00  0.00     0.107 A 
HETATM    2  N   UNL     1     -41.566 -46.103   9.948  1.00  0.00    -0.348 N 
ATOM      3  HN  UNL     1     -41.991 -45.409   9.332  1.00  0.00     0.167 HD
HETATM    4  C   UNL     1     -42.111 -47.315  10.132  1.00  0.00     0.010 A 
HETATM    5  C   UNL     1     -43.404 -47.614   9.438  1.00  0.00     0.068 C 
HETATM    6  C   UNL     1     -41.529 -48.273  10.941  1.00  0.00     0.073 A 
HETATM    7  C   UNL     1     -40.357 -47.951  11.596  1.00  0.00     0.106 A 
HETATM    8  N   UNL     1     -39.822 -46.729  11.446  1.00  0.00    -0.330 N 
ATOM      9  HN  UNL     1     -38.974 -46.468  11.949  1.00  0.00     0.168 HD
ENDROOT
BRANCH   7  10
HETATM   10  N   UNL     1     -39.737 -48.839  12.446  1.00  0.00    -0.365 N 
HETATM   11  C   UNL     1     -38.362 -48.708  12.908  1.00  0.00     0.124 C 
HETATM   12  C   UNL     1     -37.651 -50.032  12.639  1.00  0.00     0.022 C 
HETATM   13  C   UNL     1     -38.396 -51.202  13.294  1.00  0.00     0.035 C 
HETATM   14  C   UNL     1     -39.887 -51.238  12.903  1.00  0.00     0.139 C 
HETATM   15  C   UNL     1     -40.532 -49.849  13.137  1.00  0.00     0.156 C 
BRANCH  14  16
HETATM   16  O   UNL     1     -40.520 -52.283  13.663  1.00  0.00    -0.382 OA
BRANCH  16  17
HETATM   17  C   UNL     1     -39.583 -53.036  14.453  1.00  0.00     0.194 C 
BRANCH  17  18
HETATM   18  C   UNL     1     -39.740 -54.520  14.143  1.00  0.00     0.190 C 
BRANCH  18  19
HETATM   19  O   UNL     1     -38.640 -54.973  13.357  1.00  0.00    -0.399 OA
HETATM   20  H   UNL     1     -37.862 -54.500  13.710  1.00  0.00     0.209 HD
ENDBRANCH  18  19
ENDBRANCH  17  18
ENDBRANCH  16  17
ENDBRANCH  14  16
ENDBRANCH   7  10
BRANCH   1  21
HETATM   21  C   UNL     1     -39.740 -44.528  10.356  1.00  0.00     0.243 C 
BRANCH  21  22
HETATM   22  O   UNL     1     -40.580 -43.376  10.536  1.00  0.00    -0.389 OA
HETATM   23  C   UNL     1     -40.445 -42.802  11.830  1.00  0.00     0.202 C 
ENDBRANCH  21  22
ENDBRANCH   1  21
TORSDOF 7
ENDMDL
MODEL 8
REMARK VINA RESULT:      -5.2      3.511      6.140
REMARK  7 active torsions:
REMARK  status: ('A' for Active; 'I' for Inactive)
REMARK    1  A    between atoms: O_2  and  C_3 
REMARK    2  A    between atoms: C_3  and  C_4 
REMARK    3  A    between atoms: C_10  and  N_13 
REMARK    4  A    between atoms: C_17  and  O_19 
REMARK    5  A    between atoms: O_19  and  C_20 
REMARK    6  A    between atoms: C_20  and  C_21 
REMARK    7  A    between atoms: C_21  and  O_22 
ROOT
HETATM    1  C   UNL     1     -42.542 -47.438   9.730  1.00  0.00     0.107 A 
HETATM    2  N   UNL     1     -42.049 -46.189   9.807  1.00  0.00    -0.348 N 
ATOM      3  HN  UNL     1     -42.483 -45.408   9.315  1.00  0.00     0.167 HD
HETATM    4  C   UNL     1     -40.955 -46.028  10.566  1.00  0.00     0.010 A 
HETATM    5  C   UNL     1     -40.348 -44.661  10.639  1.00  0.00     0.068 C 
HETATM    6  C   UNL     1     -40.376 -47.074  11.260  1.00  0.00     0.073 A 
HETATM    7  C   UNL     1     -40.937 -48.329  11.142  1.00  0.00     0.106 A 
HETATM    8  N   UNL     1     -42.011 -48.508  10.356  1.00  0.00    -0.330 N 
ATOM      9  HN  UNL     1     -42.417 -49.435  10.234  1.00  0.00     0.168 HD
ENDROOT
BRANCH   7  10
HETATM   10  N   UNL     1     -40.397 -49.426  11.773  1.00  0.00    -0.365 N 
HETATM   11  C   UNL     1     -41.076 -50.706  11.919  1.00  0.00     0.124 C 
HETATM   12  C   UNL     1     -41.024 -51.096  13.394  1.00  0.00     0.022 C 
HETATM   13  C   UNL     1     -39.579 -51.121  13.909  1.00  0.00     0.035 C 
HETATM   14  C   UNL     1     -38.832 -49.804  13.616  1.00  0.00     0.139 C 
HETATM   15  C   UNL     1     -38.979 -49.431  12.120  1.00  0.00     0.156 C 
BRANCH  14  16
HETATM   16  O   UNL     1     -37.461 -49.974  14.018  1.00  0.00    -0.382 OA
BRANCH  16  17
HETATM   17  C   UNL     1     -37.132 -49.215  15.193  1.00  0.00     0.194 C 
BRANCH  17  18
HETATM   18  C   UNL     1     -36.134 -49.998  16.037  1.00  0.00     0.190 C 
BRANCH  18  19
HETATM   19  O   UNL     1     -34.975 -49.203  16.284  1.00  0.00    -0.399 OA
HETATM   20  H   UNL     1     -34.579 -49.574  17.095  1.00  0.00     0.209 HD
ENDBRANCH  18  19
ENDBRANCH  17  18
ENDBRANCH  16  17
ENDBRANCH  14  16
ENDBRANCH   7  10
BRANCH   1  21
HETATM   21  C   UNL     1     -43.833 -47.632   8.957  1.00  0.00     0.243 C 
BRANCH  21  22
HETATM   22  O   UNL     1     -45.021 -47.579   9.763  1.00  0.00    -0.389 OA
HETATM   23  C   UNL     1     -46.104 -46.946   9.093  1.00  0.00     0.202 C 
ENDBRANCH  21  22
ENDBRANCH   1  21
TORSDOF 7
ENDMDL
MODEL 9
REMARK VINA RESULT:      -5.2      2.750      4.290
REMARK  7 active torsions:
REMARK  status: ('A' for Active; 'I' for Inactive)
REMARK    1  A    between atoms: O_2  and  C_3 
REMARK    2  A    between atoms: C_3  and  C_4 
REMARK    3  A    between atoms: C_10  and  N_13 
REMARK    4  A    between atoms: C_17  and  O_19 
REMARK    5  A    between atoms: O_19  and  C_20 
REMARK    6  A    between atoms: C_20  and  C_21 
REMARK    7  A    between atoms: C_21  and  O_22 
ROOT
HETATM    1  C   UNL     1     -41.480 -49.196  11.296  1.00  0.00     0.107 A 
HETATM    2  N   UNL     1     -40.175 -48.881  11.213  1.00  0.00    -0.348 N 
ATOM      3  HN  UNL     1     -39.861 -47.982  10.847  1.00  0.00     0.167 HD
HETATM    4  C   UNL     1     -39.310 -49.815  11.639  1.00  0.00     0.010 A 
HETATM    5  C   UNL     1     -37.847 -49.520  11.519  1.00  0.00     0.068 C 
HETATM    6  C   UNL     1     -39.726 -51.024  12.163  1.00  0.00     0.073 A 
HETATM    7  C   UNL     1     -41.081 -51.280  12.225  1.00  0.00     0.106 A 
HETATM    8  N   UNL     1     -41.954 -50.367  11.768  1.00  0.00    -0.330 N 
ATOM      9  HN  UNL     1     -42.956 -50.556  11.779  1.00  0.00     0.168 HD
ENDROOT
BRANCH   7  10
HETATM   10  N   UNL     1     -41.571 -52.475  12.701  1.00  0.00    -0.365 N 
HETATM   11  C   UNL     1     -42.929 -52.951  12.480  1.00  0.00     0.124 C 
HETATM   12  C   UNL     1     -43.517 -53.331  13.838  1.00  0.00     0.022 C 
HETATM   13  C   UNL     1     -42.630 -54.356  14.555  1.00  0.00     0.035 C 
HETATM   14  C   UNL     1     -41.163 -53.894  14.651  1.00  0.00     0.139 C 
HETATM   15  C   UNL     1     -40.649 -53.461  13.256  1.00  0.00     0.156 C 
BRANCH  14  16
HETATM   16  O   UNL     1     -40.395 -54.971  15.219  1.00  0.00    -0.382 OA
BRANCH  16  17
HETATM   17  C   UNL     1     -38.979 -54.772  15.081  1.00  0.00     0.194 C 
BRANCH  17  18
HETATM   18  C   UNL     1     -38.245 -55.651  16.086  1.00  0.00     0.190 C 
BRANCH  18  19
HETATM   19  O   UNL     1     -39.090 -56.719  16.509  1.00  0.00    -0.399 OA
HETATM   20  H   UNL     1     -38.995 -56.752  17.480  1.00  0.00     0.209 HD
ENDBRANCH  18  19
ENDBRANCH  17  18
ENDBRANCH  16  17
ENDBRANCH  14  16
ENDBRANCH   7  10
BRANCH   1  21
HETATM   21  C   UNL     1     -42.482 -48.124  10.912  1.00  0.00     0.243 C 
BRANCH  21  22
HETATM   22  O   UNL     1     -42.570 -47.873   9.499  1.00  0.00    -0.389 OA
HETATM   23  C   UNL     1     -43.161 -46.614   9.208  1.00  0.00     0.202 C 
ENDBRANCH  21  22
ENDBRANCH   1  21
TORSDOF 7
ENDMDL
