MODEL 1
REMARK VINA RESULT:      -6.9      0.000      0.000
REMARK  4 active torsions:
REMARK  status: ('A' for Active; 'I' for Inactive)
REMARK    1  A    between atoms: C_2  and  N_3 
REMARK    2  A    between atoms: C_8  and  N_9 
REMARK       I    between atoms: N_9  and  C_10 
REMARK       I    between atoms: C_10  and  N_12 
REMARK    3  A    between atoms: N_12  and  C_13 
REMARK    4  A    between atoms: C_19  and  C_20 
ROOT
HETATM    1  N   UNL     1     -42.104 -49.703  11.609  1.00  0.00    -0.304 N 
HETATM    2  C   UNL     1     -42.570 -49.985  12.871  1.00  0.00     0.321 C 
HETATM    3  O   UNL     1     -42.831 -49.138  13.722  1.00  0.00    -0.247 OA
HETATM    4  N   UNL     1     -42.754 -51.327  13.104  1.00  0.00    -0.338 N 
HETATM    5  H   UNL     1     -41.593 -50.421  11.112  1.00  0.00     0.171 HD
HETATM    6  H   UNL     1     -42.399 -51.997  12.439  1.00  0.00     0.164 HD
ENDROOT
BRANCH   1   7
HETATM    7  C   UNL     1     -41.988 -48.432  11.073  1.00  0.00     0.102 A 
HETATM    8  C   UNL     1     -40.701 -47.692  11.300  1.00  0.00     0.201 A 
HETATM    9  C   UNL     1     -40.600 -46.300  10.786  1.00  0.00     0.074 A 
HETATM   10  O   UNL     1     -39.766 -48.213  11.905  1.00  0.00    -0.286 OA
HETATM   11  C   UNL     1     -41.633 -45.804  10.093  1.00  0.00     0.094 A 
HETATM   12  N   UNL     1     -42.799 -46.505   9.830  1.00  0.00    -0.364 N 
HETATM   13  C   UNL     1     -42.918 -47.791  10.348  1.00  0.00     0.124 A 
BRANCH  12  14
HETATM   14  C   UNL     1     -43.876 -45.938   9.001  1.00  0.00     0.123 C 
HETATM   15  C   UNL     1     -45.105 -46.834   9.040  1.00  0.00     0.027 C 
ENDBRANCH  12  14
ENDBRANCH   1   7
BRANCH   4  16
HETATM   16  C   UNL     1     -43.196 -51.784  14.425  1.00  0.00     0.090 C 
HETATM   17  C   UNL     1     -42.114 -52.650  15.093  1.00  0.00     0.029 C 
HETATM   18  C   UNL     1     -42.030 -54.070  14.519  1.00  0.00    -0.017 C 
HETATM   19  C   UNL     1     -41.024 -54.907  15.312  1.00  0.00     0.010 C 
HETATM   20  C   UNL     1     -43.406 -54.738  14.537  1.00  0.00     0.005 C 
HETATM   21  C   UNL     1     -44.455 -53.904  13.807  1.00  0.00     0.007 C 
HETATM   22  C   UNL     1     -44.578 -52.488  14.405  1.00  0.00     0.012 C 
BRANCH  22  23
HETATM   23  C   UNL     1     -45.702 -51.651  13.717  1.00  0.00    -0.017 C 
HETATM   24  C   UNL     1     -46.245 -52.345  12.458  1.00  0.00     0.010 C 
HETATM   25  C   UNL     1     -46.895 -51.380  14.647  1.00  0.00     0.010 C 
ENDBRANCH  22  23
ENDBRANCH   4  16
TORSDOF 4
ENDMDL
MODEL 2
REMARK VINA RESULT:      -6.7      1.245      2.250
REMARK  4 active torsions:
REMARK  status: ('A' for Active; 'I' for Inactive)
REMARK    1  A    between atoms: C_2  and  N_3 
REMARK    2  A    between atoms: C_8  and  N_9 
REMARK       I    between atoms: N_9  and  C_10 
REMARK       I    between atoms: C_10  and  N_12 
REMARK    3  A    between atoms: N_12  and  C_13 
REMARK    4  A    between atoms: C_19  and  C_20 
ROOT
HETATM    1  N   UNL     1     -42.380 -49.265  11.351  1.00  0.00    -0.304 N 
HETATM    2  C   UNL     1     -42.677 -49.639  12.640  1.00  0.00     0.321 C 
HETATM    3  O   UNL     1     -42.705 -48.872  13.598  1.00  0.00    -0.247 OA
HETATM    4  N   UNL     1     -42.978 -50.974  12.771  1.00  0.00    -0.338 N 
HETATM    5  H   UNL     1     -42.037 -49.969  10.711  1.00  0.00     0.171 HD
HETATM    6  H   UNL     1     -42.809 -51.597  11.996  1.00  0.00     0.164 HD
ENDROOT
BRANCH   1   7
HETATM    7  C   UNL     1     -42.200 -47.959  10.927  1.00  0.00     0.102 A 
HETATM    8  C   UNL     1     -43.384 -47.241  10.348  1.00  0.00     0.201 A 
HETATM    9  C   UNL     1     -43.176 -45.863   9.828  1.00  0.00     0.074 A 
HETATM   10  O   UNL     1     -44.488 -47.779  10.290  1.00  0.00    -0.286 OA
HETATM   11  C   UNL     1     -41.963 -45.312   9.962  1.00  0.00     0.094 A 
HETATM   12  N   UNL     1     -40.882 -45.949  10.550  1.00  0.00    -0.364 N 
HETATM   13  C   UNL     1     -41.058 -47.256  10.997  1.00  0.00     0.124 A 
BRANCH  12  14
HETATM   14  C   UNL     1     -39.588 -45.271  10.738  1.00  0.00     0.123 C 
HETATM   15  C   UNL     1     -39.097 -44.687   9.421  1.00  0.00     0.027 C 
ENDBRANCH  12  14
ENDBRANCH   1   7
BRANCH   4  16
HETATM   16  C   UNL     1     -43.263 -51.530  14.096  1.00  0.00     0.090 C 
HETATM   17  C   UNL     1     -42.072 -52.360  14.607  1.00  0.00     0.029 C 
HETATM   18  C   UNL     1     -41.960 -53.738  13.943  1.00  0.00    -0.017 C 
HETATM   19  C   UNL     1     -40.835 -54.550  14.586  1.00  0.00     0.010 C 
HETATM   20  C   UNL     1     -43.286 -54.494  14.047  1.00  0.00     0.005 C 
HETATM   21  C   UNL     1     -44.447 -53.690  13.469  1.00  0.00     0.007 C 
HETATM   22  C   UNL     1     -44.596 -52.320  14.161  1.00  0.00     0.012 C 
BRANCH  22  23
HETATM   23  C   UNL     1     -45.829 -51.521  13.632  1.00  0.00    -0.017 C 
HETATM   24  C   UNL     1     -46.449 -52.180  12.390  1.00  0.00     0.010 C 
HETATM   25  C   UNL     1     -46.940 -51.378  14.684  1.00  0.00     0.010 C 
ENDBRANCH  22  23
ENDBRANCH   4  16
TORSDOF 4
ENDMDL
MODEL 3
REMARK VINA RESULT:      -6.3      2.121      7.766
REMARK  4 active torsions:
REMARK  status: ('A' for Active; 'I' for Inactive)
REMARK    1  A    between atoms: C_2  and  N_3 
REMARK    2  A    between atoms: C_8  and  N_9 
REMARK       I    between atoms: N_9  and  C_10 
REMARK       I    between atoms: C_10  and  N_12 
REMARK    3  A    between atoms: N_12  and  C_13 
REMARK    4  A    between atoms: C_19  and  C_20 
ROOT
HETATM    1  N   UNL     1     -41.846 -51.088  11.659  1.00  0.00    -0.304 N 
HETATM    2  C   UNL     1     -42.354 -49.876  12.061  1.00  0.00     0.321 C 
HETATM    3  O   UNL     1     -42.762 -49.635  13.195  1.00  0.00    -0.247 OA
HETATM    4  N   UNL     1     -42.344 -48.919  11.076  1.00  0.00    -0.338 N 
HETATM    5  H   UNL     1     -41.866 -51.317  10.673  1.00  0.00     0.171 HD
HETATM    6  H   UNL     1     -42.136 -49.189  10.127  1.00  0.00     0.164 HD
ENDROOT
BRANCH   1   7
HETATM    7  C   UNL     1     -41.600 -52.162  12.497  1.00  0.00     0.102 A 
HETATM    8  C   UNL     1     -42.736 -53.101  12.783  1.00  0.00     0.201 A 
HETATM    9  C   UNL     1     -42.493 -54.215  13.739  1.00  0.00     0.074 A 
HETATM   10  O   UNL     1     -43.837 -52.947  12.259  1.00  0.00    -0.286 OA
HETATM   11  C   UNL     1     -41.260 -54.361  14.241  1.00  0.00     0.094 A 
HETATM   12  N   UNL     1     -40.193 -53.531  13.934  1.00  0.00    -0.364 N 
HETATM   13  C   UNL     1     -40.426 -52.460  13.076  1.00  0.00     0.124 A 
BRANCH  12  14
HETATM   14  C   UNL     1     -38.840 -53.779  14.458  1.00  0.00     0.123 C 
HETATM   15  C   UNL     1     -38.827 -55.027  15.329  1.00  0.00     0.027 C 
ENDBRANCH  12  14
ENDBRANCH   1   7
BRANCH   4  16
HETATM   16  C   UNL     1     -42.905 -47.592  11.343  1.00  0.00     0.090 C 
HETATM   17  C   UNL     1     -44.387 -47.534  10.936  1.00  0.00     0.029 C 
HETATM   18  C   UNL     1     -44.600 -47.429   9.421  1.00  0.00    -0.017 C 
HETATM   19  C   UNL     1     -46.085 -47.250   9.101  1.00  0.00     0.010 C 
HETATM   20  C   UNL     1     -43.791 -46.265   8.844  1.00  0.00     0.005 C 
HETATM   21  C   UNL     1     -42.309 -46.374   9.193  1.00  0.00     0.007 C 
HETATM   22  C   UNL     1     -42.081 -46.436  10.716  1.00  0.00     0.012 C 
BRANCH  22  23
HETATM   23  C   UNL     1     -40.565 -46.468  11.087  1.00  0.00    -0.017 C 
HETATM   24  C   UNL     1     -39.791 -45.311  10.438  1.00  0.00     0.010 C 
HETATM   25  C   UNL     1     -40.322 -46.394  12.603  1.00  0.00     0.010 C 
ENDBRANCH  22  23
ENDBRANCH   4  16
TORSDOF 4
ENDMDL
MODEL 4
REMARK VINA RESULT:      -6.2      1.910      7.454
REMARK  4 active torsions:
REMARK  status: ('A' for Active; 'I' for Inactive)
REMARK    1  A    between atoms: C_2  and  N_3 
REMARK    2  A    between atoms: C_8  and  N_9 
REMARK       I    between atoms: N_9  and  C_10 
REMARK       I    between atoms: C_10  and  N_12 
REMARK    3  A    between atoms: N_12  and  C_13 
REMARK    4  A    between atoms: C_19  and  C_20 
ROOT
HETATM    1  N   UNL     1     -42.048 -51.082  11.822  1.00  0.00    -0.304 N 
HETATM    2  C   UNL     1     -42.578 -49.857  12.150  1.00  0.00     0.321 C 
HETATM    3  O   UNL     1     -43.139 -49.604  13.214  1.00  0.00    -0.247 OA
HETATM    4  N   UNL     1     -42.401 -48.901  11.179  1.00  0.00    -0.338 N 
HETATM    5  H   UNL     1     -41.931 -51.310  10.843  1.00  0.00     0.171 HD
HETATM    6  H   UNL     1     -42.065 -49.177  10.270  1.00  0.00     0.164 HD
ENDROOT
BRANCH   1   7
HETATM    7  C   UNL     1     -41.953 -52.161  12.684  1.00  0.00     0.102 A 
HETATM    8  C   UNL     1     -40.586 -52.717  12.961  1.00  0.00     0.201 A 
HETATM    9  C   UNL     1     -40.488 -53.920  13.831  1.00  0.00     0.074 A 
HETATM   10  O   UNL     1     -39.580 -52.206  12.472  1.00  0.00    -0.286 OA
HETATM   11  C   UNL     1     -41.614 -54.402  14.373  1.00  0.00     0.094 A 
HETATM   12  N   UNL     1     -42.871 -53.856  14.168  1.00  0.00    -0.364 N 
HETATM   13  C   UNL     1     -42.974 -52.759  13.318  1.00  0.00     0.124 A 
BRANCH  12  14
HETATM   14  C   UNL     1     -44.067 -54.383  14.846  1.00  0.00     0.123 C 
HETATM   15  C   UNL     1     -45.007 -55.031  13.841  1.00  0.00     0.027 C 
ENDBRANCH  12  14
ENDBRANCH   1   7
BRANCH   4  16
HETATM   16  C   UNL     1     -42.962 -47.560  11.366  1.00  0.00     0.090 C 
HETATM   17  C   UNL     1     -44.436 -47.518  10.927  1.00  0.00     0.029 C 
HETATM   18  C   UNL     1     -44.618 -47.491   9.405  1.00  0.00    -0.017 C 
HETATM   19  C   UNL     1     -46.096 -47.324   9.047  1.00  0.00     0.010 C 
HETATM   20  C   UNL     1     -43.793 -46.362   8.785  1.00  0.00     0.005 C 
HETATM   21  C   UNL     1     -42.318 -46.457   9.168  1.00  0.00     0.007 C 
HETATM   22  C   UNL     1     -42.121 -46.441  10.696  1.00  0.00     0.012 C 
BRANCH  22  23
HETATM   23  C   UNL     1     -40.612 -46.459  11.099  1.00  0.00    -0.017 C 
HETATM   24  C   UNL     1     -39.823 -45.334  10.412  1.00  0.00     0.010 C 
HETATM   25  C   UNL     1     -40.399 -46.315  12.614  1.00  0.00     0.010 C 
ENDBRANCH  22  23
ENDBRANCH   4  16
TORSDOF 4
ENDMDL
MODEL 5
REMARK VINA RESULT:      -6.1      1.588      1.893
REMARK  4 active torsions:
REMARK  status: ('A' for Active; 'I' for Inactive)
REMARK    1  A    between atoms: C_2  and  N_3 
REMARK    2  A    between atoms: C_8  and  N_9 
REMARK       I    between atoms: N_9  and  C_10 
REMARK       I    between atoms: C_10  and  N_12 
REMARK    3  A    between atoms: N_12  and  C_13 
REMARK    4  A    between atoms: C_19  and  C_20 
ROOT
HETATM    1  N   UNL     1     -42.299 -48.443  11.500  1.00  0.00    -0.304 N 
HETATM    2  C   UNL     1     -42.410 -49.147  12.675  1.00  0.00     0.321 C 
HETATM    3  O   UNL     1     -41.957 -48.774  13.754  1.00  0.00    -0.247 OA
HETATM    4  N   UNL     1     -43.111 -50.322  12.551  1.00  0.00    -0.338 N 
HETATM    5  H   UNL     1     -42.371 -48.949  10.626  1.00  0.00     0.171 HD
HETATM    6  H   UNL     1     -43.344 -50.664  11.631  1.00  0.00     0.164 HD
ENDROOT
BRANCH   1   7
HETATM    7  C   UNL     1     -41.783 -47.164  11.388  1.00  0.00     0.102 A 
HETATM    8  C   UNL     1     -40.290 -47.011  11.357  1.00  0.00     0.201 A 
HETATM    9  C   UNL     1     -39.732 -45.633  11.309  1.00  0.00     0.074 A 
HETATM   10  O   UNL     1     -39.549 -47.993  11.388  1.00  0.00    -0.286 OA
HETATM   11  C   UNL     1     -40.588 -44.606  11.228  1.00  0.00     0.094 A 
HETATM   12  N   UNL     1     -41.967 -44.746  11.196  1.00  0.00    -0.364 N 
HETATM   13  C   UNL     1     -42.495 -46.030  11.288  1.00  0.00     0.124 A 
BRANCH  12  14
HETATM   14  C   UNL     1     -42.861 -43.587  11.034  1.00  0.00     0.123 C 
HETATM   15  C   UNL     1     -42.945 -42.794  12.329  1.00  0.00     0.027 C 
ENDBRANCH  12  14
ENDBRANCH   1   7
BRANCH   4  16
HETATM   16  C   UNL     1     -43.264 -51.206  13.710  1.00  0.00     0.090 C 
HETATM   17  C   UNL     1     -41.992 -52.043  13.929  1.00  0.00     0.029 C 
HETATM   18  C   UNL     1     -41.847 -53.204  12.937  1.00  0.00    -0.017 C 
HETATM   19  C   UNL     1     -40.632 -54.061  13.294  1.00  0.00     0.010 C 
HETATM   20  C   UNL     1     -43.115 -54.060  12.925  1.00  0.00     0.005 C 
HETATM   21  C   UNL     1     -44.361 -53.230  12.632  1.00  0.00     0.007 C 
HETATM   22  C   UNL     1     -44.540 -52.087  13.650  1.00  0.00     0.012 C 
BRANCH  22  23
HETATM   23  C   UNL     1     -45.854 -51.278  13.408  1.00  0.00    -0.017 C 
HETATM   24  C   UNL     1     -46.613 -51.776  12.169  1.00  0.00     0.010 C 
HETATM   25  C   UNL     1     -46.821 -51.344  14.600  1.00  0.00     0.010 C 
ENDBRANCH  22  23
ENDBRANCH   4  16
TORSDOF 4
ENDMDL
MODEL 6
REMARK VINA RESULT:      -5.8      1.750      3.290
REMARK  4 active torsions:
REMARK  status: ('A' for Active; 'I' for Inactive)
REMARK    1  A    between atoms: C_2  and  N_3 
REMARK    2  A    between atoms: C_8  and  N_9 
REMARK       I    between atoms: N_9  and  C_10 
REMARK       I    between atoms: C_10  and  N_12 
REMARK    3  A    between atoms: N_12  and  C_13 
REMARK    4  A    between atoms: C_19  and  C_20 
ROOT
HETATM    1  N   UNL     1     -42.418 -49.563  12.728  1.00  0.00    -0.304 N 
HETATM    2  C   UNL     1     -41.971 -50.848  12.532  1.00  0.00     0.321 C 
HETATM    3  O   UNL     1     -41.294 -51.210  11.573  1.00  0.00    -0.247 OA
HETATM    4  N   UNL     1     -42.326 -51.715  13.537  1.00  0.00    -0.338 N 
HETATM    5  H   UNL     1     -43.230 -49.419  13.315  1.00  0.00     0.171 HD
HETATM    6  H   UNL     1     -42.995 -51.419  14.232  1.00  0.00     0.164 HD
ENDROOT
BRANCH   1   7
HETATM    7  C   UNL     1     -42.064 -48.474  11.951  1.00  0.00     0.102 A 
HETATM    8  C   UNL     1     -40.769 -47.781  12.263  1.00  0.00     0.201 A 
HETATM    9  C   UNL     1     -40.421 -46.568  11.475  1.00  0.00     0.074 A 
HETATM   10  O   UNL     1     -40.026 -48.192  13.153  1.00  0.00    -0.286 OA
HETATM   11  C   UNL     1     -41.246 -46.197  10.487  1.00  0.00     0.094 A 
HETATM   12  N   UNL     1     -42.412 -46.868  10.157  1.00  0.00    -0.364 N 
HETATM   13  C   UNL     1     -42.767 -47.976  10.921  1.00  0.00     0.124 A 
BRANCH  12  14
HETATM   14  C   UNL     1     -43.246 -46.459   9.014  1.00  0.00     0.123 C 
HETATM   15  C   UNL     1     -43.512 -47.645   8.098  1.00  0.00     0.027 C 
ENDBRANCH  12  14
ENDBRANCH   1   7
BRANCH   4  16
HETATM   16  C   UNL     1     -41.965 -53.132  13.439  1.00  0.00     0.090 C 
HETATM   17  C   UNL     1     -43.192 -53.982  13.065  1.00  0.00     0.029 C 
HETATM   18  C   UNL     1     -44.158 -54.206  14.235  1.00  0.00    -0.017 C 
HETATM   19  C   UNL     1     -45.282 -55.159  13.825  1.00  0.00     0.010 C 
HETATM   20  C   UNL     1     -43.410 -54.761  15.449  1.00  0.00     0.005 C 
HETATM   21  C   UNL     1     -42.240 -53.870  15.856  1.00  0.00     0.007 C 
HETATM   22  C   UNL     1     -41.241 -53.674  14.699  1.00  0.00     0.012 C 
BRANCH  22  23
HETATM   23  C   UNL     1     -40.000 -52.827  15.126  1.00  0.00    -0.017 C 
HETATM   24  C   UNL     1     -39.298 -53.420  16.357  1.00  0.00     0.010 C 
HETATM   25  C   UNL     1     -38.951 -52.705  14.010  1.00  0.00     0.010 C 
ENDBRANCH  22  23
ENDBRANCH   4  16
TORSDOF 4
ENDMDL
MODEL 7
REMARK VINA RESULT:      -5.8      2.849      4.557
REMARK  4 active torsions:
REMARK  status: ('A' for Active; 'I' for Inactive)
REMARK    1  A    between atoms: C_2  and  N_3 
REMARK    2  A    between atoms: C_8  and  N_9 
REMARK       I    between atoms: N_9  and  C_10 
REMARK       I    between atoms: C_10  and  N_12 
REMARK    3  A    between atoms: N_12  and  C_13 
REMARK    4  A    between atoms: C_19  and  C_20 
ROOT
HETATM    1  N   UNL     1     -41.377 -47.804  10.746  1.00  0.00    -0.304 N 
HETATM    2  C   UNL     1     -41.364 -48.244  12.048  1.00  0.00     0.321 C 
HETATM    3  O   UNL     1     -42.272 -48.058  12.854  1.00  0.00    -0.247 OA
HETATM    4  N   UNL     1     -40.235 -48.955  12.379  1.00  0.00    -0.338 N 
HETATM    5  H   UNL     1     -40.492 -47.680  10.269  1.00  0.00     0.171 HD
HETATM    6  H   UNL     1     -39.454 -48.967  11.740  1.00  0.00     0.164 HD
ENDROOT
BRANCH   1   7
HETATM    7  C   UNL     1     -42.459 -47.207  10.122  1.00  0.00     0.102 A 
HETATM    8  C   UNL     1     -42.402 -45.725   9.887  1.00  0.00     0.201 A 
HETATM    9  C   UNL     1     -43.593 -45.072   9.281  1.00  0.00     0.074 A 
HETATM   10  O   UNL     1     -41.411 -45.069  10.199  1.00  0.00    -0.286 OA
HETATM   11  C   UNL     1     -44.624 -45.845   8.917  1.00  0.00     0.094 A 
HETATM   12  N   UNL     1     -44.657 -47.221   9.079  1.00  0.00    -0.364 N 
HETATM   13  C   UNL     1     -43.564 -47.833   9.688  1.00  0.00     0.124 A 
BRANCH  12  14
HETATM   14  C   UNL     1     -45.786 -48.034   8.596  1.00  0.00     0.123 C 
HETATM   15  C   UNL     1     -47.100 -47.493   9.138  1.00  0.00     0.027 C 
ENDBRANCH  12  14
ENDBRANCH   1   7
BRANCH   4  16
HETATM   16  C   UNL     1     -40.056 -49.442  13.749  1.00  0.00     0.090 C 
HETATM   17  C   UNL     1     -39.114 -48.517  14.538  1.00  0.00     0.029 C 
HETATM   18  C   UNL     1     -37.635 -48.697  14.174  1.00  0.00    -0.017 C 
HETATM   19  C   UNL     1     -36.753 -47.839  15.083  1.00  0.00     0.010 C 
HETATM   20  C   UNL     1     -37.232 -50.169  14.281  1.00  0.00     0.005 C 
HETATM   21  C   UNL     1     -38.128 -51.069  13.434  1.00  0.00     0.007 C 
HETATM   22  C   UNL     1     -39.613 -50.927  13.823  1.00  0.00     0.012 C 
BRANCH  22  23
HETATM   23  C   UNL     1     -40.530 -51.901  13.017  1.00  0.00    -0.017 C 
HETATM   24  C   UNL     1     -40.174 -53.372  13.278  1.00  0.00     0.010 C 
HETATM   25  C   UNL     1     -42.021 -51.720  13.344  1.00  0.00     0.010 C 
ENDBRANCH  22  23
ENDBRANCH   4  16
TORSDOF 4
ENDMDL
MODEL 8
REMARK VINA RESULT:      -5.5      2.031      7.414
REMARK  4 active torsions:
REMARK  status: ('A' for Active; 'I' for Inactive)
REMARK    1  A    between atoms: C_2  and  N_3 
REMARK    2  A    between atoms: C_8  and  N_9 
REMARK       I    between atoms: N_9  and  C_10 
REMARK       I    between atoms: C_10  and  N_12 
REMARK    3  A    between atoms: N_12  and  C_13 
REMARK    4  A    between atoms: C_19  and  C_20 
ROOT
HETATM    1  N   UNL     1     -43.284 -51.418  13.197  1.00  0.00    -0.304 N 
HETATM    2  C   UNL     1     -42.301 -51.105  12.290  1.00  0.00     0.321 C 
HETATM    3  O   UNL     1     -41.497 -51.912  11.829  1.00  0.00    -0.247 OA
HETATM    4  N   UNL     1     -42.304 -49.786  11.905  1.00  0.00    -0.338 N 
HETATM    5  H   UNL     1     -43.657 -50.678  13.779  1.00  0.00     0.171 HD
HETATM    6  H   UNL     1     -42.882 -49.127  12.404  1.00  0.00     0.164 HD
ENDROOT
BRANCH   1   7
HETATM    7  C   UNL     1     -43.594 -52.699  13.620  1.00  0.00     0.102 A 
HETATM    8  C   UNL     1     -44.790 -53.369  13.008  1.00  0.00     0.201 A 
HETATM    9  C   UNL     1     -45.166 -54.717  13.511  1.00  0.00     0.074 A 
HETATM   10  O   UNL     1     -45.449 -52.815  12.130  1.00  0.00    -0.286 OA
HETATM   11  C   UNL     1     -44.382 -55.289  14.434  1.00  0.00     0.094 A 
HETATM   12  N   UNL     1     -43.244 -54.699  14.960  1.00  0.00    -0.364 N 
HETATM   13  C   UNL     1     -42.913 -53.419  14.526  1.00  0.00     0.124 A 
BRANCH  12  14
HETATM   14  C   UNL     1     -42.377 -55.403  15.921  1.00  0.00     0.123 C 
HETATM   15  C   UNL     1     -40.971 -54.824  15.890  1.00  0.00     0.027 C 
ENDBRANCH  12  14
ENDBRANCH   1   7
BRANCH   4  16
HETATM   16  C   UNL     1     -41.278 -49.293  10.982  1.00  0.00     0.090 C 
HETATM   17  C   UNL     1     -39.872 -49.679  11.472  1.00  0.00     0.029 C 
HETATM   18  C   UNL     1     -39.376 -48.818  12.641  1.00  0.00    -0.017 C 
HETATM   19  C   UNL     1     -37.931 -49.175  12.990  1.00  0.00     0.010 C 
HETATM   20  C   UNL     1     -39.487 -47.332  12.297  1.00  0.00     0.005 C 
HETATM   21  C   UNL     1     -40.905 -46.946  11.883  1.00  0.00     0.007 C 
HETATM   22  C   UNL     1     -41.396 -47.776  10.680  1.00  0.00     0.012 C 
BRANCH  22  23
HETATM   23  C   UNL     1     -42.815 -47.337  10.199  1.00  0.00    -0.017 C 
HETATM   24  C   UNL     1     -42.999 -45.813  10.273  1.00  0.00     0.010 C 
HETATM   25  C   UNL     1     -43.113 -47.769   8.755  1.00  0.00     0.010 C 
ENDBRANCH  22  23
ENDBRANCH   4  16
TORSDOF 4
ENDMDL
MODEL 9
REMARK VINA RESULT:      -5.4      3.452      7.144
REMARK  4 active torsions:
REMARK  status: ('A' for Active; 'I' for Inactive)
REMARK    1  A    between atoms: C_2  and  N_3 
REMARK    2  A    between atoms: C_8  and  N_9 
REMARK       I    between atoms: N_9  and  C_10 
REMARK       I    between atoms: C_10  and  N_12 
REMARK    3  A    between atoms: N_12  and  C_13 
REMARK    4  A    between atoms: C_19  and  C_20 
ROOT
HETATM    1  N   UNL     1     -41.617 -51.836  15.046  1.00  0.00    -0.304 N 
HETATM    2  C   UNL     1     -40.589 -51.579  14.170  1.00  0.00     0.321 C 
HETATM    3  O   UNL     1     -40.396 -52.195  13.125  1.00  0.00    -0.247 OA
HETATM    4  N   UNL     1     -39.789 -50.529  14.551  1.00  0.00    -0.338 N 
HETATM    5  H   UNL     1     -41.511 -51.549  16.011  1.00  0.00     0.171 HD
HETATM    6  H   UNL     1     -39.891 -50.141  15.476  1.00  0.00     0.164 HD
ENDROOT
BRANCH   1   7
HETATM    7  C   UNL     1     -42.649 -52.729  14.816  1.00  0.00     0.102 A 
HETATM    8  C   UNL     1     -42.392 -54.182  15.094  1.00  0.00     0.201 A 
HETATM    9  C   UNL     1     -43.476 -55.152  14.781  1.00  0.00     0.074 A 
HETATM   10  O   UNL     1     -41.315 -54.562  15.550  1.00  0.00    -0.286 OA
HETATM   11  C   UNL     1     -44.644 -54.674  14.333  1.00  0.00     0.094 A 
HETATM   12  N   UNL     1     -44.905 -53.328  14.130  1.00  0.00    -0.364 N 
HETATM   13  C   UNL     1     -43.879 -52.420  14.377  1.00  0.00     0.124 A 
BRANCH  12  14
HETATM   14  C   UNL     1     -46.231 -52.849  13.703  1.00  0.00     0.123 C 
HETATM   15  C   UNL     1     -46.111 -51.502  13.009  1.00  0.00     0.027 C 
ENDBRANCH  12  14
ENDBRANCH   1   7
BRANCH   4  16
HETATM   16  C   UNL     1     -38.620 -50.173  13.742  1.00  0.00     0.090 C 
HETATM   17  C   UNL     1     -37.318 -50.434  14.519  1.00  0.00     0.029 C 
HETATM   18  C   UNL     1     -37.024 -49.377  15.591  1.00  0.00    -0.017 C 
HETATM   19  C   UNL     1     -35.660 -49.632  16.233  1.00  0.00     0.010 C 
HETATM   20  C   UNL     1     -37.070 -47.973  14.985  1.00  0.00     0.005 C 
HETATM   21  C   UNL     1     -38.396 -47.698  14.280  1.00  0.00     0.007 C 
HETATM   22  C   UNL     1     -38.680 -48.731  13.172  1.00  0.00     0.012 C 
BRANCH  22  23
HETATM   23  C   UNL     1     -39.995 -48.416  12.391  1.00  0.00    -0.017 C 
HETATM   24  C   UNL     1     -40.015 -46.974  11.861  1.00  0.00     0.010 C 
HETATM   25  C   UNL     1     -40.215 -49.353  11.194  1.00  0.00     0.010 C 
ENDBRANCH  22  23
ENDBRANCH   4  16
TORSDOF 4
ENDMDL
