MODEL 1
REMARK VINA RESULT:      -5.5      0.000      0.000
REMARK  7 active torsions:
REMARK  status: ('A' for Active; 'I' for Inactive)
REMARK    1  A    between atoms: N_5  and  C_6 
REMARK    2  A    between atoms: C_6  and  C_7 
REMARK    3  A    between atoms: C_7  and  O_8 
REMARK    4  A    between atoms: C_7  and  C_9 
REMARK    5  A    between atoms: C_9  and  O_10 
REMARK    6  A    between atoms: O_10  and  C_11 
REMARK    7  A    between atoms: C_11  and  C_12 
ROOT
HETATM    1  C   UNL     1     -45.827 -52.764  12.240  1.00  0.00     0.070 C 
HETATM    2  C   UNL     1     -44.460 -53.210  12.718  1.00  0.00     0.029 A 
HETATM    3  N   UNL     1     -43.439 -52.723  12.090  1.00  0.00    -0.300 N 
ATOM      4  HN  UNL     1     -43.565 -52.072  11.315  1.00  0.00     0.187 HD
HETATM    5  N   UNL     1     -42.188 -53.103  12.490  1.00  0.00    -0.254 N 
HETATM    6  C   UNL     1     -41.937 -53.949  13.558  1.00  0.00     0.283 A 
HETATM    7  O   UNL     1     -40.800 -54.243  13.924  1.00  0.00    -0.265 OA
HETATM    8  C   UNL     1     -43.133 -54.508  14.243  1.00  0.00     0.121 A 
HETATM    9  C   UNL     1     -42.898 -55.422  15.306  1.00  0.00     0.105 C 
HETATM   10  N   UNL     1     -42.772 -56.180  16.174  1.00  0.00    -0.191 NA
HETATM   11  C   UNL     1     -44.375 -54.168  13.854  1.00  0.00    -0.012 A 
HETATM   12  C   UNL     1     -45.654 -54.672  14.461  1.00  0.00     0.052 C 
ENDROOT
BRANCH   5  13
HETATM   13  C   UNL     1     -41.069 -52.536  11.736  1.00  0.00     0.186 C 
BRANCH  13  14
HETATM   14  C   UNL     1     -40.890 -51.024  11.972  1.00  0.00     0.162 C 
BRANCH  14  15
HETATM   15  O   UNL     1     -42.105 -50.288  11.771  1.00  0.00    -0.392 OA
HETATM   16  H   UNL     1     -42.821 -50.923  11.573  1.00  0.00     0.210 HD
ENDBRANCH  14  15
BRANCH  14  17
HETATM   17  C   UNL     1     -40.398 -50.758  13.401  1.00  0.00     0.201 C 
BRANCH  17  18
HETATM   18  O   UNL     1     -41.460 -50.231  14.189  1.00  0.00    -0.384 OA
BRANCH  18  19
HETATM   19  C   UNL     1     -41.535 -50.839  15.475  1.00  0.00     0.206 C 
BRANCH  19  20
HETATM   20  C   UNL     1     -42.989 -51.109  15.768  1.00  0.00    -0.035 A 
HETATM   21  C   UNL     1     -43.986 -50.504  14.985  1.00  0.00     0.011 A 
HETATM   22  C   UNL     1     -45.336 -50.716  15.265  1.00  0.00     0.024 A 
HETATM   23  C   UNL     1     -45.699 -51.538  16.329  1.00  0.00     0.034 A 
HETATM   24 CL   UNL     1     -47.363 -51.786  16.689  1.00  0.00    -0.084 Cl
HETATM   25  C   UNL     1     -44.723 -52.154  17.109  1.00  0.00     0.024 A 
HETATM   26  C   UNL     1     -43.370 -51.941  16.829  1.00  0.00     0.011 A 
ENDBRANCH  19  20
ENDBRANCH  18  19
ENDBRANCH  17  18
ENDBRANCH  14  17
ENDBRANCH  13  14
ENDBRANCH   5  13
TORSDOF 7
ENDMDL
MODEL 2
REMARK VINA RESULT:      -5.1      3.790      5.207
REMARK  7 active torsions:
REMARK  status: ('A' for Active; 'I' for Inactive)
REMARK    1  A    between atoms: N_5  and  C_6 
REMARK    2  A    between atoms: C_6  and  C_7 
REMARK    3  A    between atoms: C_7  and  O_8 
REMARK    4  A    between atoms: C_7  and  C_9 
REMARK    5  A    between atoms: C_9  and  O_10 
REMARK    6  A    between atoms: O_10  and  C_11 
REMARK    7  A    between atoms: C_11  and  C_12 
ROOT
HETATM    1  C   UNL     1     -43.353 -48.866  15.004  1.00  0.00     0.070 C 
HETATM    2  C   UNL     1     -42.779 -49.989  14.166  1.00  0.00     0.029 A 
HETATM    3  N   UNL     1     -41.535 -49.881  13.825  1.00  0.00    -0.300 N 
ATOM      4  HN  UNL     1     -40.983 -49.074  14.116  1.00  0.00     0.187 HD
HETATM    5  N   UNL     1     -40.980 -50.873  13.064  1.00  0.00    -0.254 N 
HETATM    6  C   UNL     1     -41.655 -52.016  12.667  1.00  0.00     0.283 A 
HETATM    7  O   UNL     1     -41.120 -52.914  12.018  1.00  0.00    -0.265 OA
HETATM    8  C   UNL     1     -43.088 -52.098  13.056  1.00  0.00     0.121 A 
HETATM    9  C   UNL     1     -43.812 -53.237  12.610  1.00  0.00     0.105 C 
HETATM   10  N   UNL     1     -44.460 -54.136  12.269  1.00  0.00    -0.191 NA
HETATM   11  C   UNL     1     -43.663 -51.124  13.784  1.00  0.00    -0.012 A 
HETATM   12  C   UNL     1     -45.099 -51.092  14.229  1.00  0.00     0.052 C 
ENDROOT
BRANCH   5  13
HETATM   13  C   UNL     1     -39.576 -50.693  12.693  1.00  0.00     0.186 C 
BRANCH  13  14
HETATM   14  C   UNL     1     -39.397 -49.881  11.395  1.00  0.00     0.162 C 
BRANCH  14  15
HETATM   15  O   UNL     1     -40.460 -50.102  10.457  1.00  0.00    -0.392 OA
HETATM   16  H   UNL     1     -41.268 -49.671  10.798  1.00  0.00     0.210 HD
ENDBRANCH  14  15
BRANCH  14  17
HETATM   17  C   UNL     1     -39.336 -48.380  11.706  1.00  0.00     0.201 C 
BRANCH  17  18
HETATM   18  O   UNL     1     -40.651 -47.868  11.890  1.00  0.00    -0.384 OA
BRANCH  18  19
HETATM   19  C   UNL     1     -40.907 -46.726  11.078  1.00  0.00     0.206 C 
BRANCH  19  20
HETATM   20  C   UNL     1     -42.312 -46.852  10.546  1.00  0.00    -0.035 A 
HETATM   21  C   UNL     1     -43.208 -47.756  11.139  1.00  0.00     0.011 A 
HETATM   22  C   UNL     1     -44.501 -47.908  10.636  1.00  0.00     0.024 A 
HETATM   23  C   UNL     1     -44.908 -47.153   9.539  1.00  0.00     0.034 A 
HETATM   24 CL   UNL     1     -46.495 -47.352   8.905  1.00  0.00    -0.084 Cl
HETATM   25  C   UNL     1     -44.035 -46.244   8.946  1.00  0.00     0.024 A 
HETATM   26  C   UNL     1     -42.739 -46.092   9.449  1.00  0.00     0.011 A 
ENDBRANCH  19  20
ENDBRANCH  18  19
ENDBRANCH  17  18
ENDBRANCH  14  17
ENDBRANCH  13  14
ENDBRANCH   5  13
TORSDOF 7
ENDMDL
MODEL 3
REMARK VINA RESULT:      -5.1      2.629      4.790
REMARK  7 active torsions:
REMARK  status: ('A' for Active; 'I' for Inactive)
REMARK    1  A    between atoms: N_5  and  C_6 
REMARK    2  A    between atoms: C_6  and  C_7 
REMARK    3  A    between atoms: C_7  and  O_8 
REMARK    4  A    between atoms: C_7  and  C_9 
REMARK    5  A    between atoms: C_9  and  O_10 
REMARK    6  A    between atoms: O_10  and  C_11 
REMARK    7  A    between atoms: C_11  and  C_12 
ROOT
HETATM    1  C   UNL     1     -41.562 -55.557  16.388  1.00  0.00     0.070 C 
HETATM    2  C   UNL     1     -42.275 -54.926  15.210  1.00  0.00     0.029 A 
HETATM    3  N   UNL     1     -43.507 -55.274  15.024  1.00  0.00    -0.300 N 
ATOM      4  HN  UNL     1     -43.961 -55.940  15.649  1.00  0.00     0.187 HD
HETATM    5  N   UNL     1     -44.185 -54.729  13.969  1.00  0.00    -0.254 N 
HETATM    6  C   UNL     1     -43.650 -53.788  13.104  1.00  0.00     0.283 A 
HETATM    7  O   UNL     1     -44.294 -53.282  12.187  1.00  0.00    -0.265 OA
HETATM    8  C   UNL     1     -42.225 -53.427  13.332  1.00  0.00     0.121 A 
HETATM    9  C   UNL     1     -41.640 -52.506  12.421  1.00  0.00     0.105 C 
HETATM   10  N   UNL     1     -41.102 -51.768  11.707  1.00  0.00    -0.191 NA
HETATM   11  C   UNL     1     -41.529 -53.967  14.349  1.00  0.00    -0.012 A 
HETATM   12  C   UNL     1     -40.088 -53.688  14.674  1.00  0.00     0.052 C 
ENDROOT
BRANCH   5  13
HETATM   13  C   UNL     1     -45.570 -55.169  13.794  1.00  0.00     0.186 C 
BRANCH  13  14
HETATM   14  C   UNL     1     -46.524 -54.587  14.856  1.00  0.00     0.162 C 
BRANCH  14  15
HETATM   15  O   UNL     1     -45.947 -54.580  16.169  1.00  0.00    -0.392 OA
HETATM   16  H   UNL     1     -45.060 -54.989  16.119  1.00  0.00     0.210 HD
ENDBRANCH  14  15
BRANCH  14  17
HETATM   17  C   UNL     1     -46.915 -53.148  14.495  1.00  0.00     0.201 C 
BRANCH  17  18
HETATM   18  O   UNL     1     -46.275 -52.235  15.379  1.00  0.00    -0.384 OA
BRANCH  18  19
HETATM   19  C   UNL     1     -45.740 -51.105  14.698  1.00  0.00     0.206 C 
BRANCH  19  20
HETATM   20  C   UNL     1     -44.315 -50.928  15.157  1.00  0.00    -0.035 A 
HETATM   21  C   UNL     1     -43.840 -51.649  16.264  1.00  0.00     0.011 A 
HETATM   22  C   UNL     1     -42.534 -51.470  16.722  1.00  0.00     0.024 A 
HETATM   23  C   UNL     1     -41.692 -50.571  16.073  1.00  0.00     0.034 A 
HETATM   24 CL   UNL     1     -40.088 -50.334  16.647  1.00  0.00    -0.084 Cl
HETATM   25  C   UNL     1     -42.144 -49.856  14.966  1.00  0.00     0.024 A 
HETATM   26  C   UNL     1     -43.453 -50.034  14.508  1.00  0.00     0.011 A 
ENDBRANCH  19  20
ENDBRANCH  18  19
ENDBRANCH  17  18
ENDBRANCH  14  17
ENDBRANCH  13  14
ENDBRANCH   5  13
TORSDOF 7
ENDMDL
MODEL 4
REMARK VINA RESULT:      -5.1      4.152      6.426
REMARK  7 active torsions:
REMARK  status: ('A' for Active; 'I' for Inactive)
REMARK    1  A    between atoms: N_5  and  C_6 
REMARK    2  A    between atoms: C_6  and  C_7 
REMARK    3  A    between atoms: C_7  and  O_8 
REMARK    4  A    between atoms: C_7  and  C_9 
REMARK    5  A    between atoms: C_9  and  O_10 
REMARK    6  A    between atoms: O_10  and  C_11 
REMARK    7  A    between atoms: C_11  and  C_12 
ROOT
HETATM    1  C   UNL     1     -39.972 -45.253  10.256  1.00  0.00     0.070 C 
HETATM    2  C   UNL     1     -39.754 -46.032  11.535  1.00  0.00     0.029 A 
HETATM    3  N   UNL     1     -39.724 -47.321  11.431  1.00  0.00    -0.300 N 
ATOM      4  HN  UNL     1     -39.841 -47.774  10.525  1.00  0.00     0.187 HD
HETATM    5  N   UNL     1     -39.532 -48.061  12.565  1.00  0.00    -0.254 N 
HETATM    6  C   UNL     1     -39.323 -47.517  13.822  1.00  0.00     0.283 A 
HETATM    7  O   UNL     1     -39.112 -48.204  14.820  1.00  0.00    -0.265 OA
HETATM    8  C   UNL     1     -39.387 -46.034  13.911  1.00  0.00     0.121 A 
HETATM    9  C   UNL     1     -39.231 -45.458  15.201  1.00  0.00     0.105 C 
HETATM   10  N   UNL     1     -39.122 -44.928  16.226  1.00  0.00    -0.191 NA
HETATM   11  C   UNL     1     -39.598 -45.284  12.813  1.00  0.00    -0.012 A 
HETATM   12  C   UNL     1     -39.690 -43.784  12.779  1.00  0.00     0.052 C 
ENDROOT
BRANCH   5  13
HETATM   13  C   UNL     1     -39.523 -49.515  12.394  1.00  0.00     0.186 C 
BRANCH  13  14
HETATM   14  C   UNL     1     -40.744 -50.035  11.611  1.00  0.00     0.162 C 
BRANCH  14  15
HETATM   15  O   UNL     1     -40.567 -49.942  10.190  1.00  0.00    -0.392 OA
HETATM   16  H   UNL     1     -40.156 -49.078   9.986  1.00  0.00     0.210 HD
ENDBRANCH  14  15
BRANCH  14  17
HETATM   17  C   UNL     1     -41.025 -51.501  11.965  1.00  0.00     0.201 C 
BRANCH  17  18
HETATM   18  O   UNL     1     -42.068 -51.575  12.931  1.00  0.00    -0.384 OA
BRANCH  18  19
HETATM   19  C   UNL     1     -42.954 -50.462  12.859  1.00  0.00     0.206 C 
BRANCH  19  20
HETATM   20  C   UNL     1     -44.127 -50.754  13.759  1.00  0.00    -0.035 A 
HETATM   21  C   UNL     1     -45.315 -51.271  13.217  1.00  0.00     0.011 A 
HETATM   22  C   UNL     1     -46.421 -51.514  14.033  1.00  0.00     0.024 A 
HETATM   23  C   UNL     1     -46.345 -51.246  15.397  1.00  0.00     0.034 A 
HETATM   24 CL   UNL     1     -47.714 -51.527  16.401  1.00  0.00    -0.084 Cl
HETATM   25  C   UNL     1     -45.170 -50.745  15.953  1.00  0.00     0.024 A 
HETATM   26  C   UNL     1     -44.062 -50.500  15.136  1.00  0.00     0.011 A 
ENDBRANCH  19  20
ENDBRANCH  18  19
ENDBRANCH  17  18
ENDBRANCH  14  17
ENDBRANCH  13  14
ENDBRANCH   5  13
TORSDOF 7
ENDMDL
MODEL 5
REMARK VINA RESULT:      -5.0      3.331      4.811
REMARK  7 active torsions:
REMARK  status: ('A' for Active; 'I' for Inactive)
REMARK    1  A    between atoms: N_5  and  C_6 
REMARK    2  A    between atoms: C_6  and  C_7 
REMARK    3  A    between atoms: C_7  and  O_8 
REMARK    4  A    between atoms: C_7  and  C_9 
REMARK    5  A    between atoms: C_9  and  O_10 
REMARK    6  A    between atoms: O_10  and  C_11 
REMARK    7  A    between atoms: C_11  and  C_12 
ROOT
HETATM    1  C   UNL     1     -45.997 -52.592  12.320  1.00  0.00     0.070 C 
HETATM    2  C   UNL     1     -44.675 -52.813  13.026  1.00  0.00     0.029 A 
HETATM    3  N   UNL     1     -43.769 -51.905  12.857  1.00  0.00    -0.300 N 
ATOM      4  HN  UNL     1     -43.953 -51.086  12.277  1.00  0.00     0.187 HD
HETATM    5  N   UNL     1     -42.560 -52.069  13.476  1.00  0.00    -0.254 N 
HETATM    6  C   UNL     1     -42.253 -53.131  14.311  1.00  0.00     0.283 A 
HETATM    7  O   UNL     1     -41.172 -53.235  14.888  1.00  0.00    -0.265 OA
HETATM    8  C   UNL     1     -43.308 -54.168  14.464  1.00  0.00     0.121 A 
HETATM    9  C   UNL     1     -42.992 -55.294  15.273  1.00  0.00     0.105 C 
HETATM   10  N   UNL     1     -42.792 -56.241  15.911  1.00  0.00    -0.191 NA
HETATM   11  C   UNL     1     -44.497 -54.041  13.848  1.00  0.00    -0.012 A 
HETATM   12  C   UNL     1     -45.633 -55.023  13.920  1.00  0.00     0.052 C 
ENDROOT
BRANCH   5  13
HETATM   13  C   UNL     1     -41.566 -51.022  13.239  1.00  0.00     0.186 C 
BRANCH  13  14
HETATM   14  C   UNL     1     -40.681 -51.301  12.008  1.00  0.00     0.162 C 
BRANCH  14  15
HETATM   15  O   UNL     1     -41.251 -52.283  11.132  1.00  0.00    -0.392 OA
HETATM   16  H   UNL     1     -40.572 -52.960  10.943  1.00  0.00     0.210 HD
ENDBRANCH  14  15
BRANCH  14  17
HETATM   17  C   UNL     1     -40.456 -50.013  11.206  1.00  0.00     0.201 C 
BRANCH  17  18
HETATM   18  O   UNL     1     -39.714 -49.080  11.984  1.00  0.00    -0.384 OA
BRANCH  18  19
HETATM   19  C   UNL     1     -38.314 -49.336  11.949  1.00  0.00     0.206 C 
BRANCH  19  20
HETATM   20  C   UNL     1     -37.790 -49.200  13.355  1.00  0.00    -0.035 A 
HETATM   21  C   UNL     1     -37.573 -47.924  13.903  1.00  0.00     0.011 A 
HETATM   22  C   UNL     1     -37.056 -47.782  15.191  1.00  0.00     0.024 A 
HETATM   23  C   UNL     1     -36.756 -48.915  15.943  1.00  0.00     0.034 A 
HETATM   24 CL   UNL     1     -36.100 -48.743  17.524  1.00  0.00    -0.084 Cl
HETATM   25  C   UNL     1     -36.975 -50.187  15.419  1.00  0.00     0.024 A 
HETATM   26  C   UNL     1     -37.492 -50.330  14.128  1.00  0.00     0.011 A 
ENDBRANCH  19  20
ENDBRANCH  18  19
ENDBRANCH  17  18
ENDBRANCH  14  17
ENDBRANCH  13  14
ENDBRANCH   5  13
TORSDOF 7
ENDMDL
MODEL 6
REMARK VINA RESULT:      -5.0      4.236      6.253
REMARK  7 active torsions:
REMARK  status: ('A' for Active; 'I' for Inactive)
REMARK    1  A    between atoms: N_5  and  C_6 
REMARK    2  A    between atoms: C_6  and  C_7 
REMARK    3  A    between atoms: C_7  and  O_8 
REMARK    4  A    between atoms: C_7  and  C_9 
REMARK    5  A    between atoms: C_9  and  O_10 
REMARK    6  A    between atoms: O_10  and  C_11 
REMARK    7  A    between atoms: C_11  and  C_12 
ROOT
HETATM    1  C   UNL     1     -37.483 -50.054  11.432  1.00  0.00     0.070 C 
HETATM    2  C   UNL     1     -38.957 -49.924  11.754  1.00  0.00     0.029 A 
HETATM    3  N   UNL     1     -39.620 -49.038  11.084  1.00  0.00    -0.300 N 
ATOM      4  HN  UNL     1     -39.160 -48.465  10.377  1.00  0.00     0.187 HD
HETATM    5  N   UNL     1     -40.954 -48.888  11.348  1.00  0.00    -0.254 N 
HETATM    6  C   UNL     1     -41.657 -49.656  12.262  1.00  0.00     0.283 A 
HETATM    7  O   UNL     1     -42.866 -49.529  12.451  1.00  0.00    -0.265 OA
HETATM    8  C   UNL     1     -40.860 -50.649  13.031  1.00  0.00     0.121 A 
HETATM    9  C   UNL     1     -41.551 -51.409  14.013  1.00  0.00     0.105 C 
HETATM   10  N   UNL     1     -42.055 -52.052  14.835  1.00  0.00    -0.191 NA
HETATM   11  C   UNL     1     -39.542 -50.800  12.806  1.00  0.00    -0.012 A 
HETATM   12  C   UNL     1     -38.633 -51.760  13.523  1.00  0.00     0.052 C 
ENDROOT
BRANCH   5  13
HETATM   13  C   UNL     1     -41.654 -47.861  10.574  1.00  0.00     0.186 C 
BRANCH  13  14
HETATM   14  C   UNL     1     -41.017 -46.465  10.715  1.00  0.00     0.162 C 
BRANCH  14  15
HETATM   15  O   UNL     1     -41.271 -45.627   9.579  1.00  0.00    -0.392 OA
HETATM   16  H   UNL     1     -42.091 -45.120   9.746  1.00  0.00     0.210 HD
ENDBRANCH  14  15
BRANCH  14  17
HETATM   17  C   UNL     1     -41.552 -45.754  11.966  1.00  0.00     0.201 C 
BRANCH  17  18
HETATM   18  O   UNL     1     -40.565 -45.769  12.991  1.00  0.00    -0.384 OA
BRANCH  18  19
HETATM   19  C   UNL     1     -40.967 -46.539  14.120  1.00  0.00     0.206 C 
BRANCH  19  20
HETATM   20  C   UNL     1     -39.764 -47.312  14.596  1.00  0.00    -0.035 A 
HETATM   21  C   UNL     1     -38.506 -47.081  14.013  1.00  0.00     0.011 A 
HETATM   22  C   UNL     1     -37.390 -47.814  14.419  1.00  0.00     0.024 A 
HETATM   23  C   UNL     1     -37.523 -48.779  15.414  1.00  0.00     0.034 A 
HETATM   24 CL   UNL     1     -36.152 -49.697  15.903  1.00  0.00    -0.084 Cl
HETATM   25  C   UNL     1     -38.760 -49.013  16.010  1.00  0.00     0.024 A 
HETATM   26  C   UNL     1     -39.879 -48.280  15.602  1.00  0.00     0.011 A 
ENDBRANCH  19  20
ENDBRANCH  18  19
ENDBRANCH  17  18
ENDBRANCH  14  17
ENDBRANCH  13  14
ENDBRANCH   5  13
TORSDOF 7
ENDMDL
MODEL 7
REMARK VINA RESULT:      -5.0      2.987      4.677
REMARK  7 active torsions:
REMARK  status: ('A' for Active; 'I' for Inactive)
REMARK    1  A    between atoms: N_5  and  C_6 
REMARK    2  A    between atoms: C_6  and  C_7 
REMARK    3  A    between atoms: C_7  and  O_8 
REMARK    4  A    between atoms: C_7  and  C_9 
REMARK    5  A    between atoms: C_9  and  O_10 
REMARK    6  A    between atoms: O_10  and  C_11 
REMARK    7  A    between atoms: C_11  and  C_12 
ROOT
HETATM    1  C   UNL     1     -40.667 -54.190  12.730  1.00  0.00     0.070 C 
HETATM    2  C   UNL     1     -41.874 -54.275  13.640  1.00  0.00     0.029 A 
HETATM    3  N   UNL     1     -43.031 -54.107  13.087  1.00  0.00    -0.300 N 
ATOM      4  HN  UNL     1     -43.109 -53.929  12.086  1.00  0.00     0.187 HD
HETATM    5  N   UNL     1     -44.146 -54.174  13.877  1.00  0.00    -0.254 N 
HETATM    6  C   UNL     1     -44.121 -54.453  15.233  1.00  0.00     0.283 A 
HETATM    7  O   UNL     1     -45.142 -54.549  15.914  1.00  0.00    -0.265 OA
HETATM    8  C   UNL     1     -42.774 -54.618  15.842  1.00  0.00     0.121 A 
HETATM    9  C   UNL     1     -42.724 -54.851  17.244  1.00  0.00     0.105 C 
HETATM   10  N   UNL     1     -42.616 -55.032  18.383  1.00  0.00    -0.191 NA
HETATM   11  C   UNL     1     -41.661 -54.534  15.091  1.00  0.00    -0.012 A 
HETATM   12  C   UNL     1     -40.251 -54.675  15.592  1.00  0.00     0.052 C 
ENDROOT
BRANCH   5  13
HETATM   13  C   UNL     1     -45.428 -53.960  13.204  1.00  0.00     0.186 C 
BRANCH  13  14
HETATM   14  C   UNL     1     -45.487 -52.626  12.435  1.00  0.00     0.162 C 
BRANCH  14  15
HETATM   15  O   UNL     1     -46.611 -52.553  11.545  1.00  0.00    -0.392 OA
HETATM   16  H   UNL     1     -46.514 -51.754  10.991  1.00  0.00     0.210 HD
ENDBRANCH  14  15
BRANCH  14  17
HETATM   17  C   UNL     1     -45.571 -51.446  13.412  1.00  0.00     0.201 C 
BRANCH  17  18
HETATM   18  O   UNL     1     -44.444 -50.594  13.240  1.00  0.00    -0.384 OA
BRANCH  18  19
HETATM   19  C   UNL     1     -43.541 -50.661  14.340  1.00  0.00     0.206 C 
BRANCH  19  20
HETATM   20  C   UNL     1     -42.142 -50.683  13.780  1.00  0.00    -0.035 A 
HETATM   21  C   UNL     1     -41.043 -50.811  14.645  1.00  0.00     0.011 A 
HETATM   22  C   UNL     1     -39.740 -50.798  14.145  1.00  0.00     0.024 A 
HETATM   23  C   UNL     1     -39.528 -50.662  12.775  1.00  0.00     0.034 A 
HETATM   24 CL   UNL     1     -37.922 -50.628  12.158  1.00  0.00    -0.084 Cl
HETATM   25  C   UNL     1     -40.607 -50.546  11.903  1.00  0.00     0.024 A 
HETATM   26  C   UNL     1     -41.913 -50.557  12.403  1.00  0.00     0.011 A 
ENDBRANCH  19  20
ENDBRANCH  18  19
ENDBRANCH  17  18
ENDBRANCH  14  17
ENDBRANCH  13  14
ENDBRANCH   5  13
TORSDOF 7
ENDMDL
MODEL 8
REMARK VINA RESULT:      -5.0      1.785      2.719
REMARK  7 active torsions:
REMARK  status: ('A' for Active; 'I' for Inactive)
REMARK    1  A    between atoms: N_5  and  C_6 
REMARK    2  A    between atoms: C_6  and  C_7 
REMARK    3  A    between atoms: C_7  and  O_8 
REMARK    4  A    between atoms: C_7  and  C_9 
REMARK    5  A    between atoms: C_9  and  O_10 
REMARK    6  A    between atoms: O_10  and  C_11 
REMARK    7  A    between atoms: C_11  and  C_12 
ROOT
HETATM    1  C   UNL     1     -39.888 -54.658  15.613  1.00  0.00     0.070 C 
HETATM    2  C   UNL     1     -41.007 -54.272  14.669  1.00  0.00     0.029 A 
HETATM    3  N   UNL     1     -40.705 -53.452  13.715  1.00  0.00    -0.300 N 
ATOM      4  HN  UNL     1     -39.755 -53.094  13.617  1.00  0.00     0.187 HD
HETATM    5  N   UNL     1     -41.690 -53.077  12.843  1.00  0.00    -0.254 N 
HETATM    6  C   UNL     1     -42.990 -53.553  12.888  1.00  0.00     0.283 A 
HETATM    7  O   UNL     1     -43.848 -53.232  12.067  1.00  0.00    -0.265 OA
HETATM    8  C   UNL     1     -43.310 -54.476  14.010  1.00  0.00     0.121 A 
HETATM    9  C   UNL     1     -44.652 -54.933  14.107  1.00  0.00     0.105 C 
HETATM   10  N   UNL     1     -45.732 -55.332  14.246  1.00  0.00    -0.191 NA
HETATM   11  C   UNL     1     -42.364 -54.843  14.894  1.00  0.00    -0.012 A 
HETATM   12  C   UNL     1     -42.568 -55.759  16.069  1.00  0.00     0.052 C 
ENDROOT
BRANCH   5  13
HETATM   13  C   UNL     1     -41.299 -52.135  11.794  1.00  0.00     0.186 C 
BRANCH  13  14
HETATM   14  C   UNL     1     -40.302 -51.067  12.286  1.00  0.00     0.162 C 
BRANCH  14  15
HETATM   15  O   UNL     1     -38.981 -51.266  11.763  1.00  0.00    -0.392 OA
HETATM   16  H   UNL     1     -39.032 -51.268  10.787  1.00  0.00     0.210 HD
ENDBRANCH  14  15
BRANCH  14  17
HETATM   17  C   UNL     1     -40.774 -49.665  11.881  1.00  0.00     0.201 C 
BRANCH  17  18
HETATM   18  O   UNL     1     -42.098 -49.443  12.354  1.00  0.00    -0.384 OA
BRANCH  18  19
HETATM   19  C   UNL     1     -42.123 -48.974  13.698  1.00  0.00     0.206 C 
BRANCH  19  20
HETATM   20  C   UNL     1     -42.875 -49.989  14.521  1.00  0.00    -0.035 A 
HETATM   21  C   UNL     1     -44.207 -50.301  14.205  1.00  0.00     0.011 A 
HETATM   22  C   UNL     1     -44.926 -51.213  14.978  1.00  0.00     0.024 A 
HETATM   23  C   UNL     1     -44.317 -51.822  16.072  1.00  0.00     0.034 A 
HETATM   24 CL   UNL     1     -45.207 -52.933  17.038  1.00  0.00    -0.084 Cl
HETATM   25  C   UNL     1     -42.993 -51.532  16.393  1.00  0.00     0.024 A 
HETATM   26  C   UNL     1     -42.272 -50.618  15.619  1.00  0.00     0.011 A 
ENDBRANCH  19  20
ENDBRANCH  18  19
ENDBRANCH  17  18
ENDBRANCH  14  17
ENDBRANCH  13  14
ENDBRANCH   5  13
TORSDOF 7
ENDMDL
MODEL 9
REMARK VINA RESULT:      -5.0      3.663      4.905
REMARK  7 active torsions:
REMARK  status: ('A' for Active; 'I' for Inactive)
REMARK    1  A    between atoms: N_5  and  C_6 
REMARK    2  A    between atoms: C_6  and  C_7 
REMARK    3  A    between atoms: C_7  and  O_8 
REMARK    4  A    between atoms: C_7  and  C_9 
REMARK    5  A    between atoms: C_9  and  O_10 
REMARK    6  A    between atoms: O_10  and  C_11 
REMARK    7  A    between atoms: C_11  and  C_12 
ROOT
HETATM    1  C   UNL     1     -46.046 -52.472  12.454  1.00  0.00     0.070 C 
HETATM    2  C   UNL     1     -44.670 -52.970  12.846  1.00  0.00     0.029 A 
HETATM    3  N   UNL     1     -43.665 -52.451  12.219  1.00  0.00    -0.300 N 
ATOM      4  HN  UNL     1     -43.809 -51.740  11.502  1.00  0.00     0.187 HD
HETATM    5  N   UNL     1     -42.406 -52.876  12.542  1.00  0.00    -0.254 N 
HETATM    6  C   UNL     1     -42.130 -53.804  13.533  1.00  0.00     0.283 A 
HETATM    7  O   UNL     1     -40.985 -54.140  13.833  1.00  0.00    -0.265 OA
HETATM    8  C   UNL     1     -43.309 -54.399  14.218  1.00  0.00     0.121 A 
HETATM    9  C   UNL     1     -43.050 -55.394  15.199  1.00  0.00     0.105 C 
HETATM   10  N   UNL     1     -42.906 -56.218  16.002  1.00  0.00    -0.191 NA
HETATM   11  C   UNL     1     -44.559 -54.014  13.903  1.00  0.00    -0.012 A 
HETATM   12  C   UNL     1     -45.824 -54.546  14.517  1.00  0.00     0.052 C 
ENDROOT
BRANCH   5  13
HETATM   13  C   UNL     1     -41.306 -52.268  11.792  1.00  0.00     0.186 C 
BRANCH  13  14
HETATM   14  C   UNL     1     -41.156 -50.758  12.065  1.00  0.00     0.162 C 
BRANCH  14  15
HETATM   15  O   UNL     1     -42.347 -50.022  11.752  1.00  0.00    -0.392 OA
HETATM   16  H   UNL     1     -42.203 -49.544  10.912  1.00  0.00     0.210 HD
ENDBRANCH  14  15
BRANCH  14  17
HETATM   17  C   UNL     1     -40.810 -50.511  13.539  1.00  0.00     0.201 C 
BRANCH  17  18
HETATM   18  O   UNL     1     -40.476 -49.141  13.735  1.00  0.00    -0.384 OA
BRANCH  18  19
HETATM   19  C   UNL     1     -39.403 -48.719  12.900  1.00  0.00     0.206 C 
BRANCH  19  20
HETATM   20  C   UNL     1     -39.678 -47.296  12.488  1.00  0.00    -0.035 A 
HETATM   21  C   UNL     1     -40.198 -47.023  11.212  1.00  0.00     0.011 A 
HETATM   22  C   UNL     1     -40.425 -45.708  10.804  1.00  0.00     0.024 A 
HETATM   23  C   UNL     1     -40.137 -44.656  11.671  1.00  0.00     0.034 A 
HETATM   24 CL   UNL     1     -40.399 -43.034  11.163  1.00  0.00    -0.084 Cl
HETATM   25  C   UNL     1     -39.632 -44.911  12.944  1.00  0.00     0.024 A 
HETATM   26  C   UNL     1     -39.403 -46.228  13.353  1.00  0.00     0.011 A 
ENDBRANCH  19  20
ENDBRANCH  18  19
ENDBRANCH  17  18
ENDBRANCH  14  17
ENDBRANCH  13  14
ENDBRANCH   5  13
TORSDOF 7
ENDMDL
