MODEL 1
REMARK VINA RESULT:      -7.0      0.000      0.000
REMARK  7 active torsions:
REMARK  status: ('A' for Active; 'I' for Inactive)
REMARK    1  A    between atoms: C_2  and  N_3 
REMARK    2  A    between atoms: C_2  and  C_6 
REMARK    3  A    between atoms: N_3  and  C_4 
REMARK    4  A    between atoms: N_15  and  C_16 
REMARK    5  A    between atoms: C_16  and  C_17 
REMARK    6  A    between atoms: C_17  and  O_18 
REMARK    7  A    between atoms: O_18  and  C_19 
ROOT
HETATM    1  C   UNL     1     -41.353 -49.082  11.318  1.00  0.00     0.107 A 
HETATM    2  N   UNL     1     -40.119 -48.829  10.919  1.00  0.00    -0.342 N 
ATOM      3  HN  UNL     1     -39.829 -48.156  10.210  1.00  0.00     0.167 HD
HETATM    4  C   UNL     1     -39.312 -49.652  11.648  1.00  0.00     0.060 A 
HETATM    5  C   UNL     1     -37.910 -49.741  11.626  1.00  0.00     0.032 A 
HETATM    6  C   UNL     1     -37.266 -50.634  12.484  1.00  0.00     0.002 A 
HETATM    7  C   UNL     1     -38.008 -51.437  13.341  1.00  0.00     0.002 A 
HETATM    8  C   UNL     1     -39.404 -51.372  13.360  1.00  0.00     0.032 A 
HETATM    9  C   UNL     1     -40.055 -50.461  12.507  1.00  0.00     0.062 A 
HETATM   10  N   UNL     1     -41.375 -50.105  12.260  1.00  0.00    -0.331 N 
ENDROOT
BRANCH  10  11
HETATM   11  C   UNL     1     -42.603 -50.638  12.852  1.00  0.00     0.157 C 
BRANCH  11  12
HETATM   12  C   UNL     1     -42.714 -52.156  12.876  1.00  0.00     0.196 C 
BRANCH  12  13
HETATM   13  O   UNL     1     -43.984 -52.655  12.460  1.00  0.00    -0.348 OA
BRANCH  13  14
HETATM   14  C   UNL     1     -44.988 -52.528  13.405  1.00  0.00     0.090 A 
HETATM   15  C   UNL     1     -45.872 -51.439  13.479  1.00  0.00     0.038 A 
HETATM   16  C   UNL     1     -46.855 -51.369  14.467  1.00  0.00     0.003 A 
HETATM   17  C   UNL     1     -46.978 -52.388  15.402  1.00  0.00     0.002 A 
HETATM   18  C   UNL     1     -46.115 -53.481  15.344  1.00  0.00     0.026 A 
HETATM   19  C   UNL     1     -45.127 -53.553  14.352  1.00  0.00     0.067 A 
HETATM   20 CL   UNL     1     -44.095 -54.940  14.336  1.00  0.00    -0.081 Cl
ENDBRANCH  13  14
ENDBRANCH  12  13
ENDBRANCH  11  12
ENDBRANCH  10  11
BRANCH   1  21
HETATM   21  C   UNL     1     -42.560 -48.319  10.839  1.00  0.00     0.147 C 
HETATM   22  C   UNL     1     -42.610 -46.947  11.510  1.00  0.00     0.040 C 
BRANCH  21  23
HETATM   23  N   UNL     1     -42.414 -48.168   9.402  1.00  0.00    -0.357 N 
HETATM   24  H   UNL     1     -41.509 -48.409   9.013  1.00  0.00     0.162 HD
BRANCH  23  25
HETATM   25  C   UNL     1     -43.397 -47.665   8.603  1.00  0.00     0.349 C 
HETATM   26  O   UNL     1     -43.584 -47.967   7.433  1.00  0.00    -0.284 OA
ENDBRANCH  23  25
ENDBRANCH  21  23
ENDBRANCH   1  21
TORSDOF 7
ENDMDL
MODEL 2
REMARK VINA RESULT:      -6.6      1.365      1.761
REMARK  7 active torsions:
REMARK  status: ('A' for Active; 'I' for Inactive)
REMARK    1  A    between atoms: C_2  and  N_3 
REMARK    2  A    between atoms: C_2  and  C_6 
REMARK    3  A    between atoms: N_3  and  C_4 
REMARK    4  A    between atoms: N_15  and  C_16 
REMARK    5  A    between atoms: C_16  and  C_17 
REMARK    6  A    between atoms: C_17  and  O_18 
REMARK    7  A    between atoms: O_18  and  C_19 
ROOT
HETATM    1  C   UNL     1     -41.121 -48.531  11.480  1.00  0.00     0.107 A 
HETATM    2  N   UNL     1     -39.923 -48.647  10.937  1.00  0.00    -0.342 N 
ATOM      3  HN  UNL     1     -39.579 -48.176  10.101  1.00  0.00     0.167 HD
HETATM    4  C   UNL     1     -39.238 -49.526  11.724  1.00  0.00     0.060 A 
HETATM    5  C   UNL     1     -37.906 -49.956  11.596  1.00  0.00     0.032 A 
HETATM    6  C   UNL     1     -37.378 -50.843  12.535  1.00  0.00     0.002 A 
HETATM    7  C   UNL     1     -38.169 -51.307  13.579  1.00  0.00     0.002 A 
HETATM    8  C   UNL     1     -39.501 -50.903  13.708  1.00  0.00     0.032 A 
HETATM    9  C   UNL     1     -40.031 -49.996  12.771  1.00  0.00     0.062 A 
HETATM   10  N   UNL     1     -41.256 -49.370  12.582  1.00  0.00    -0.331 N 
ENDROOT
BRANCH  10  11
HETATM   11  C   UNL     1     -42.489 -49.494  13.361  1.00  0.00     0.157 C 
BRANCH  11  12
HETATM   12  C   UNL     1     -43.485 -50.526  12.849  1.00  0.00     0.196 C 
BRANCH  12  13
HETATM   13  O   UNL     1     -44.533 -50.831  13.768  1.00  0.00    -0.348 OA
BRANCH  13  14
HETATM   14  C   UNL     1     -44.874 -52.171  13.827  1.00  0.00     0.090 A 
HETATM   15  C   UNL     1     -44.121 -53.206  13.248  1.00  0.00     0.038 A 
HETATM   16  C   UNL     1     -44.530 -54.537  13.336  1.00  0.00     0.003 A 
HETATM   17  C   UNL     1     -45.701 -54.864  14.007  1.00  0.00     0.002 A 
HETATM   18  C   UNL     1     -46.461 -53.854  14.595  1.00  0.00     0.026 A 
HETATM   19  C   UNL     1     -46.051 -52.515  14.508  1.00  0.00     0.067 A 
HETATM   20 CL   UNL     1     -47.038 -51.316  15.265  1.00  0.00    -0.081 Cl
ENDBRANCH  13  14
ENDBRANCH  12  13
ENDBRANCH  11  12
ENDBRANCH  10  11
BRANCH   1  21
HETATM   21  C   UNL     1     -42.175 -47.577  10.983  1.00  0.00     0.147 C 
HETATM   22  C   UNL     1     -41.523 -46.271  10.530  1.00  0.00     0.040 C 
BRANCH  21  23
HETATM   23  N   UNL     1     -42.830 -48.225   9.861  1.00  0.00    -0.357 N 
HETATM   24  H   UNL     1     -42.802 -49.239   9.847  1.00  0.00     0.162 HD
BRANCH  23  25
HETATM   25  C   UNL     1     -43.396 -47.536   8.830  1.00  0.00     0.349 C 
HETATM   26  O   UNL     1     -43.419 -47.900   7.663  1.00  0.00    -0.284 OA
ENDBRANCH  23  25
ENDBRANCH  21  23
ENDBRANCH   1  21
TORSDOF 7
ENDMDL
MODEL 3
REMARK VINA RESULT:      -6.6      2.092      4.492
REMARK  7 active torsions:
REMARK  status: ('A' for Active; 'I' for Inactive)
REMARK    1  A    between atoms: C_2  and  N_3 
REMARK    2  A    between atoms: C_2  and  C_6 
REMARK    3  A    between atoms: N_3  and  C_4 
REMARK    4  A    between atoms: N_15  and  C_16 
REMARK    5  A    between atoms: C_16  and  C_17 
REMARK    6  A    between atoms: C_17  and  O_18 
REMARK    7  A    between atoms: O_18  and  C_19 
ROOT
HETATM    1  C   UNL     1     -39.658 -49.448  11.684  1.00  0.00     0.107 A 
HETATM    2  N   UNL     1     -39.409 -48.185  11.388  1.00  0.00    -0.342 N 
ATOM      3  HN  UNL     1     -38.497 -47.731  11.351  1.00  0.00     0.167 HD
HETATM    4  C   UNL     1     -40.622 -47.611  11.141  1.00  0.00     0.060 A 
HETATM    5  C   UNL     1     -40.898 -46.291  10.747  1.00  0.00     0.032 A 
HETATM    6  C   UNL     1     -42.219 -45.906  10.510  1.00  0.00     0.002 A 
HETATM    7  C   UNL     1     -43.252 -46.820  10.678  1.00  0.00     0.002 A 
HETATM    8  C   UNL     1     -42.994 -48.132  11.088  1.00  0.00     0.032 A 
HETATM    9  C   UNL     1     -41.662 -48.525  11.312  1.00  0.00     0.062 A 
HETATM   10  N   UNL     1     -41.026 -49.700  11.695  1.00  0.00    -0.331 N 
ENDROOT
BRANCH  10  11
HETATM   11  C   UNL     1     -41.610 -50.999  12.035  1.00  0.00     0.157 C 
BRANCH  11  12
HETATM   12  C   UNL     1     -42.509 -51.011  13.264  1.00  0.00     0.196 C 
BRANCH  12  13
HETATM   13  O   UNL     1     -43.904 -51.018  12.965  1.00  0.00    -0.348 OA
BRANCH  13  14
HETATM   14  C   UNL     1     -44.729 -51.024  14.076  1.00  0.00     0.090 A 
HETATM   15  C   UNL     1     -44.313 -50.682  15.374  1.00  0.00     0.038 A 
HETATM   16  C   UNL     1     -45.197 -50.721  16.453  1.00  0.00     0.003 A 
HETATM   17  C   UNL     1     -46.518 -51.102  16.259  1.00  0.00     0.002 A 
HETATM   18  C   UNL     1     -46.954 -51.440  14.978  1.00  0.00     0.026 A 
HETATM   19  C   UNL     1     -46.068 -51.400  13.893  1.00  0.00     0.067 A 
HETATM   20 CL   UNL     1     -46.678 -51.826  12.333  1.00  0.00    -0.081 Cl
ENDBRANCH  13  14
ENDBRANCH  12  13
ENDBRANCH  11  12
ENDBRANCH  10  11
BRANCH   1  21
HETATM   21  C   UNL     1     -38.586 -50.476  11.930  1.00  0.00     0.147 C 
HETATM   22  C   UNL     1     -37.290 -50.053  11.237  1.00  0.00     0.040 C 
BRANCH  21  23
HETATM   23  N   UNL     1     -38.388 -50.537  13.366  1.00  0.00    -0.357 N 
HETATM   24  H   UNL     1     -38.044 -49.692  13.811  1.00  0.00     0.162 HD
BRANCH  23  25
HETATM   25  C   UNL     1     -38.576 -51.673  14.096  1.00  0.00     0.349 C 
HETATM   26  O   UNL     1     -38.704 -52.799  13.635  1.00  0.00    -0.284 OA
ENDBRANCH  23  25
ENDBRANCH  21  23
ENDBRANCH   1  21
TORSDOF 7
ENDMDL
MODEL 4
REMARK VINA RESULT:      -6.6      2.526      3.341
REMARK  7 active torsions:
REMARK  status: ('A' for Active; 'I' for Inactive)
REMARK    1  A    between atoms: C_2  and  N_3 
REMARK    2  A    between atoms: C_2  and  C_6 
REMARK    3  A    between atoms: N_3  and  C_4 
REMARK    4  A    between atoms: N_15  and  C_16 
REMARK    5  A    between atoms: C_16  and  C_17 
REMARK    6  A    between atoms: C_17  and  O_18 
REMARK    7  A    between atoms: O_18  and  C_19 
ROOT
HETATM    1  C   UNL     1     -41.464 -47.385  10.930  1.00  0.00     0.107 A 
HETATM    2  N   UNL     1     -41.218 -46.175  11.401  1.00  0.00    -0.342 N 
ATOM      3  HN  UNL     1     -41.669 -45.304  11.122  1.00  0.00     0.167 HD
HETATM    4  C   UNL     1     -40.236 -46.328  12.335  1.00  0.00     0.060 A 
HETATM    5  C   UNL     1     -39.649 -45.346  13.151  1.00  0.00     0.032 A 
HETATM    6  C   UNL     1     -38.674 -45.718  14.078  1.00  0.00     0.002 A 
HETATM    7  C   UNL     1     -38.278 -47.046  14.180  1.00  0.00     0.002 A 
HETATM    8  C   UNL     1     -38.840 -48.030  13.362  1.00  0.00     0.032 A 
HETATM    9  C   UNL     1     -39.835 -47.660  12.438  1.00  0.00     0.062 A 
HETATM   10  N   UNL     1     -40.614 -48.327  11.501  1.00  0.00    -0.331 N 
ENDROOT
BRANCH  10  11
HETATM   11  C   UNL     1     -40.618 -49.746  11.142  1.00  0.00     0.157 C 
BRANCH  11  12
HETATM   12  C   UNL     1     -41.291 -50.673  12.146  1.00  0.00     0.196 C 
BRANCH  12  13
HETATM   13  O   UNL     1     -41.272 -52.049  11.771  1.00  0.00    -0.348 OA
BRANCH  13  14
HETATM   14  C   UNL     1     -42.086 -52.864  12.538  1.00  0.00     0.090 A 
HETATM   15  C   UNL     1     -43.481 -52.952  12.393  1.00  0.00     0.038 A 
HETATM   16  C   UNL     1     -44.244 -53.787  13.210  1.00  0.00     0.003 A 
HETATM   17  C   UNL     1     -43.629 -54.557  14.189  1.00  0.00     0.002 A 
HETATM   18  C   UNL     1     -42.245 -54.490  14.346  1.00  0.00     0.026 A 
HETATM   19  C   UNL     1     -41.477 -53.652  13.526  1.00  0.00     0.067 A 
HETATM   20 CL   UNL     1     -39.767 -53.623  13.773  1.00  0.00    -0.081 Cl
ENDBRANCH  13  14
ENDBRANCH  12  13
ENDBRANCH  11  12
ENDBRANCH  10  11
BRANCH   1  21
HETATM   21  C   UNL     1     -42.557 -47.690   9.941  1.00  0.00     0.147 C 
HETATM   22  C   UNL     1     -43.897 -47.815  10.666  1.00  0.00     0.040 C 
BRANCH  21  23
HETATM   23  N   UNL     1     -42.595 -46.581   9.005  1.00  0.00    -0.357 N 
HETATM   24  H   UNL     1     -41.721 -46.348   8.546  1.00  0.00     0.162 HD
BRANCH  23  25
HETATM   25  C   UNL     1     -43.711 -45.828   8.788  1.00  0.00     0.349 C 
HETATM   26  O   UNL     1     -43.845 -44.653   9.101  1.00  0.00    -0.284 OA
ENDBRANCH  23  25
ENDBRANCH  21  23
ENDBRANCH   1  21
TORSDOF 7
ENDMDL
MODEL 5
REMARK VINA RESULT:      -6.3      2.616      4.703
REMARK  7 active torsions:
REMARK  status: ('A' for Active; 'I' for Inactive)
REMARK    1  A    between atoms: C_2  and  N_3 
REMARK    2  A    between atoms: C_2  and  C_6 
REMARK    3  A    between atoms: N_3  and  C_4 
REMARK    4  A    between atoms: N_15  and  C_16 
REMARK    5  A    between atoms: C_16  and  C_17 
REMARK    6  A    between atoms: C_17  and  O_18 
REMARK    7  A    between atoms: O_18  and  C_19 
ROOT
HETATM    1  C   UNL     1     -39.564 -48.938  11.968  1.00  0.00     0.107 A 
HETATM    2  N   UNL     1     -39.544 -47.774  11.343  1.00  0.00    -0.342 N 
ATOM      3  HN  UNL     1     -38.723 -47.222  11.100  1.00  0.00     0.167 HD
HETATM    4  C   UNL     1     -40.848 -47.462  11.091  1.00  0.00     0.060 A 
HETATM    5  C   UNL     1     -41.360 -46.343  10.412  1.00  0.00     0.032 A 
HETATM    6  C   UNL     1     -42.738 -46.223  10.227  1.00  0.00     0.002 A 
HETATM    7  C   UNL     1     -43.596 -47.198  10.724  1.00  0.00     0.002 A 
HETATM    8  C   UNL     1     -43.102 -48.307  11.416  1.00  0.00     0.032 A 
HETATM    9  C   UNL     1     -41.711 -48.437  11.590  1.00  0.00     0.062 A 
HETATM   10  N   UNL     1     -40.869 -49.369  12.184  1.00  0.00    -0.331 N 
ENDROOT
BRANCH  10  11
HETATM   11  C   UNL     1     -41.210 -50.603  12.894  1.00  0.00     0.157 C 
BRANCH  11  12
HETATM   12  C   UNL     1     -41.427 -51.826  12.014  1.00  0.00     0.196 C 
BRANCH  12  13
HETATM   13  O   UNL     1     -41.222 -53.069  12.684  1.00  0.00    -0.348 OA
BRANCH  13  14
HETATM   14  C   UNL     1     -42.380 -53.667  13.151  1.00  0.00     0.090 A 
HETATM   15  C   UNL     1     -43.637 -53.548  12.536  1.00  0.00     0.038 A 
HETATM   16  C   UNL     1     -44.767 -54.169  13.068  1.00  0.00     0.003 A 
HETATM   17  C   UNL     1     -44.666 -54.926  14.228  1.00  0.00     0.002 A 
HETATM   18  C   UNL     1     -43.427 -55.063  14.853  1.00  0.00     0.026 A 
HETATM   19  C   UNL     1     -42.290 -54.440  14.319  1.00  0.00     0.067 A 
HETATM   20 CL   UNL     1     -40.786 -54.657  15.142  1.00  0.00    -0.081 Cl
ENDBRANCH  13  14
ENDBRANCH  12  13
ENDBRANCH  11  12
ENDBRANCH  10  11
BRANCH   1  21
HETATM   21  C   UNL     1     -38.325 -49.705  12.347  1.00  0.00     0.147 C 
HETATM   22  C   UNL     1     -37.426 -49.880  11.123  1.00  0.00     0.040 C 
BRANCH  21  23
HETATM   23  N   UNL     1     -37.643 -48.921  13.360  1.00  0.00    -0.357 N 
HETATM   24  H   UNL     1     -37.026 -48.188  13.024  1.00  0.00     0.162 HD
BRANCH  23  25
HETATM   25  C   UNL     1     -37.748 -49.175  14.695  1.00  0.00     0.349 C 
HETATM   26  O   UNL     1     -38.483 -50.012  15.202  1.00  0.00    -0.284 OA
ENDBRANCH  23  25
ENDBRANCH  21  23
ENDBRANCH   1  21
TORSDOF 7
ENDMDL
MODEL 6
REMARK VINA RESULT:      -6.3      4.562      6.123
REMARK  7 active torsions:
REMARK  status: ('A' for Active; 'I' for Inactive)
REMARK    1  A    between atoms: C_2  and  N_3 
REMARK    2  A    between atoms: C_2  and  C_6 
REMARK    3  A    between atoms: N_3  and  C_4 
REMARK    4  A    between atoms: N_15  and  C_16 
REMARK    5  A    between atoms: C_16  and  C_17 
REMARK    6  A    between atoms: C_17  and  O_18 
REMARK    7  A    between atoms: O_18  and  C_19 
ROOT
HETATM    1  C   UNL     1     -42.555 -47.451  10.159  1.00  0.00     0.107 A 
HETATM    2  N   UNL     1     -42.713 -48.670  10.643  1.00  0.00    -0.342 N 
ATOM      3  HN  UNL     1     -43.502 -49.296  10.485  1.00  0.00     0.167 HD
HETATM    4  C   UNL     1     -41.604 -48.921  11.397  1.00  0.00     0.060 A 
HETATM    5  C   UNL     1     -41.271 -50.095  12.093  1.00  0.00     0.032 A 
HETATM    6  C   UNL     1     -40.061 -50.164  12.785  1.00  0.00     0.002 A 
HETATM    7  C   UNL     1     -39.200 -49.072  12.795  1.00  0.00     0.002 A 
HETATM    8  C   UNL     1     -39.527 -47.891  12.122  1.00  0.00     0.032 A 
HETATM    9  C   UNL     1     -40.740 -47.827  11.411  1.00  0.00     0.062 A 
HETATM   10  N   UNL     1     -41.383 -46.872  10.633  1.00  0.00    -0.331 N 
ENDROOT
BRANCH  10  11
HETATM   11  C   UNL     1     -40.963 -45.508  10.308  1.00  0.00     0.157 C 
BRANCH  11  12
HETATM   12  C   UNL     1     -41.127 -44.487  11.426  1.00  0.00     0.196 C 
BRANCH  12  13
HETATM   13  O   UNL     1     -42.480 -44.277  11.828  1.00  0.00    -0.348 OA
BRANCH  13  14
HETATM   14  C   UNL     1     -42.740 -44.589  13.151  1.00  0.00     0.090 A 
HETATM   15  C   UNL     1     -42.973 -45.890  13.628  1.00  0.00     0.038 A 
HETATM   16  C   UNL     1     -43.242 -46.131  14.976  1.00  0.00     0.003 A 
HETATM   17  C   UNL     1     -43.282 -45.077  15.879  1.00  0.00     0.002 A 
HETATM   18  C   UNL     1     -43.049 -43.778  15.429  1.00  0.00     0.026 A 
HETATM   19  C   UNL     1     -42.778 -43.534  14.075  1.00  0.00     0.067 A 
HETATM   20 CL   UNL     1     -42.493 -41.900  13.589  1.00  0.00    -0.081 Cl
ENDBRANCH  13  14
ENDBRANCH  12  13
ENDBRANCH  11  12
ENDBRANCH  10  11
BRANCH   1  21
HETATM   21  C   UNL     1     -43.508 -46.809   9.186  1.00  0.00     0.147 C 
HETATM   22  C   UNL     1     -43.525 -47.597   7.876  1.00  0.00     0.040 C 
BRANCH  21  23
HETATM   23  N   UNL     1     -44.820 -46.838   9.805  1.00  0.00    -0.357 N 
HETATM   24  H   UNL     1     -44.903 -46.383  10.708  1.00  0.00     0.162 HD
BRANCH  23  25
HETATM   25  C   UNL     1     -45.885 -47.494   9.263  1.00  0.00     0.349 C 
HETATM   26  O   UNL     1     -46.945 -46.979   8.937  1.00  0.00    -0.284 OA
ENDBRANCH  23  25
ENDBRANCH  21  23
ENDBRANCH   1  21
TORSDOF 7
ENDMDL
MODEL 7
REMARK VINA RESULT:      -6.3      4.272      5.915
REMARK  7 active torsions:
REMARK  status: ('A' for Active; 'I' for Inactive)
REMARK    1  A    between atoms: C_2  and  N_3 
REMARK    2  A    between atoms: C_2  and  C_6 
REMARK    3  A    between atoms: N_3  and  C_4 
REMARK    4  A    between atoms: N_15  and  C_16 
REMARK    5  A    between atoms: C_16  and  C_17 
REMARK    6  A    between atoms: C_17  and  O_18 
REMARK    7  A    between atoms: O_18  and  C_19 
ROOT
HETATM    1  C   UNL     1     -42.456 -47.526  10.068  1.00  0.00     0.107 A 
HETATM    2  N   UNL     1     -42.409 -48.789  10.454  1.00  0.00    -0.342 N 
ATOM      3  HN  UNL     1     -43.087 -49.521  10.244  1.00  0.00     0.167 HD
HETATM    4  C   UNL     1     -41.268 -48.913  11.192  1.00  0.00     0.060 A 
HETATM    5  C   UNL     1     -40.743 -50.068  11.795  1.00  0.00     0.032 A 
HETATM    6  C   UNL     1     -39.531 -49.991  12.485  1.00  0.00     0.002 A 
HETATM    7  C   UNL     1     -38.861 -48.778  12.585  1.00  0.00     0.002 A 
HETATM    8  C   UNL     1     -39.381 -47.618  12.005  1.00  0.00     0.032 A 
HETATM    9  C   UNL     1     -40.594 -47.697  11.295  1.00  0.00     0.062 A 
HETATM   10  N   UNL     1     -41.390 -46.802  10.592  1.00  0.00    -0.331 N 
ENDROOT
BRANCH  10  11
HETATM   11  C   UNL     1     -41.201 -45.366  10.376  1.00  0.00     0.157 C 
BRANCH  11  12
HETATM   12  C   UNL     1     -40.530 -44.616  11.519  1.00  0.00     0.196 C 
BRANCH  12  13
HETATM   13  O   UNL     1     -41.380 -44.382  12.641  1.00  0.00    -0.348 OA
BRANCH  13  14
HETATM   14  C   UNL     1     -40.968 -44.996  13.811  1.00  0.00     0.090 A 
HETATM   15  C   UNL     1     -39.804 -44.653  14.518  1.00  0.00     0.038 A 
HETATM   16  C   UNL     1     -39.441 -45.323  15.687  1.00  0.00     0.003 A 
HETATM   17  C   UNL     1     -40.236 -46.350  16.178  1.00  0.00     0.002 A 
HETATM   18  C   UNL     1     -41.400 -46.703  15.496  1.00  0.00     0.026 A 
HETATM   19  C   UNL     1     -41.766 -46.031  14.321  1.00  0.00     0.067 A 
HETATM   20 CL   UNL     1     -43.224 -46.517  13.531  1.00  0.00    -0.081 Cl
ENDBRANCH  13  14
ENDBRANCH  12  13
ENDBRANCH  11  12
ENDBRANCH  10  11
BRANCH   1  21
HETATM   21  C   UNL     1     -43.508 -46.974   9.144  1.00  0.00     0.147 C 
HETATM   22  C   UNL     1     -43.550 -47.792   7.853  1.00  0.00     0.040 C 
BRANCH  21  23
HETATM   23  N   UNL     1     -44.775 -47.078   9.844  1.00  0.00    -0.357 N 
HETATM   24  H   UNL     1     -44.773 -46.814  10.824  1.00  0.00     0.162 HD
BRANCH  23  25
HETATM   25  C   UNL     1     -45.908 -47.569   9.265  1.00  0.00     0.349 C 
HETATM   26  O   UNL     1     -46.827 -46.895   8.822  1.00  0.00    -0.284 OA
ENDBRANCH  23  25
ENDBRANCH  21  23
ENDBRANCH   1  21
TORSDOF 7
ENDMDL
MODEL 8
REMARK VINA RESULT:      -6.3      4.430      6.967
REMARK  7 active torsions:
REMARK  status: ('A' for Active; 'I' for Inactive)
REMARK    1  A    between atoms: C_2  and  N_3 
REMARK    2  A    between atoms: C_2  and  C_6 
REMARK    3  A    between atoms: N_3  and  C_4 
REMARK    4  A    between atoms: N_15  and  C_16 
REMARK    5  A    between atoms: C_16  and  C_17 
REMARK    6  A    between atoms: C_17  and  O_18 
REMARK    7  A    between atoms: O_18  and  C_19 
ROOT
HETATM    1  C   UNL     1     -42.538 -47.515  10.142  1.00  0.00     0.107 A 
HETATM    2  N   UNL     1     -42.636 -48.747  10.608  1.00  0.00    -0.342 N 
ATOM      3  HN  UNL     1     -43.404 -49.400  10.460  1.00  0.00     0.167 HD
HETATM    4  C   UNL     1     -41.498 -48.967  11.328  1.00  0.00     0.060 A 
HETATM    5  C   UNL     1     -41.102 -50.139  11.994  1.00  0.00     0.032 A 
HETATM    6  C   UNL     1     -39.871 -50.172  12.652  1.00  0.00     0.002 A 
HETATM    7  C   UNL     1     -39.054 -49.048  12.659  1.00  0.00     0.002 A 
HETATM    8  C   UNL     1     -39.443 -47.870  12.016  1.00  0.00     0.032 A 
HETATM    9  C   UNL     1     -40.677 -47.840  11.339  1.00  0.00     0.062 A 
HETATM   10  N   UNL     1     -41.377 -46.898  10.595  1.00  0.00    -0.331 N 
ENDROOT
BRANCH  10  11
HETATM   11  C   UNL     1     -41.018 -45.513  10.283  1.00  0.00     0.157 C 
BRANCH  11  12
HETATM   12  C   UNL     1     -41.019 -44.555  11.466  1.00  0.00     0.196 C 
BRANCH  12  13
HETATM   13  O   UNL     1     -42.250 -44.518  12.186  1.00  0.00    -0.348 OA
BRANCH  13  14
HETATM   14  C   UNL     1     -42.808 -43.257  12.307  1.00  0.00     0.090 A 
HETATM   15  C   UNL     1     -43.323 -42.513  11.233  1.00  0.00     0.038 A 
HETATM   16  C   UNL     1     -43.861 -41.239  11.425  1.00  0.00     0.003 A 
HETATM   17  C   UNL     1     -43.898 -40.682  12.696  1.00  0.00     0.002 A 
HETATM   18  C   UNL     1     -43.398 -41.406  13.778  1.00  0.00     0.026 A 
HETATM   19  C   UNL     1     -42.857 -42.686  13.587  1.00  0.00     0.067 A 
HETATM   20 CL   UNL     1     -42.260 -43.527  14.973  1.00  0.00    -0.081 Cl
ENDBRANCH  13  14
ENDBRANCH  12  13
ENDBRANCH  11  12
ENDBRANCH  10  11
BRANCH   1  21
HETATM   21  C   UNL     1     -43.540 -46.893   9.205  1.00  0.00     0.147 C 
HETATM   22  C   UNL     1     -43.527 -47.629   7.865  1.00  0.00     0.040 C 
BRANCH  21  23
HETATM   23  N   UNL     1     -44.840 -47.027   9.837  1.00  0.00    -0.357 N 
HETATM   24  H   UNL     1     -44.896 -46.760  10.815  1.00  0.00     0.162 HD
BRANCH  23  25
HETATM   25  C   UNL     1     -45.928 -47.546   9.201  1.00  0.00     0.349 C 
HETATM   26  O   UNL     1     -46.936 -46.923   8.897  1.00  0.00    -0.284 OA
ENDBRANCH  23  25
ENDBRANCH  21  23
ENDBRANCH   1  21
TORSDOF 7
ENDMDL
MODEL 9
REMARK VINA RESULT:      -6.2      2.807      4.443
REMARK  7 active torsions:
REMARK  status: ('A' for Active; 'I' for Inactive)
REMARK    1  A    between atoms: C_2  and  N_3 
REMARK    2  A    between atoms: C_2  and  C_6 
REMARK    3  A    between atoms: N_3  and  C_4 
REMARK    4  A    between atoms: N_15  and  C_16 
REMARK    5  A    between atoms: C_16  and  C_17 
REMARK    6  A    between atoms: C_17  and  O_18 
REMARK    7  A    between atoms: O_18  and  C_19 
ROOT
HETATM    1  C   UNL     1     -41.725 -52.210  13.102  1.00  0.00     0.107 A 
HETATM    2  N   UNL     1     -40.741 -52.460  13.947  1.00  0.00    -0.342 N 
ATOM      3  HN  UNL     1     -39.860 -51.954  14.031  1.00  0.00     0.167 HD
HETATM    4  C   UNL     1     -41.143 -53.534  14.685  1.00  0.00     0.060 A 
HETATM    5  C   UNL     1     -40.470 -54.165  15.745  1.00  0.00     0.032 A 
HETATM    6  C   UNL     1     -41.074 -55.240  16.399  1.00  0.00     0.002 A 
HETATM    7  C   UNL     1     -42.325 -55.690  15.994  1.00  0.00     0.002 A 
HETATM    8  C   UNL     1     -42.998 -55.083  14.929  1.00  0.00     0.032 A 
HETATM    9  C   UNL     1     -42.398 -53.989  14.279  1.00  0.00     0.062 A 
HETATM   10  N   UNL     1     -42.747 -53.145  13.233  1.00  0.00    -0.331 N 
ENDROOT
BRANCH  10  11
HETATM   11  C   UNL     1     -43.950 -53.154  12.398  1.00  0.00     0.157 C 
BRANCH  11  12
HETATM   12  C   UNL     1     -45.190 -52.536  13.030  1.00  0.00     0.196 C 
BRANCH  12  13
HETATM   13  O   UNL     1     -44.931 -51.352  13.783  1.00  0.00    -0.348 OA
BRANCH  13  14
HETATM   14  C   UNL     1     -45.620 -51.271  14.980  1.00  0.00     0.090 A 
HETATM   15  C   UNL     1     -47.010 -51.435  15.107  1.00  0.00     0.038 A 
HETATM   16  C   UNL     1     -47.643 -51.329  16.347  1.00  0.00     0.003 A 
HETATM   17  C   UNL     1     -46.900 -51.057  17.488  1.00  0.00     0.002 A 
HETATM   18  C   UNL     1     -45.519 -50.896  17.386  1.00  0.00     0.026 A 
HETATM   19  C   UNL     1     -44.881 -51.003  16.142  1.00  0.00     0.067 A 
HETATM   20 CL   UNL     1     -43.166 -50.797  16.091  1.00  0.00    -0.081 Cl
ENDBRANCH  13  14
ENDBRANCH  12  13
ENDBRANCH  11  12
ENDBRANCH  10  11
BRANCH   1  21
HETATM   21  C   UNL     1     -41.740 -51.036  12.160  1.00  0.00     0.147 C 
HETATM   22  C   UNL     1     -41.737 -49.730  12.955  1.00  0.00     0.040 C 
BRANCH  21  23
HETATM   23  N   UNL     1     -40.537 -51.133  11.353  1.00  0.00    -0.357 N 
HETATM   24  H   UNL     1     -40.594 -51.719  10.527  1.00  0.00     0.162 HD
BRANCH  23  25
HETATM   25  C   UNL     1     -39.359 -50.539  11.698  1.00  0.00     0.349 C 
HETATM   26  O   UNL     1     -38.429 -51.090  12.271  1.00  0.00    -0.284 OA
ENDBRANCH  23  25
ENDBRANCH  21  23
ENDBRANCH   1  21
TORSDOF 7
ENDMDL
