MODEL 1
REMARK VINA RESULT:      -6.2      0.000      0.000
REMARK  5 active torsions:
REMARK  status: ('A' for Active; 'I' for Inactive)
REMARK    1  A    between atoms: O_2  and  C_3 
REMARK    2  A    between atoms: C_3  and  C_4 
REMARK    3  A    between atoms: C_4  and  N_5 
REMARK       I    between atoms: N_5  and  C_6 
REMARK       I    between atoms: C_6  and  N_8 
REMARK    4  A    between atoms: N_8  and  C_9 
REMARK    5  A    between atoms: C_13  and  C_17 
ROOT
HETATM    1  N   UNL     1     -43.194 -51.896  12.850  1.00  0.00    -0.340 N 
HETATM    2  C   UNL     1     -42.642 -50.640  12.816  1.00  0.00     0.320 C 
HETATM    3  O   UNL     1     -42.749 -49.879  13.770  1.00  0.00    -0.247 OA
HETATM    4  N   UNL     1     -42.016 -50.336  11.633  1.00  0.00    -0.306 N 
HETATM    5  H   UNL     1     -43.117 -52.543  12.078  1.00  0.00     0.164 HD
HETATM    6  H   UNL     1     -42.156 -50.968  10.859  1.00  0.00     0.171 HD
ENDROOT
BRANCH   4   7
HETATM    7  C   UNL     1     -41.417 -49.082  11.362  1.00  0.00     0.067 A 
HETATM    8  C   UNL     1     -40.227 -48.635  11.904  1.00  0.00     0.120 A 
HETATM    9  N   UNL     1     -39.703 -47.408  11.688  1.00  0.00    -0.353 N 
HETATM   10  C   UNL     1     -40.387 -46.572  10.887  1.00  0.00     0.085 A 
ATOM     11  HN  UNL     1     -38.822 -47.125  12.117  1.00  0.00     0.166 HD
HETATM   12  N   UNL     1     -41.536 -46.928  10.271  1.00  0.00    -0.353 N 
HETATM   13  C   UNL     1     -42.015 -48.170  10.518  1.00  0.00     0.120 A 
ATOM     14  HN  UNL     1     -42.023 -46.287   9.644  1.00  0.00     0.166 HD
BRANCH  10  15
HETATM   15  C   UNL     1     -39.866 -45.168  10.717  1.00  0.00     0.053 A 
HETATM   16  C   UNL     1     -39.391 -44.378  11.913  1.00  0.00     0.013 A 
HETATM   17  C   UNL     1     -40.667 -43.988  11.227  1.00  0.00     0.013 A 
ENDBRANCH  10  15
ENDBRANCH   4   7
BRANCH   1  18
HETATM   18  C   UNL     1     -44.000 -52.244  14.007  1.00  0.00     0.162 C 
BRANCH  18  19
HETATM   19  C   UNL     1     -45.384 -52.742  13.585  1.00  0.00     0.076 C 
HETATM   20  C   UNL     1     -46.422 -52.662  14.750  1.00  0.00     0.040 C 
HETATM   21  C   UNL     1     -46.882 -51.301  14.204  1.00  0.00     0.006 C 
HETATM   22  C   UNL     1     -46.263 -51.684  12.851  1.00  0.00     0.040 C 
BRANCH  19  23
HETATM   23  O   UNL     1     -45.315 -54.018  12.890  1.00  0.00    -0.383 OA
HETATM   24  C   UNL     1     -45.396 -55.199  13.682  1.00  0.00     0.202 C 
ENDBRANCH  19  23
ENDBRANCH  18  19
ENDBRANCH   1  18
TORSDOF 5
ENDMDL
MODEL 2
REMARK VINA RESULT:      -6.0      0.871      1.740
REMARK  5 active torsions:
REMARK  status: ('A' for Active; 'I' for Inactive)
REMARK    1  A    between atoms: O_2  and  C_3 
REMARK    2  A    between atoms: C_3  and  C_4 
REMARK    3  A    between atoms: C_4  and  N_5 
REMARK       I    between atoms: N_5  and  C_6 
REMARK       I    between atoms: C_6  and  N_8 
REMARK    4  A    between atoms: N_8  and  C_9 
REMARK    5  A    between atoms: C_13  and  C_17 
ROOT
HETATM    1  N   UNL     1     -43.321 -51.659  12.652  1.00  0.00    -0.340 N 
HETATM    2  C   UNL     1     -42.859 -50.368  12.599  1.00  0.00     0.320 C 
HETATM    3  O   UNL     1     -43.337 -49.498  13.317  1.00  0.00    -0.247 OA
HETATM    4  N   UNL     1     -41.872 -50.165  11.666  1.00  0.00    -0.306 N 
HETATM    5  H   UNL     1     -42.941 -52.395  12.073  1.00  0.00     0.164 HD
HETATM    6  H   UNL     1     -41.696 -50.909  11.009  1.00  0.00     0.171 HD
ENDROOT
BRANCH   4   7
HETATM    7  C   UNL     1     -41.283 -48.902  11.410  1.00  0.00     0.067 A 
HETATM    8  C   UNL     1     -40.232 -48.356  12.121  1.00  0.00     0.120 A 
HETATM    9  N   UNL     1     -39.726 -47.121  11.907  1.00  0.00    -0.353 N 
HETATM   10  C   UNL     1     -40.283 -46.381  10.932  1.00  0.00     0.085 A 
ATOM     11  HN  UNL     1     -38.951 -46.763  12.464  1.00  0.00     0.166 HD
HETATM   12  N   UNL     1     -41.284 -46.840  10.148  1.00  0.00    -0.353 N 
HETATM   13  C   UNL     1     -41.751 -48.086  10.403  1.00  0.00     0.120 A 
ATOM     14  HN  UNL     1     -41.672 -46.272   9.396  1.00  0.00     0.166 HD
BRANCH  10  15
HETATM   15  C   UNL     1     -39.795 -44.967  10.749  1.00  0.00     0.053 A 
HETATM   16  C   UNL     1     -39.404 -44.131  11.944  1.00  0.00     0.013 A 
HETATM   17  C   UNL     1     -40.654 -43.799  11.185  1.00  0.00     0.013 A 
ENDBRANCH  10  15
ENDBRANCH   4   7
BRANCH   1  18
HETATM   18  C   UNL     1     -44.464 -51.928  13.506  1.00  0.00     0.162 C 
BRANCH  18  19
HETATM   19  C   UNL     1     -45.181 -53.210  13.078  1.00  0.00     0.076 C 
HETATM   20  C   UNL     1     -44.187 -54.387  12.821  1.00  0.00     0.040 C 
HETATM   21  C   UNL     1     -44.441 -54.873  14.257  1.00  0.00     0.006 C 
HETATM   22  C   UNL     1     -45.748 -54.067  14.253  1.00  0.00     0.040 C 
BRANCH  19  23
HETATM   23  O   UNL     1     -46.152 -52.965  12.023  1.00  0.00    -0.383 OA
HETATM   24  C   UNL     1     -46.849 -51.723  12.051  1.00  0.00     0.202 C 
ENDBRANCH  19  23
ENDBRANCH  18  19
ENDBRANCH   1  18
TORSDOF 5
ENDMDL
MODEL 3
REMARK VINA RESULT:      -5.7      1.886      2.456
REMARK  5 active torsions:
REMARK  status: ('A' for Active; 'I' for Inactive)
REMARK    1  A    between atoms: O_2  and  C_3 
REMARK    2  A    between atoms: C_3  and  C_4 
REMARK    3  A    between atoms: C_4  and  N_5 
REMARK       I    between atoms: N_5  and  C_6 
REMARK       I    between atoms: C_6  and  N_8 
REMARK    4  A    between atoms: N_8  and  C_9 
REMARK    5  A    between atoms: C_13  and  C_17 
ROOT
HETATM    1  N   UNL     1     -43.635 -51.531  13.315  1.00  0.00    -0.340 N 
HETATM    2  C   UNL     1     -42.826 -50.479  12.963  1.00  0.00     0.320 C 
HETATM    3  O   UNL     1     -41.676 -50.404  13.376  1.00  0.00    -0.247 OA
HETATM    4  N   UNL     1     -43.438 -49.546  12.163  1.00  0.00    -0.306 N 
HETATM    5  H   UNL     1     -44.586 -51.617  12.985  1.00  0.00     0.164 HD
HETATM    6  H   UNL     1     -44.437 -49.621  12.045  1.00  0.00     0.171 HD
ENDROOT
BRANCH   4   7
HETATM    7  C   UNL     1     -42.807 -48.359  11.718  1.00  0.00     0.067 A 
HETATM    8  C   UNL     1     -41.913 -48.279  10.668  1.00  0.00     0.120 A 
HETATM    9  N   UNL     1     -41.267 -47.150  10.300  1.00  0.00    -0.353 N 
HETATM   10  C   UNL     1     -41.520 -46.032  11.003  1.00  0.00     0.085 A 
ATOM     11  HN  UNL     1     -40.613 -47.146   9.517  1.00  0.00     0.166 HD
HETATM   12  N   UNL     1     -42.410 -45.993  12.018  1.00  0.00    -0.353 N 
HETATM   13  C   UNL     1     -43.033 -47.151  12.343  1.00  0.00     0.120 A 
ATOM     14  HN  UNL     1     -42.607 -45.127  12.519  1.00  0.00     0.166 HD
BRANCH  10  15
HETATM   15  C   UNL     1     -40.732 -44.791  10.666  1.00  0.00     0.053 A 
HETATM   16  C   UNL     1     -39.380 -44.898  10.003  1.00  0.00     0.013 A 
HETATM   17  C   UNL     1     -39.471 -44.454  11.433  1.00  0.00     0.013 A 
ENDBRANCH  10  15
ENDBRANCH   4   7
BRANCH   1  18
HETATM   18  C   UNL     1     -43.113 -52.486  14.276  1.00  0.00     0.162 C 
BRANCH  18  19
HETATM   19  C   UNL     1     -43.061 -53.895  13.680  1.00  0.00     0.076 C 
HETATM   20  C   UNL     1     -43.533 -54.984  14.695  1.00  0.00     0.040 C 
HETATM   21  C   UNL     1     -44.938 -54.908  14.076  1.00  0.00     0.006 C 
HETATM   22  C   UNL     1     -44.303 -54.288  12.822  1.00  0.00     0.040 C 
BRANCH  19  23
HETATM   23  O   UNL     1     -41.794 -54.160  13.017  1.00  0.00    -0.383 OA
HETATM   24  C   UNL     1     -40.605 -53.962  13.775  1.00  0.00     0.202 C 
ENDBRANCH  19  23
ENDBRANCH  18  19
ENDBRANCH   1  18
TORSDOF 5
ENDMDL
MODEL 4
REMARK VINA RESULT:      -5.7      3.528      7.248
REMARK  5 active torsions:
REMARK  status: ('A' for Active; 'I' for Inactive)
REMARK    1  A    between atoms: O_2  and  C_3 
REMARK    2  A    between atoms: C_3  and  C_4 
REMARK    3  A    between atoms: C_4  and  N_5 
REMARK       I    between atoms: N_5  and  C_6 
REMARK       I    between atoms: C_6  and  N_8 
REMARK    4  A    between atoms: N_8  and  C_9 
REMARK    5  A    between atoms: C_13  and  C_17 
ROOT
HETATM    1  N   UNL     1     -42.074 -48.742  10.552  1.00  0.00    -0.340 N 
HETATM    2  C   UNL     1     -41.803 -49.630  11.563  1.00  0.00     0.320 C 
HETATM    3  O   UNL     1     -42.407 -49.577  12.627  1.00  0.00    -0.247 OA
HETATM    4  N   UNL     1     -40.799 -50.519  11.271  1.00  0.00    -0.306 N 
HETATM    5  H   UNL     1     -41.593 -48.767   9.664  1.00  0.00     0.164 HD
HETATM    6  H   UNL     1     -40.252 -50.345  10.442  1.00  0.00     0.171 HD
ENDROOT
BRANCH   4   7
HETATM    7  C   UNL     1     -40.324 -51.494  12.184  1.00  0.00     0.067 A 
HETATM    8  C   UNL     1     -40.871 -52.749  12.362  1.00  0.00     0.120 A 
HETATM    9  N   UNL     1     -40.449 -53.642  13.286  1.00  0.00    -0.353 N 
HETATM   10  C   UNL     1     -39.423 -53.280  14.076  1.00  0.00     0.085 A 
ATOM     11  HN  UNL     1     -40.891 -54.556  13.379  1.00  0.00     0.166 HD
HETATM   12  N   UNL     1     -38.788 -52.094  13.951  1.00  0.00    -0.353 N 
HETATM   13  C   UNL     1     -39.249 -51.238  13.008  1.00  0.00     0.120 A 
ATOM     14  HN  UNL     1     -37.994 -51.852  14.543  1.00  0.00     0.166 HD
BRANCH  10  15
HETATM   15  C   UNL     1     -39.007 -54.225  15.174  1.00  0.00     0.053 A 
HETATM   16  C   UNL     1     -40.004 -55.186  15.775  1.00  0.00     0.013 A 
HETATM   17  C   UNL     1     -39.513 -54.025  16.587  1.00  0.00     0.013 A 
ENDBRANCH  10  15
ENDBRANCH   4   7
BRANCH   1  18
HETATM   18  C   UNL     1     -43.020 -47.676  10.832  1.00  0.00     0.162 C 
BRANCH  18  19
HETATM   19  C   UNL     1     -43.293 -46.840   9.579  1.00  0.00     0.076 C 
HETATM   20  C   UNL     1     -43.319 -47.709   8.282  1.00  0.00     0.040 C 
HETATM   21  C   UNL     1     -44.848 -47.794   8.407  1.00  0.00     0.006 C 
HETATM   22  C   UNL     1     -44.800 -46.547   9.303  1.00  0.00     0.040 C 
BRANCH  19  23
HETATM   23  O   UNL     1     -42.455 -45.652   9.524  1.00  0.00    -0.383 OA
HETATM   24  C   UNL     1     -42.261 -44.931  10.737  1.00  0.00     0.202 C 
ENDBRANCH  19  23
ENDBRANCH  18  19
ENDBRANCH   1  18
TORSDOF 5
ENDMDL
MODEL 5
REMARK VINA RESULT:      -5.4      2.314      8.001
REMARK  5 active torsions:
REMARK  status: ('A' for Active; 'I' for Inactive)
REMARK    1  A    between atoms: O_2  and  C_3 
REMARK    2  A    between atoms: C_3  and  C_4 
REMARK    3  A    between atoms: C_4  and  N_5 
REMARK       I    between atoms: N_5  and  C_6 
REMARK       I    between atoms: C_6  and  N_8 
REMARK    4  A    between atoms: N_8  and  C_9 
REMARK    5  A    between atoms: C_13  and  C_17 
ROOT
HETATM    1  N   UNL     1     -39.973 -47.284  11.414  1.00  0.00    -0.340 N 
HETATM    2  C   UNL     1     -40.911 -48.276  11.270  1.00  0.00     0.320 C 
HETATM    3  O   UNL     1     -41.802 -48.183  10.434  1.00  0.00    -0.247 OA
HETATM    4  N   UNL     1     -40.765 -49.317  12.152  1.00  0.00    -0.306 N 
HETATM    5  H   UNL     1     -39.227 -47.339  12.094  1.00  0.00     0.164 HD
HETATM    6  H   UNL     1     -40.113 -49.192  12.912  1.00  0.00     0.171 HD
ENDROOT
BRANCH   4   7
HETATM    7  C   UNL     1     -41.646 -50.425  12.212  1.00  0.00     0.067 A 
HETATM    8  C   UNL     1     -42.903 -50.411  12.784  1.00  0.00     0.120 A 
HETATM    9  N   UNL     1     -43.704 -51.494  12.893  1.00  0.00    -0.353 N 
HETATM   10  C   UNL     1     -43.243 -52.660  12.406  1.00  0.00     0.085 A 
ATOM     11  HN  UNL     1     -44.624 -51.431  13.329  1.00  0.00     0.166 HD
HETATM   12  N   UNL     1     -42.047 -52.770  11.787  1.00  0.00    -0.353 N 
HETATM   13  C   UNL     1     -41.286 -51.654  11.701  1.00  0.00     0.120 A 
ATOM     14  HN  UNL     1     -41.730 -53.659  11.400  1.00  0.00     0.166 HD
BRANCH  10  15
HETATM   15  C   UNL     1     -44.083 -53.895  12.610  1.00  0.00     0.053 A 
HETATM   16  C   UNL     1     -45.328 -53.842  13.463  1.00  0.00     0.013 A 
HETATM   17  C   UNL     1     -44.120 -54.579  13.960  1.00  0.00     0.013 A 
ENDBRANCH  10  15
ENDBRANCH   4   7
BRANCH   1  18
HETATM   18  C   UNL     1     -40.141 -46.080  10.620  1.00  0.00     0.162 C 
BRANCH  18  19
HETATM   19  C   UNL     1     -40.779 -44.961  11.446  1.00  0.00     0.076 C 
HETATM   20  C   UNL     1     -40.382 -45.039  12.955  1.00  0.00     0.040 C 
HETATM   21  C   UNL     1     -39.260 -44.026  12.679  1.00  0.00     0.006 C 
HETATM   22  C   UNL     1     -40.013 -43.603  11.410  1.00  0.00     0.040 C 
BRANCH  19  23
HETATM   23  O   UNL     1     -42.203 -44.828  11.177  1.00  0.00    -0.383 OA
HETATM   24  C   UNL     1     -42.743 -43.510  11.155  1.00  0.00     0.202 C 
ENDBRANCH  19  23
ENDBRANCH  18  19
ENDBRANCH   1  18
TORSDOF 5
ENDMDL
MODEL 6
REMARK VINA RESULT:      -5.2      1.646      2.639
REMARK  5 active torsions:
REMARK  status: ('A' for Active; 'I' for Inactive)
REMARK    1  A    between atoms: O_2  and  C_3 
REMARK    2  A    between atoms: C_3  and  C_4 
REMARK    3  A    between atoms: C_4  and  N_5 
REMARK       I    between atoms: N_5  and  C_6 
REMARK       I    between atoms: C_6  and  N_8 
REMARK    4  A    between atoms: N_8  and  C_9 
REMARK    5  A    between atoms: C_13  and  C_17 
ROOT
HETATM    1  N   UNL     1     -43.236 -52.133  13.156  1.00  0.00    -0.340 N 
HETATM    2  C   UNL     1     -42.820 -50.825  13.127  1.00  0.00     0.320 C 
HETATM    3  O   UNL     1     -42.770 -50.157  14.152  1.00  0.00    -0.247 OA
HETATM    4  N   UNL     1     -42.515 -50.364  11.870  1.00  0.00    -0.306 N 
HETATM    5  H   UNL     1     -43.282 -52.706  12.325  1.00  0.00     0.164 HD
HETATM    6  H   UNL     1     -42.774 -50.946  11.088  1.00  0.00     0.171 HD
ENDROOT
BRANCH   4   7
HETATM    7  C   UNL     1     -42.109 -49.034  11.600  1.00  0.00     0.067 A 
HETATM    8  C   UNL     1     -42.885 -47.909  11.802  1.00  0.00     0.120 A 
HETATM    9  N   UNL     1     -42.508 -46.653  11.475  1.00  0.00    -0.353 N 
HETATM   10  C   UNL     1     -41.293 -46.493  10.922  1.00  0.00     0.085 A 
ATOM     11  HN  UNL     1     -43.122 -45.856  11.641  1.00  0.00     0.166 HD
HETATM   12  N   UNL     1     -40.439 -47.521  10.725  1.00  0.00    -0.353 N 
HETATM   13  C   UNL     1     -40.865 -48.759  11.074  1.00  0.00     0.120 A 
ATOM     14  HN  UNL     1     -39.511 -47.372  10.330  1.00  0.00     0.166 HD
BRANCH  10  15
HETATM   15  C   UNL     1     -40.900 -45.112  10.461  1.00  0.00     0.053 A 
HETATM   16  C   UNL     1     -39.470 -44.807  10.088  1.00  0.00     0.013 A 
HETATM   17  C   UNL     1     -40.048 -44.225  11.344  1.00  0.00     0.013 A 
ENDBRANCH  10  15
ENDBRANCH   4   7
BRANCH   1  18
HETATM   18  C   UNL     1     -43.716 -52.656  14.423  1.00  0.00     0.162 C 
BRANCH  18  19
HETATM   19  C   UNL     1     -43.168 -54.061  14.682  1.00  0.00     0.076 C 
HETATM   20  C   UNL     1     -41.999 -54.428  13.714  1.00  0.00     0.040 C 
HETATM   21  C   UNL     1     -41.004 -53.976  14.795  1.00  0.00     0.006 C 
HETATM   22  C   UNL     1     -42.121 -54.152  15.834  1.00  0.00     0.040 C 
BRANCH  19  23
HETATM   23  O   UNL     1     -44.230 -55.049  14.789  1.00  0.00    -0.383 OA
HETATM   24  C   UNL     1     -45.317 -54.942  13.874  1.00  0.00     0.202 C 
ENDBRANCH  19  23
ENDBRANCH  18  19
ENDBRANCH   1  18
TORSDOF 5
ENDMDL
MODEL 7
REMARK VINA RESULT:      -5.0      4.122      5.107
REMARK  5 active torsions:
REMARK  status: ('A' for Active; 'I' for Inactive)
REMARK    1  A    between atoms: O_2  and  C_3 
REMARK    2  A    between atoms: C_3  and  C_4 
REMARK    3  A    between atoms: C_4  and  N_5 
REMARK       I    between atoms: N_5  and  C_6 
REMARK       I    between atoms: C_6  and  N_8 
REMARK    4  A    between atoms: N_8  and  C_9 
REMARK    5  A    between atoms: C_13  and  C_17 
ROOT
HETATM    1  N   UNL     1     -39.110 -53.097  13.961  1.00  0.00    -0.340 N 
HETATM    2  C   UNL     1     -40.097 -52.366  13.347  1.00  0.00     0.320 C 
HETATM    3  O   UNL     1     -41.150 -52.890  13.007  1.00  0.00    -0.247 OA
HETATM    4  N   UNL     1     -39.769 -51.049  13.136  1.00  0.00    -0.306 N 
HETATM    5  H   UNL     1     -38.235 -52.686  14.254  1.00  0.00     0.164 HD
HETATM    6  H   UNL     1     -38.809 -50.782  13.288  1.00  0.00     0.171 HD
ENDROOT
BRANCH   4   7
HETATM    7  C   UNL     1     -40.618 -50.125  12.480  1.00  0.00     0.067 A 
HETATM    8  C   UNL     1     -41.670 -49.452  13.072  1.00  0.00     0.120 A 
HETATM    9  N   UNL     1     -42.513 -48.625  12.414  1.00  0.00    -0.353 N 
HETATM   10  C   UNL     1     -42.306 -48.444  11.098  1.00  0.00     0.085 A 
ATOM     11  HN  UNL     1     -43.278 -48.155  12.898  1.00  0.00     0.166 HD
HETATM   12  N   UNL     1     -41.278 -49.018  10.435  1.00  0.00    -0.353 N 
HETATM   13  C   UNL     1     -40.461 -49.835  11.142  1.00  0.00     0.120 A 
ATOM     14  HN  UNL     1     -41.124 -48.844   9.442  1.00  0.00     0.166 HD
BRANCH  10  15
HETATM   15  C   UNL     1     -43.297 -47.603  10.334  1.00  0.00     0.053 A 
HETATM   16  C   UNL     1     -43.233 -47.524   8.828  1.00  0.00     0.013 A 
HETATM   17  C   UNL     1     -42.851 -46.328   9.650  1.00  0.00     0.013 A 
ENDBRANCH  10  15
ENDBRANCH   4   7
BRANCH   1  18
HETATM   18  C   UNL     1     -39.317 -54.528  14.089  1.00  0.00     0.162 C 
BRANCH  18  19
HETATM   19  C   UNL     1     -39.214 -54.970  15.551  1.00  0.00     0.076 C 
HETATM   20  C   UNL     1     -39.285 -53.764  16.540  1.00  0.00     0.040 C 
HETATM   21  C   UNL     1     -40.792 -54.023  16.698  1.00  0.00     0.006 C 
HETATM   22  C   UNL     1     -40.556 -55.451  16.185  1.00  0.00     0.040 C 
BRANCH  19  23
HETATM   23  O   UNL     1     -38.111 -55.894  15.764  1.00  0.00    -0.383 OA
HETATM   24  C   UNL     1     -37.703 -56.125  17.109  1.00  0.00     0.202 C 
ENDBRANCH  19  23
ENDBRANCH  18  19
ENDBRANCH   1  18
TORSDOF 5
ENDMDL
MODEL 8
REMARK VINA RESULT:      -5.0     15.539     18.068
REMARK  5 active torsions:
REMARK  status: ('A' for Active; 'I' for Inactive)
REMARK    1  A    between atoms: O_2  and  C_3 
REMARK    2  A    between atoms: C_3  and  C_4 
REMARK    3  A    between atoms: C_4  and  N_5 
REMARK       I    between atoms: N_5  and  C_6 
REMARK       I    between atoms: C_6  and  N_8 
REMARK    4  A    between atoms: N_8  and  C_9 
REMARK    5  A    between atoms: C_13  and  C_17 
ROOT
HETATM    1  N   UNL     1     -31.215 -62.442  17.920  1.00  0.00    -0.340 N 
HETATM    2  C   UNL     1     -32.563 -62.202  18.017  1.00  0.00     0.320 C 
HETATM    3  O   UNL     1     -33.341 -62.634  17.176  1.00  0.00    -0.247 OA
HETATM    4  N   UNL     1     -32.917 -61.429  19.095  1.00  0.00    -0.306 N 
HETATM    5  H   UNL     1     -30.553 -62.100  18.602  1.00  0.00     0.164 HD
HETATM    6  H   UNL     1     -32.173 -60.979  19.606  1.00  0.00     0.171 HD
ENDROOT
BRANCH   4   7
HETATM    7  C   UNL     1     -34.247 -61.021  19.364  1.00  0.00     0.067 A 
HETATM    8  C   UNL     1     -34.951 -60.079  18.640  1.00  0.00     0.120 A 
HETATM    9  N   UNL     1     -36.195 -59.651  18.952  1.00  0.00    -0.353 N 
HETATM   10  C   UNL     1     -36.783 -60.186  20.037  1.00  0.00     0.085 A 
ATOM     11  HN  UNL     1     -36.670 -58.948  18.386  1.00  0.00     0.166 HD
HETATM   12  N   UNL     1     -36.198 -61.147  20.785  1.00  0.00    -0.353 N 
HETATM   13  C   UNL     1     -34.953 -61.542  20.427  1.00  0.00     0.120 A 
ATOM     14  HN  UNL     1     -36.675 -61.559  21.587  1.00  0.00     0.166 HD
BRANCH  10  15
HETATM   15  C   UNL     1     -38.128 -59.646  20.452  1.00  0.00     0.053 A 
HETATM   16  C   UNL     1     -39.114 -60.526  21.182  1.00  0.00     0.013 A 
HETATM   17  C   UNL     1     -39.389 -60.123  19.764  1.00  0.00     0.013 A 
ENDBRANCH  10  15
ENDBRANCH   4   7
BRANCH   1  18
HETATM   18  C   UNL     1     -30.739 -63.127  16.732  1.00  0.00     0.162 C 
BRANCH  18  19
HETATM   19  C   UNL     1     -29.224 -63.338  16.787  1.00  0.00     0.076 C 
HETATM   20  C   UNL     1     -28.554 -63.183  15.385  1.00  0.00     0.040 C 
HETATM   21  C   UNL     1     -28.238 -61.720  15.733  1.00  0.00     0.006 C 
HETATM   22  C   UNL     1     -28.405 -62.082  17.216  1.00  0.00     0.040 C 
BRANCH  19  23
HETATM   23  O   UNL     1     -28.867 -64.539  17.525  1.00  0.00    -0.383 OA
HETATM   24  C   UNL     1     -27.644 -64.520  18.254  1.00  0.00     0.202 C 
ENDBRANCH  19  23
ENDBRANCH  18  19
ENDBRANCH   1  18
TORSDOF 5
ENDMDL
MODEL 9
REMARK VINA RESULT:      -4.9      3.495      7.518
REMARK  5 active torsions:
REMARK  status: ('A' for Active; 'I' for Inactive)
REMARK    1  A    between atoms: O_2  and  C_3 
REMARK    2  A    between atoms: C_3  and  C_4 
REMARK    3  A    between atoms: C_4  and  N_5 
REMARK       I    between atoms: N_5  and  C_6 
REMARK       I    between atoms: C_6  and  N_8 
REMARK    4  A    between atoms: N_8  and  C_9 
REMARK    5  A    between atoms: C_13  and  C_17 
ROOT
HETATM    1  N   UNL     1     -42.672 -49.285  11.405  1.00  0.00    -0.340 N 
HETATM    2  C   UNL     1     -42.063 -49.995  12.409  1.00  0.00     0.320 C 
HETATM    3  O   UNL     1     -41.872 -49.492  13.509  1.00  0.00    -0.247 OA
HETATM    4  N   UNL     1     -41.679 -51.262  12.045  1.00  0.00    -0.306 N 
HETATM    5  H   UNL     1     -42.844 -49.679  10.490  1.00  0.00     0.164 HD
HETATM    6  H   UNL     1     -41.720 -51.494  11.065  1.00  0.00     0.171 HD
ENDROOT
BRANCH   4   7
HETATM    7  C   UNL     1     -40.995 -52.153  12.909  1.00  0.00     0.067 A 
HETATM    8  C   UNL     1     -39.660 -52.060  13.250  1.00  0.00     0.120 A 
HETATM    9  N   UNL     1     -39.005 -52.958  14.021  1.00  0.00    -0.353 N 
HETATM   10  C   UNL     1     -39.708 -54.005  14.488  1.00  0.00     0.085 A 
ATOM     11  HN  UNL     1     -38.016 -52.845  14.240  1.00  0.00     0.166 HD
HETATM   12  N   UNL     1     -41.028 -54.163  14.250  1.00  0.00    -0.353 N 
HETATM   13  C   UNL     1     -41.636 -53.233  13.475  1.00  0.00     0.120 A 
ATOM     14  HN  UNL     1     -41.547 -54.950  14.638  1.00  0.00     0.166 HD
BRANCH  10  15
HETATM   15  C   UNL     1     -38.968 -55.064  15.265  1.00  0.00     0.053 A 
HETATM   16  C   UNL     1     -39.683 -55.889  16.307  1.00  0.00     0.013 A 
HETATM   17  C   UNL     1     -38.673 -54.867  16.737  1.00  0.00     0.013 A 
ENDBRANCH  10  15
ENDBRANCH   4   7
BRANCH   1  18
HETATM   18  C   UNL     1     -42.977 -47.889  11.660  1.00  0.00     0.162 C 
BRANCH  18  19
HETATM   19  C   UNL     1     -42.378 -46.987  10.578  1.00  0.00     0.076 C 
HETATM   20  C   UNL     1     -42.622 -45.472  10.868  1.00  0.00     0.040 C 
HETATM   21  C   UNL     1     -41.232 -45.405  11.519  1.00  0.00     0.006 C 
HETATM   22  C   UNL     1     -40.858 -46.681  10.750  1.00  0.00     0.040 C 
BRANCH  19  23
HETATM   23  O   UNL     1     -42.728 -47.436   9.239  1.00  0.00    -0.383 OA
HETATM   24  C   UNL     1     -43.494 -46.548   8.432  1.00  0.00     0.202 C 
ENDBRANCH  19  23
ENDBRANCH  18  19
ENDBRANCH   1  18
TORSDOF 5
ENDMDL
