MODEL 1
REMARK VINA RESULT:      -5.4      0.000      0.000
REMARK  5 active torsions:
REMARK  status: ('A' for Active; 'I' for Inactive)
REMARK    1  A    between atoms: C_2  and  N_3 
REMARK    2  A    between atoms: C_5  and  C_9 
REMARK       I    between atoms: C_9  and  N_11 
REMARK    3  A    between atoms: N_11  and  C_12 
REMARK    4  A    between atoms: C_12  and  C_14 
REMARK    5  A    between atoms: C_14  and  N_15 
ROOT
HETATM    1  C   UNL     1     -42.429 -52.861  13.083  1.00  0.00     0.224 C 
HETATM    2  O   UNL     1     -42.307 -52.323  11.986  1.00  0.00    -0.273 OA
HETATM    3  N   UNL     1     -41.741 -52.436  14.200  1.00  0.00    -0.355 N 
HETATM    4  H   UNL     1     -41.962 -52.845  15.103  1.00  0.00     0.162 HD
ENDROOT
BRANCH   3   5
HETATM    5  C   UNL     1     -40.831 -51.293  14.142  1.00  0.00     0.098 C 
HETATM    6  C   UNL     1     -40.873 -50.518  15.463  1.00  0.00     0.034 C 
BRANCH   5   7
HETATM    7  C   UNL     1     -39.386 -51.718  13.832  1.00  0.00     0.153 C 
BRANCH   7   8
HETATM    8  N   UNL     1     -38.795 -50.997  12.722  1.00  0.00    -0.350 N 
HETATM    9  C   UNL     1     -37.459 -50.863  12.465  1.00  0.00     0.108 A 
HETATM   10  C   UNL     1     -37.394 -50.077  11.338  1.00  0.00     0.106 A 
HETATM   11  N   UNL     1     -38.650 -49.732  10.913  1.00  0.00    -0.361 N 
HETATM   12  C   UNL     1     -39.473 -50.297  11.766  1.00  0.00     0.182 A 
ATOM     13  HN  UNL     1     -38.894 -49.157  10.107  1.00  0.00     0.166 HD
ENDBRANCH   7   8
ENDBRANCH   5   7
ENDBRANCH   3   5
BRANCH   1  14
HETATM   14  C   UNL     1     -43.386 -54.016  13.291  1.00  0.00     0.104 C 
HETATM   15  C   UNL     1     -44.804 -53.597  12.945  1.00  0.00     0.140 C 
HETATM   16  N   UNL     1     -45.524 -53.671  14.188  1.00  0.00    -0.352 N 
HETATM   17  C   UNL     1     -44.805 -54.251  15.215  1.00  0.00     0.220 C 
HETATM   18  C   UNL     1     -43.408 -54.521  14.734  1.00  0.00     0.118 C 
HETATM   19  O   UNL     1     -45.209 -54.456  16.348  1.00  0.00    -0.273 OA
BRANCH  16  20
HETATM   20  C   UNL     1     -46.788 -52.991  14.401  1.00  0.00     0.121 C 
HETATM   21  C   UNL     1     -46.556 -51.497  14.584  1.00  0.00     0.026 C 
ENDBRANCH  16  20
ENDBRANCH   1  14
TORSDOF 5
ENDMDL
MODEL 2
REMARK VINA RESULT:      -5.4      2.675      3.348
REMARK  5 active torsions:
REMARK  status: ('A' for Active; 'I' for Inactive)
REMARK    1  A    between atoms: C_2  and  N_3 
REMARK    2  A    between atoms: C_5  and  C_9 
REMARK       I    between atoms: C_9  and  N_11 
REMARK    3  A    between atoms: N_11  and  C_12 
REMARK    4  A    between atoms: C_12  and  C_14 
REMARK    5  A    between atoms: C_14  and  N_15 
ROOT
HETATM    1  C   UNL     1     -42.768 -51.763  12.883  1.00  0.00     0.224 C 
HETATM    2  O   UNL     1     -42.814 -51.207  13.977  1.00  0.00    -0.273 OA
HETATM    3  N   UNL     1     -41.888 -51.383  11.891  1.00  0.00    -0.355 N 
HETATM    4  H   UNL     1     -41.818 -51.946  11.050  1.00  0.00     0.162 HD
ENDROOT
BRANCH   3   5
HETATM    5  C   UNL     1     -40.934 -50.294  12.100  1.00  0.00     0.098 C 
HETATM    6  C   UNL     1     -39.538 -50.863  12.370  1.00  0.00     0.034 C 
BRANCH   5   7
HETATM    7  C   UNL     1     -40.884 -49.331  10.902  1.00  0.00     0.153 C 
BRANCH   7   8
HETATM    8  N   UNL     1     -41.970 -48.371  10.885  1.00  0.00    -0.350 N 
HETATM    9  C   UNL     1     -42.550 -47.829   9.772  1.00  0.00     0.108 A 
HETATM   10  C   UNL     1     -43.499 -46.960  10.259  1.00  0.00     0.106 A 
HETATM   11  N   UNL     1     -43.502 -46.960  11.629  1.00  0.00    -0.361 N 
HETATM   12  C   UNL     1     -42.571 -47.817  11.978  1.00  0.00     0.182 A 
ATOM     13  HN  UNL     1     -44.100 -46.411  12.246  1.00  0.00     0.166 HD
ENDBRANCH   7   8
ENDBRANCH   5   7
ENDBRANCH   3   5
BRANCH   1  14
HETATM   14  C   UNL     1     -43.662 -52.944  12.563  1.00  0.00     0.104 C 
HETATM   15  C   UNL     1     -45.123 -52.543  12.663  1.00  0.00     0.140 C 
HETATM   16  N   UNL     1     -45.645 -53.318  13.756  1.00  0.00    -0.352 N 
HETATM   17  C   UNL     1     -44.769 -54.276  14.228  1.00  0.00     0.220 C 
HETATM   18  C   UNL     1     -43.456 -54.123  13.514  1.00  0.00     0.118 C 
HETATM   19  O   UNL     1     -44.992 -55.075  15.122  1.00  0.00    -0.273 OA
BRANCH  16  20
HETATM   20  C   UNL     1     -46.875 -52.971  14.444  1.00  0.00     0.121 C 
HETATM   21  C   UNL     1     -46.811 -51.530  14.934  1.00  0.00     0.026 C 
ENDBRANCH  16  20
ENDBRANCH   1  14
TORSDOF 5
ENDMDL
MODEL 3
REMARK VINA RESULT:      -5.4      4.404      6.959
REMARK  5 active torsions:
REMARK  status: ('A' for Active; 'I' for Inactive)
REMARK    1  A    between atoms: C_2  and  N_3 
REMARK    2  A    between atoms: C_5  and  C_9 
REMARK       I    between atoms: C_9  and  N_11 
REMARK    3  A    between atoms: N_11  and  C_12 
REMARK    4  A    between atoms: C_12  and  C_14 
REMARK    5  A    between atoms: C_14  and  N_15 
ROOT
HETATM    1  C   UNL     1     -39.600 -48.106  11.879  1.00  0.00     0.224 C 
HETATM    2  O   UNL     1     -39.376 -47.791  13.044  1.00  0.00    -0.273 OA
HETATM    3  N   UNL     1     -40.027 -47.199  10.932  1.00  0.00    -0.355 N 
HETATM    4  H   UNL     1     -40.091 -47.491   9.962  1.00  0.00     0.162 HD
ENDROOT
BRANCH   3   5
HETATM    5  C   UNL     1     -40.219 -45.788  11.265  1.00  0.00     0.098 C 
HETATM    6  C   UNL     1     -39.620 -44.903  10.168  1.00  0.00     0.034 C 
BRANCH   5   7
HETATM    7  C   UNL     1     -41.703 -45.438  11.466  1.00  0.00     0.153 C 
BRANCH   7   8
HETATM    8  N   UNL     1     -42.608 -46.322  10.759  1.00  0.00    -0.350 N 
HETATM    9  C   UNL     1     -42.973 -46.221   9.446  1.00  0.00     0.108 A 
HETATM   10  C   UNL     1     -43.861 -47.253   9.247  1.00  0.00     0.106 A 
HETATM   11  N   UNL     1     -44.044 -47.966  10.403  1.00  0.00    -0.361 N 
HETATM   12  C   UNL     1     -43.279 -47.383  11.297  1.00  0.00     0.182 A 
ATOM     13  HN  UNL     1     -44.646 -48.778  10.540  1.00  0.00     0.166 HD
ENDBRANCH   7   8
ENDBRANCH   5   7
ENDBRANCH   3   5
BRANCH   1  14
HETATM   14  C   UNL     1     -39.381 -49.524  11.393  1.00  0.00     0.104 C 
HETATM   15  C   UNL     1     -40.064 -50.513  12.320  1.00  0.00     0.140 C 
HETATM   16  N   UNL     1     -38.992 -51.275  12.902  1.00  0.00    -0.352 N 
HETATM   17  C   UNL     1     -37.759 -51.027  12.332  1.00  0.00     0.220 C 
HETATM   18  C   UNL     1     -37.904 -49.913  11.335  1.00  0.00     0.118 C 
HETATM   19  O   UNL     1     -36.708 -51.571  12.628  1.00  0.00    -0.273 OA
BRANCH  16  20
HETATM   20  C   UNL     1     -39.153 -52.048  14.119  1.00  0.00     0.121 C 
HETATM   21  C   UNL     1     -39.939 -53.320  13.831  1.00  0.00     0.026 C 
ENDBRANCH  16  20
ENDBRANCH   1  14
TORSDOF 5
ENDMDL
MODEL 4
REMARK VINA RESULT:      -5.1      1.361      1.613
REMARK  5 active torsions:
REMARK  status: ('A' for Active; 'I' for Inactive)
REMARK    1  A    between atoms: C_2  and  N_3 
REMARK    2  A    between atoms: C_5  and  C_9 
REMARK       I    between atoms: C_9  and  N_11 
REMARK    3  A    between atoms: N_11  and  C_12 
REMARK    4  A    between atoms: C_12  and  C_14 
REMARK    5  A    between atoms: C_14  and  N_15 
ROOT
HETATM    1  C   UNL     1     -41.740 -52.637  14.004  1.00  0.00     0.224 C 
HETATM    2  O   UNL     1     -42.246 -51.631  14.494  1.00  0.00    -0.273 OA
HETATM    3  N   UNL     1     -40.384 -52.883  14.045  1.00  0.00    -0.355 N 
HETATM    4  H   UNL     1     -40.034 -53.780  13.722  1.00  0.00     0.162 HD
ENDROOT
BRANCH   3   5
HETATM    5  C   UNL     1     -39.464 -51.955  14.702  1.00  0.00     0.098 C 
HETATM    6  C   UNL     1     -38.950 -52.562  16.011  1.00  0.00     0.034 C 
BRANCH   5   7
HETATM    7  C   UNL     1     -38.277 -51.580  13.798  1.00  0.00     0.153 C 
BRANCH   7   8
HETATM    8  N   UNL     1     -38.556 -50.474  12.905  1.00  0.00    -0.350 N 
HETATM    9  C   UNL     1     -39.509 -49.510  13.086  1.00  0.00     0.108 A 
HETATM   10  C   UNL     1     -39.414 -48.708  11.972  1.00  0.00     0.106 A 
HETATM   11  N   UNL     1     -38.438 -49.164  11.126  1.00  0.00    -0.361 N 
HETATM   12  C   UNL     1     -37.939 -50.228  11.712  1.00  0.00     0.182 A 
ATOM     13  HN  UNL     1     -38.158 -48.762  10.232  1.00  0.00     0.166 HD
ENDBRANCH   7   8
ENDBRANCH   5   7
ENDBRANCH   3   5
BRANCH   1  14
HETATM   14  C   UNL     1     -42.592 -53.705  13.349  1.00  0.00     0.104 C 
HETATM   15  C   UNL     1     -43.685 -53.068  12.510  1.00  0.00     0.140 C 
HETATM   16  N   UNL     1     -44.914 -53.451  13.153  1.00  0.00    -0.352 N 
HETATM   17  C   UNL     1     -44.750 -54.382  14.159  1.00  0.00     0.220 C 
HETATM   18  C   UNL     1     -43.280 -54.622  14.359  1.00  0.00     0.118 C 
HETATM   19  O   UNL     1     -45.640 -54.885  14.825  1.00  0.00    -0.273 OA
BRANCH  16  20
HETATM   20  C   UNL     1     -46.165 -52.752  12.925  1.00  0.00     0.121 C 
HETATM   21  C   UNL     1     -46.245 -51.517  13.812  1.00  0.00     0.026 C 
ENDBRANCH  16  20
ENDBRANCH   1  14
TORSDOF 5
ENDMDL
MODEL 5
REMARK VINA RESULT:      -5.0      2.366      3.618
REMARK  5 active torsions:
REMARK  status: ('A' for Active; 'I' for Inactive)
REMARK    1  A    between atoms: C_2  and  N_3 
REMARK    2  A    between atoms: C_5  and  C_9 
REMARK       I    between atoms: C_9  and  N_11 
REMARK    3  A    between atoms: N_11  and  C_12 
REMARK    4  A    between atoms: C_12  and  C_14 
REMARK    5  A    between atoms: C_14  and  N_15 
ROOT
HETATM    1  C   UNL     1     -40.123 -51.718  12.754  1.00  0.00     0.224 C 
HETATM    2  O   UNL     1     -39.818 -51.561  13.933  1.00  0.00    -0.273 OA
HETATM    3  N   UNL     1     -39.687 -50.875  11.754  1.00  0.00    -0.355 N 
HETATM    4  H   UNL     1     -39.879 -51.114  10.786  1.00  0.00     0.162 HD
ENDROOT
BRANCH   3   5
HETATM    5  C   UNL     1     -38.808 -49.742  12.045  1.00  0.00     0.098 C 
HETATM    6  C   UNL     1     -37.476 -49.908  11.307  1.00  0.00     0.034 C 
BRANCH   5   7
HETATM    7  C   UNL     1     -39.451 -48.398  11.668  1.00  0.00     0.153 C 
BRANCH   7   8
HETATM    8  N   UNL     1     -40.895 -48.391  11.792  1.00  0.00    -0.350 N 
HETATM    9  C   UNL     1     -41.605 -48.354  12.960  1.00  0.00     0.108 A 
HETATM   10  C   UNL     1     -42.924 -48.397  12.571  1.00  0.00     0.106 A 
HETATM   11  N   UNL     1     -43.028 -48.463  11.207  1.00  0.00    -0.361 N 
HETATM   12  C   UNL     1     -41.791 -48.460  10.764  1.00  0.00     0.182 A 
ATOM     13  HN  UNL     1     -43.882 -48.506  10.653  1.00  0.00     0.166 HD
ENDBRANCH   7   8
ENDBRANCH   5   7
ENDBRANCH   3   5
BRANCH   1  14
HETATM   14  C   UNL     1     -40.979 -52.887  12.313  1.00  0.00     0.104 C 
HETATM   15  C   UNL     1     -42.438 -52.475  12.234  1.00  0.00     0.140 C 
HETATM   16  N   UNL     1     -43.098 -53.256  13.246  1.00  0.00    -0.352 N 
HETATM   17  C   UNL     1     -42.295 -54.225  13.814  1.00  0.00     0.220 C 
HETATM   18  C   UNL     1     -40.902 -54.077  13.271  1.00  0.00     0.118 C 
HETATM   19  O   UNL     1     -42.634 -55.031  14.664  1.00  0.00    -0.273 OA
BRANCH  16  20
HETATM   20  C   UNL     1     -44.401 -52.904  13.778  1.00  0.00     0.121 C 
HETATM   21  C   UNL     1     -45.399 -52.721  12.642  1.00  0.00     0.026 C 
ENDBRANCH  16  20
ENDBRANCH   1  14
TORSDOF 5
ENDMDL
MODEL 6
REMARK VINA RESULT:      -5.0      3.902      6.862
REMARK  5 active torsions:
REMARK  status: ('A' for Active; 'I' for Inactive)
REMARK    1  A    between atoms: C_2  and  N_3 
REMARK    2  A    between atoms: C_5  and  C_9 
REMARK       I    between atoms: C_9  and  N_11 
REMARK    3  A    between atoms: N_11  and  C_12 
REMARK    4  A    between atoms: C_12  and  C_14 
REMARK    5  A    between atoms: C_14  and  N_15 
ROOT
HETATM    1  C   UNL     1     -40.607 -48.603  11.896  1.00  0.00     0.224 C 
HETATM    2  O   UNL     1     -41.347 -49.318  11.226  1.00  0.00    -0.273 OA
HETATM    3  N   UNL     1     -39.391 -49.037  12.379  1.00  0.00    -0.355 N 
HETATM    4  H   UNL     1     -38.773 -48.371  12.833  1.00  0.00     0.162 HD
ENDROOT
BRANCH   3   5
HETATM    5  C   UNL     1     -38.900 -50.385  12.098  1.00  0.00     0.098 C 
HETATM    6  C   UNL     1     -37.455 -50.324  11.592  1.00  0.00     0.034 C 
BRANCH   5   7
HETATM    7  C   UNL     1     -38.984 -51.301  13.331  1.00  0.00     0.153 C 
BRANCH   7   8
HETATM    8  N   UNL     1     -39.920 -52.396  13.176  1.00  0.00    -0.350 N 
HETATM    9  C   UNL     1     -39.989 -53.517  13.957  1.00  0.00     0.108 A 
HETATM   10  C   UNL     1     -41.001 -54.268  13.406  1.00  0.00     0.106 A 
HETATM   11  N   UNL     1     -41.538 -53.635  12.315  1.00  0.00    -0.361 N 
HETATM   12  C   UNL     1     -40.867 -52.512  12.199  1.00  0.00     0.182 A 
ATOM     13  HN  UNL     1     -42.297 -53.966  11.720  1.00  0.00     0.166 HD
ENDBRANCH   7   8
ENDBRANCH   5   7
ENDBRANCH   3   5
BRANCH   1  14
HETATM   14  C   UNL     1     -40.973 -47.166  12.206  1.00  0.00     0.104 C 
HETATM   15  C   UNL     1     -42.366 -46.852  11.690  1.00  0.00     0.140 C 
HETATM   16  N   UNL     1     -42.165 -45.862  10.666  1.00  0.00    -0.352 N 
HETATM   17  C   UNL     1     -40.872 -45.382  10.600  1.00  0.00     0.220 C 
HETATM   18  C   UNL     1     -40.020 -46.157  11.564  1.00  0.00     0.118 C 
HETATM   19  O   UNL     1     -40.464 -44.518   9.842  1.00  0.00    -0.273 OA
BRANCH  16  20
HETATM   20  C   UNL     1     -43.164 -45.571   9.653  1.00  0.00     0.121 C 
HETATM   21  C   UNL     1     -43.409 -46.802   8.792  1.00  0.00     0.026 C 
ENDBRANCH  16  20
ENDBRANCH   1  14
TORSDOF 5
ENDMDL
MODEL 7
REMARK VINA RESULT:      -4.9      3.705      4.631
REMARK  5 active torsions:
REMARK  status: ('A' for Active; 'I' for Inactive)
REMARK    1  A    between atoms: C_2  and  N_3 
REMARK    2  A    between atoms: C_5  and  C_9 
REMARK       I    between atoms: C_9  and  N_11 
REMARK    3  A    between atoms: N_11  and  C_12 
REMARK    4  A    between atoms: C_12  and  C_14 
REMARK    5  A    between atoms: C_14  and  N_15 
ROOT
HETATM    1  C   UNL     1     -43.139 -49.932  12.910  1.00  0.00     0.224 C 
HETATM    2  O   UNL     1     -41.948 -50.148  12.702  1.00  0.00    -0.273 OA
HETATM    3  N   UNL     1     -43.819 -48.887  12.321  1.00  0.00    -0.355 N 
HETATM    4  H   UNL     1     -44.824 -48.820  12.442  1.00  0.00     0.162 HD
ENDROOT
BRANCH   3   5
HETATM    5  C   UNL     1     -43.153 -47.978  11.388  1.00  0.00     0.098 C 
HETATM    6  C   UNL     1     -44.113 -47.586  10.261  1.00  0.00     0.034 C 
BRANCH   5   7
HETATM    7  C   UNL     1     -42.625 -46.714  12.088  1.00  0.00     0.153 C 
BRANCH   7   8
HETATM    8  N   UNL     1     -41.494 -46.108  11.413  1.00  0.00    -0.350 N 
HETATM    9  C   UNL     1     -41.309 -44.773  11.188  1.00  0.00     0.108 A 
HETATM   10  C   UNL     1     -40.123 -44.694  10.495  1.00  0.00     0.106 A 
HETATM   11  N   UNL     1     -39.594 -45.941  10.293  1.00  0.00    -0.361 N 
HETATM   12  C   UNL     1     -40.440 -46.773  10.855  1.00  0.00     0.182 A 
ATOM     13  HN  UNL     1     -38.727 -46.174   9.810  1.00  0.00     0.166 HD
ENDBRANCH   7   8
ENDBRANCH   5   7
ENDBRANCH   3   5
BRANCH   1  14
HETATM   14  C   UNL     1     -43.957 -50.836  13.809  1.00  0.00     0.104 C 
HETATM   15  C   UNL     1     -43.072 -51.901  14.433  1.00  0.00     0.140 C 
HETATM   16  N   UNL     1     -43.554 -53.144  13.893  1.00  0.00    -0.352 N 
HETATM   17  C   UNL     1     -44.723 -53.022  13.169  1.00  0.00     0.220 C 
HETATM   18  C   UNL     1     -45.075 -51.565  13.063  1.00  0.00     0.118 C 
HETATM   19  O   UNL     1     -45.342 -53.933  12.645  1.00  0.00    -0.273 OA
BRANCH  16  20
HETATM   20  C   UNL     1     -42.763 -54.361  13.909  1.00  0.00     0.121 C 
HETATM   21  C   UNL     1     -41.455 -54.146  13.160  1.00  0.00     0.026 C 
ENDBRANCH  16  20
ENDBRANCH   1  14
TORSDOF 5
ENDMDL
MODEL 8
REMARK VINA RESULT:      -4.9      4.432      7.053
REMARK  5 active torsions:
REMARK  status: ('A' for Active; 'I' for Inactive)
REMARK    1  A    between atoms: C_2  and  N_3 
REMARK    2  A    between atoms: C_5  and  C_9 
REMARK       I    between atoms: C_9  and  N_11 
REMARK    3  A    between atoms: N_11  and  C_12 
REMARK    4  A    between atoms: C_12  and  C_14 
REMARK    5  A    between atoms: C_14  and  N_15 
ROOT
HETATM    1  C   UNL     1     -41.246 -49.417  11.708  1.00  0.00     0.224 C 
HETATM    2  O   UNL     1     -42.097 -50.188  12.143  1.00  0.00    -0.273 OA
HETATM    3  N   UNL     1     -41.545 -48.136  11.294  1.00  0.00    -0.355 N 
HETATM    4  H   UNL     1     -40.787 -47.507  11.047  1.00  0.00     0.162 HD
ENDROOT
BRANCH   3   5
HETATM    5  C   UNL     1     -42.908 -47.612  11.372  1.00  0.00     0.098 C 
HETATM    6  C   UNL     1     -43.089 -46.805  12.661  1.00  0.00     0.034 C 
BRANCH   5   7
HETATM    7  C   UNL     1     -43.263 -46.740  10.155  1.00  0.00     0.153 C 
BRANCH   7   8
HETATM    8  N   UNL     1     -44.226 -47.355   9.264  1.00  0.00    -0.350 N 
HETATM    9  C   UNL     1     -45.537 -47.620   9.550  1.00  0.00     0.108 A 
HETATM   10  C   UNL     1     -46.028 -48.227   8.417  1.00  0.00     0.106 A 
HETATM   11  N   UNL     1     -45.051 -48.340   7.463  1.00  0.00    -0.361 N 
HETATM   12  C   UNL     1     -43.977 -47.808   8.000  1.00  0.00     0.182 A 
ATOM     13  HN  UNL     1     -45.140 -48.749   6.533  1.00  0.00     0.166 HD
ENDBRANCH   7   8
ENDBRANCH   5   7
ENDBRANCH   3   5
BRANCH   1  14
HETATM   14  C   UNL     1     -39.787 -49.818  11.634  1.00  0.00     0.104 C 
HETATM   15  C   UNL     1     -39.542 -51.075  12.449  1.00  0.00     0.140 C 
HETATM   16  N   UNL     1     -38.666 -50.660  13.513  1.00  0.00    -0.352 N 
HETATM   17  C   UNL     1     -38.186 -49.373  13.369  1.00  0.00     0.220 C 
HETATM   18  C   UNL     1     -38.845 -48.742  12.175  1.00  0.00     0.118 C 
HETATM   19  O   UNL     1     -37.405 -48.810  14.118  1.00  0.00    -0.273 OA
BRANCH  16  20
HETATM   20  C   UNL     1     -38.494 -51.431  14.730  1.00  0.00     0.121 C 
HETATM   21  C   UNL     1     -39.776 -51.405  15.551  1.00  0.00     0.026 C 
ENDBRANCH  16  20
ENDBRANCH   1  14
TORSDOF 5
ENDMDL
MODEL 9
REMARK VINA RESULT:      -4.9      4.903      7.457
REMARK  5 active torsions:
REMARK  status: ('A' for Active; 'I' for Inactive)
REMARK    1  A    between atoms: C_2  and  N_3 
REMARK    2  A    between atoms: C_5  and  C_9 
REMARK       I    between atoms: C_9  and  N_11 
REMARK    3  A    between atoms: N_11  and  C_12 
REMARK    4  A    between atoms: C_12  and  C_14 
REMARK    5  A    between atoms: C_14  and  N_15 
ROOT
HETATM    1  C   UNL     1     -39.877 -48.137  11.771  1.00  0.00     0.224 C 
HETATM    2  O   UNL     1     -39.921 -47.822  12.957  1.00  0.00    -0.273 OA
HETATM    3  N   UNL     1     -40.113 -47.238  10.753  1.00  0.00    -0.355 N 
HETATM    4  H   UNL     1     -39.956 -47.526   9.792  1.00  0.00     0.162 HD
ENDROOT
BRANCH   3   5
HETATM    5  C   UNL     1     -40.412 -45.834  11.034  1.00  0.00     0.098 C 
HETATM    6  C   UNL     1     -39.550 -44.925  10.152  1.00  0.00     0.034 C 
BRANCH   5   7
HETATM    7  C   UNL     1     -41.900 -45.506  10.826  1.00  0.00     0.153 C 
BRANCH   7   8
HETATM    8  N   UNL     1     -42.342 -44.334  11.555  1.00  0.00    -0.350 N 
HETATM    9  C   UNL     1     -42.326 -44.174  12.913  1.00  0.00     0.108 A 
HETATM   10  C   UNL     1     -42.866 -42.927  13.126  1.00  0.00     0.106 A 
HETATM   11  N   UNL     1     -43.210 -42.336  11.939  1.00  0.00    -0.361 N 
HETATM   12  C   UNL     1     -42.885 -43.206  11.011  1.00  0.00     0.182 A 
ATOM     13  HN  UNL     1     -43.630 -41.416  11.805  1.00  0.00     0.166 HD
ENDBRANCH   7   8
ENDBRANCH   5   7
ENDBRANCH   3   5
BRANCH   1  14
HETATM   14  C   UNL     1     -39.518 -49.546  11.345  1.00  0.00     0.104 C 
HETATM   15  C   UNL     1     -40.158 -50.559  12.277  1.00  0.00     0.140 C 
HETATM   16  N   UNL     1     -39.053 -51.208  12.931  1.00  0.00    -0.352 N 
HETATM   17  C   UNL     1     -37.820 -50.874  12.405  1.00  0.00     0.220 C 
HETATM   18  C   UNL     1     -38.012 -49.809  11.364  1.00  0.00     0.118 C 
HETATM   19  O   UNL     1     -36.743 -51.318  12.765  1.00  0.00    -0.273 OA
BRANCH  16  20
HETATM   20  C   UNL     1     -39.205 -51.954  14.167  1.00  0.00     0.121 C 
HETATM   21  C   UNL     1     -39.827 -53.314  13.885  1.00  0.00     0.026 C 
ENDBRANCH  16  20
ENDBRANCH   1  14
TORSDOF 5
ENDMDL
