MODEL 1
REMARK VINA RESULT:      -7.2      0.000      0.000
REMARK  6 active torsions:
REMARK  status: ('A' for Active; 'I' for Inactive)
REMARK    1  A    between atoms: C_2  and  C_4 
REMARK    2  A    between atoms: N_8  and  C_9 
REMARK    3  A    between atoms: C_9  and  C_10 
REMARK    4  A    between atoms: C_10  and  O_12 
REMARK    5  A    between atoms: C_10  and  C_13 
REMARK    6  A    between atoms: C_17  and  C_19 
ROOT
HETATM    1  C   UNL     1     -40.372 -49.237  11.457  1.00  0.00     0.098 C 
HETATM    2  C   UNL     1     -38.890 -48.854  11.618  1.00  0.00     0.053 C 
ENDROOT
BRANCH   1   3
HETATM    3  C   UNL     1     -40.977 -49.839  12.759  1.00  0.00     0.175 C 
BRANCH   3   4
HETATM    4  N   UNL     1     -42.180 -50.683  12.688  1.00  0.00    -0.307 N 
HETATM    5  C   UNL     1     -41.970 -52.027  12.427  1.00  0.00     0.250 A 
HETATM    6  C   UNL     1     -43.159 -52.896  12.512  1.00  0.00     0.100 A 
HETATM    7  O   UNL     1     -40.875 -52.526  12.176  1.00  0.00    -0.268 OA
HETATM    8  C   UNL     1     -44.341 -52.340  12.806  1.00  0.00     0.018 A 
HETATM    9  N   UNL     1     -44.506 -50.994  12.979  1.00  0.00    -0.355 N 
HETATM   10  C   UNL     1     -43.453 -50.251  12.935  1.00  0.00     0.186 A 
ATOM     11  HN  UNL     1     -45.430 -50.591  13.137  1.00  0.00     0.166 HD
BRANCH   8  12
HETATM   12  C   UNL     1     -45.587 -53.176  13.051  1.00  0.00     0.027 C 
HETATM   13  C   UNL     1     -45.187 -54.541  13.623  1.00  0.00     0.016 C 
HETATM   14  C   UNL     1     -46.568 -52.468  13.990  1.00  0.00     0.016 C 
ENDBRANCH   8  12
ENDBRANCH   3   4
ENDBRANCH   1   3
BRANCH   1  15
HETATM   15  O   UNL     1     -40.450 -50.196  10.390  1.00  0.00    -0.384 OA
HETATM   16  H   UNL     1     -41.388 -50.367  10.195  1.00  0.00     0.211 HD
ENDBRANCH   1  15
BRANCH   1  17
HETATM   17  C   UNL     1     -41.160 -47.984  11.041  1.00  0.00    -0.022 A 
HETATM   18  C   UNL     1     -40.724 -46.704  11.432  1.00  0.00     0.010 A 
HETATM   19  C   UNL     1     -41.421 -45.555  11.056  1.00  0.00     0.001 A 
HETATM   20  C   UNL     1     -42.580 -45.659  10.292  1.00  0.00     0.016 A 
HETATM   21  C   UNL     1     -43.052 -46.915   9.892  1.00  0.00     0.048 A 
HETATM   22  C   UNL     1     -42.331 -48.065  10.263  1.00  0.00     0.026 A 
BRANCH  21  23
HETATM   23  C   UNL     1     -44.320 -47.050   9.084  1.00  0.00     0.417 C 
HETATM   24  F   UNL     1     -44.837 -45.856   8.678  1.00  0.00    -0.166 F 
HETATM   25  F   UNL     1     -44.148 -47.786   7.952  1.00  0.00    -0.166 F 
HETATM   26  F   UNL     1     -45.316 -47.665   9.783  1.00  0.00    -0.166 F 
ENDBRANCH  21  23
ENDBRANCH   1  17
TORSDOF 6
ENDMDL
MODEL 2
REMARK VINA RESULT:      -7.0      0.901      1.392
REMARK  6 active torsions:
REMARK  status: ('A' for Active; 'I' for Inactive)
REMARK    1  A    between atoms: C_2  and  C_4 
REMARK    2  A    between atoms: N_8  and  C_9 
REMARK    3  A    between atoms: C_9  and  C_10 
REMARK    4  A    between atoms: C_10  and  O_12 
REMARK    5  A    between atoms: C_10  and  C_13 
REMARK    6  A    between atoms: C_17  and  C_19 
ROOT
HETATM    1  C   UNL     1     -40.274 -49.204  11.482  1.00  0.00     0.098 C 
HETATM    2  C   UNL     1     -38.787 -48.826  11.606  1.00  0.00     0.053 C 
ENDROOT
BRANCH   1   3
HETATM    3  C   UNL     1     -40.875 -49.711  12.827  1.00  0.00     0.175 C 
BRANCH   3   4
HETATM    4  N   UNL     1     -41.604 -50.987  12.870  1.00  0.00    -0.307 N 
HETATM    5  C   UNL     1     -40.830 -52.135  12.883  1.00  0.00     0.250 A 
HETATM    6  C   UNL     1     -41.555 -53.404  13.084  1.00  0.00     0.100 A 
HETATM    7  O   UNL     1     -39.605 -52.150  12.778  1.00  0.00    -0.268 OA
HETATM    8  C   UNL     1     -42.887 -53.367  13.215  1.00  0.00     0.018 A 
HETATM    9  N   UNL     1     -43.612 -52.212  13.118  1.00  0.00    -0.355 N 
HETATM   10  C   UNL     1     -42.962 -51.107  12.976  1.00  0.00     0.186 A 
ATOM     11  HN  UNL     1     -44.632 -52.224  13.157  1.00  0.00     0.166 HD
BRANCH   8  12
HETATM   12  C   UNL     1     -43.697 -54.605  13.565  1.00  0.00     0.027 C 
HETATM   13  C   UNL     1     -43.340 -55.071  14.982  1.00  0.00     0.016 C 
HETATM   14  C   UNL     1     -45.202 -54.349  13.448  1.00  0.00     0.016 C 
ENDBRANCH   8  12
ENDBRANCH   3   4
ENDBRANCH   1   3
BRANCH   1  15
HETATM   15  O   UNL     1     -40.370 -50.231  10.483  1.00  0.00    -0.384 OA
HETATM   16  H   UNL     1     -39.778 -50.002   9.745  1.00  0.00     0.211 HD
ENDBRANCH   1  15
BRANCH   1  17
HETATM   17  C   UNL     1     -41.053 -47.973  10.989  1.00  0.00    -0.022 A 
HETATM   18  C   UNL     1     -40.547 -46.677  11.199  1.00  0.00     0.010 A 
HETATM   19  C   UNL     1     -41.236 -45.549  10.750  1.00  0.00     0.001 A 
HETATM   20  C   UNL     1     -42.454 -45.689  10.092  1.00  0.00     0.016 A 
HETATM   21  C   UNL     1     -42.996 -46.962   9.874  1.00  0.00     0.048 A 
HETATM   22  C   UNL     1     -42.284 -48.092  10.316  1.00  0.00     0.026 A 
BRANCH  21  23
HETATM   23  C   UNL     1     -44.328 -47.134   9.184  1.00  0.00     0.417 C 
HETATM   24  F   UNL     1     -44.287 -47.992   8.126  1.00  0.00    -0.166 F 
HETATM   25  F   UNL     1     -45.294 -47.614  10.016  1.00  0.00    -0.166 F 
HETATM   26  F   UNL     1     -44.809 -45.959   8.689  1.00  0.00    -0.166 F 
ENDBRANCH  21  23
ENDBRANCH   1  17
TORSDOF 6
ENDMDL
MODEL 3
REMARK VINA RESULT:      -6.8      2.251      2.864
REMARK  6 active torsions:
REMARK  status: ('A' for Active; 'I' for Inactive)
REMARK    1  A    between atoms: C_2  and  C_4 
REMARK    2  A    between atoms: N_8  and  C_9 
REMARK    3  A    between atoms: C_9  and  C_10 
REMARK    4  A    between atoms: C_10  and  O_12 
REMARK    5  A    between atoms: C_10  and  C_13 
REMARK    6  A    between atoms: C_17  and  C_19 
ROOT
HETATM    1  C   UNL     1     -39.189 -49.829  11.785  1.00  0.00     0.098 C 
HETATM    2  C   UNL     1     -37.715 -50.054  11.403  1.00  0.00     0.053 C 
ENDROOT
BRANCH   1   3
HETATM    3  C   UNL     1     -39.652 -50.755  12.948  1.00  0.00     0.175 C 
BRANCH   3   4
HETATM    4  N   UNL     1     -40.842 -51.603  12.782  1.00  0.00    -0.307 N 
HETATM    5  C   UNL     1     -40.659 -52.961  12.979  1.00  0.00     0.250 A 
HETATM    6  C   UNL     1     -41.880 -53.788  12.967  1.00  0.00     0.100 A 
HETATM    7  O   UNL     1     -39.572 -53.494  13.197  1.00  0.00    -0.268 OA
HETATM    8  C   UNL     1     -43.058 -53.189  12.748  1.00  0.00     0.018 A 
HETATM    9  N   UNL     1     -43.175 -51.853  12.483  1.00  0.00    -0.355 N 
HETATM   10  C   UNL     1     -42.103 -51.138  12.529  1.00  0.00     0.186 A 
ATOM     11  HN  UNL     1     -44.078 -51.437  12.255  1.00  0.00     0.166 HD
BRANCH   8  12
HETATM   12  C   UNL     1     -44.376 -53.939  12.858  1.00  0.00     0.027 C 
HETATM   13  C   UNL     1     -44.395 -54.762  14.152  1.00  0.00     0.016 C 
HETATM   14  C   UNL     1     -45.575 -52.987  12.812  1.00  0.00     0.016 C 
ENDBRANCH   8  12
ENDBRANCH   3   4
ENDBRANCH   1   3
BRANCH   1  15
HETATM   15  O   UNL     1     -39.976 -50.084  10.610  1.00  0.00    -0.384 OA
HETATM   16  H   UNL     1     -39.634 -49.535   9.883  1.00  0.00     0.211 HD
ENDBRANCH   1  15
BRANCH   1  17
HETATM   17  C   UNL     1     -39.374 -48.354  12.181  1.00  0.00    -0.022 A 
HETATM   18  C   UNL     1     -39.130 -47.934  13.502  1.00  0.00     0.010 A 
HETATM   19  C   UNL     1     -39.284 -46.599  13.877  1.00  0.00     0.001 A 
HETATM   20  C   UNL     1     -39.699 -45.654  12.945  1.00  0.00     0.016 A 
HETATM   21  C   UNL     1     -39.963 -46.035  11.623  1.00  0.00     0.048 A 
HETATM   22  C   UNL     1     -39.788 -47.380  11.252  1.00  0.00     0.026 A 
BRANCH  21  23
HETATM   23  C   UNL     1     -40.439 -45.029  10.602  1.00  0.00     0.417 C 
HETATM   24  F   UNL     1     -40.721 -43.805  11.133  1.00  0.00    -0.166 F 
HETATM   25  F   UNL     1     -39.526 -44.806   9.617  1.00  0.00    -0.166 F 
HETATM   26  F   UNL     1     -41.579 -45.430   9.974  1.00  0.00    -0.166 F 
ENDBRANCH  21  23
ENDBRANCH   1  17
TORSDOF 6
ENDMDL
MODEL 4
REMARK VINA RESULT:      -6.8      2.279      2.864
REMARK  6 active torsions:
REMARK  status: ('A' for Active; 'I' for Inactive)
REMARK    1  A    between atoms: C_2  and  C_4 
REMARK    2  A    between atoms: N_8  and  C_9 
REMARK    3  A    between atoms: C_9  and  C_10 
REMARK    4  A    between atoms: C_10  and  O_12 
REMARK    5  A    between atoms: C_10  and  C_13 
REMARK    6  A    between atoms: C_17  and  C_19 
ROOT
HETATM    1  C   UNL     1     -40.106 -49.338  11.487  1.00  0.00     0.098 C 
HETATM    2  C   UNL     1     -38.594 -49.069  11.589  1.00  0.00     0.053 C 
ENDROOT
BRANCH   1   3
HETATM    3  C   UNL     1     -40.705 -49.886  12.816  1.00  0.00     0.175 C 
BRANCH   3   4
HETATM    4  N   UNL     1     -41.648 -51.015  12.785  1.00  0.00    -0.307 N 
HETATM    5  C   UNL     1     -41.087 -52.280  12.769  1.00  0.00     0.250 A 
HETATM    6  C   UNL     1     -42.029 -53.408  12.898  1.00  0.00     0.100 A 
HETATM    7  O   UNL     1     -39.881 -52.508  12.696  1.00  0.00    -0.268 OA
HETATM    8  C   UNL     1     -43.338 -53.142  12.996  1.00  0.00     0.018 A 
HETATM    9  N   UNL     1     -43.846 -51.875  12.929  1.00  0.00    -0.355 N 
HETATM   10  C   UNL     1     -43.009 -50.897  12.851  1.00  0.00     0.186 A 
ATOM     11  HN  UNL     1     -44.853 -51.708  12.941  1.00  0.00     0.166 HD
BRANCH   8  12
HETATM   12  C   UNL     1     -44.363 -54.230  13.271  1.00  0.00     0.027 C 
HETATM   13  C   UNL     1     -43.949 -55.026  14.515  1.00  0.00     0.016 C 
HETATM   14  C   UNL     1     -45.770 -53.651  13.450  1.00  0.00     0.016 C 
ENDBRANCH   8  12
ENDBRANCH   3   4
ENDBRANCH   1   3
BRANCH   1  15
HETATM   15  O   UNL     1     -40.297 -50.293  10.431  1.00  0.00    -0.384 OA
HETATM   16  H   UNL     1     -39.424 -50.592  10.121  1.00  0.00     0.211 HD
ENDBRANCH   1  15
BRANCH   1  17
HETATM   17  C   UNL     1     -40.812 -48.030  11.091  1.00  0.00    -0.022 A 
HETATM   18  C   UNL     1     -42.162 -48.040  10.693  1.00  0.00     0.010 A 
HETATM   19  C   UNL     1     -42.821 -46.862  10.340  1.00  0.00     0.001 A 
HETATM   20  C   UNL     1     -42.143 -45.647  10.362  1.00  0.00     0.016 A 
HETATM   21  C   UNL     1     -40.796 -45.597  10.741  1.00  0.00     0.048 A 
HETATM   22  C   UNL     1     -40.147 -46.789  11.112  1.00  0.00     0.026 A 
BRANCH  21  23
HETATM   23  C   UNL     1     -40.036 -44.292  10.748  1.00  0.00     0.417 C 
HETATM   24  F   UNL     1     -39.316 -44.075   9.611  1.00  0.00    -0.166 F 
HETATM   25  F   UNL     1     -40.850 -43.210  10.886  1.00  0.00    -0.166 F 
HETATM   26  F   UNL     1     -39.141 -44.221  11.772  1.00  0.00    -0.166 F 
ENDBRANCH  21  23
ENDBRANCH   1  17
TORSDOF 6
ENDMDL
MODEL 5
REMARK VINA RESULT:      -6.7      3.051      3.656
REMARK  6 active torsions:
REMARK  status: ('A' for Active; 'I' for Inactive)
REMARK    1  A    between atoms: C_2  and  C_4 
REMARK    2  A    between atoms: N_8  and  C_9 
REMARK    3  A    between atoms: C_9  and  C_10 
REMARK    4  A    between atoms: C_10  and  O_12 
REMARK    5  A    between atoms: C_10  and  C_13 
REMARK    6  A    between atoms: C_17  and  C_19 
ROOT
HETATM    1  C   UNL     1     -39.894 -49.611  11.564  1.00  0.00     0.098 C 
HETATM    2  C   UNL     1     -38.366 -49.783  11.501  1.00  0.00     0.053 C 
ENDROOT
BRANCH   1   3
HETATM    3  C   UNL     1     -40.525 -50.330  12.792  1.00  0.00     0.175 C 
BRANCH   3   4
HETATM    4  N   UNL     1     -41.922 -50.789  12.737  1.00  0.00    -0.307 N 
HETATM    5  C   UNL     1     -42.113 -52.149  12.564  1.00  0.00     0.250 A 
HETATM    6  C   UNL     1     -43.506 -52.625  12.666  1.00  0.00     0.100 A 
HETATM    7  O   UNL     1     -41.210 -52.962  12.376  1.00  0.00    -0.268 OA
HETATM    8  C   UNL     1     -44.475 -51.729  12.891  1.00  0.00     0.018 A 
HETATM    9  N   UNL     1     -44.239 -50.385  12.978  1.00  0.00    -0.355 N 
HETATM   10  C   UNL     1     -43.014 -49.987  12.920  1.00  0.00     0.186 A 
ATOM     11  HN  UNL     1     -45.006 -49.720  13.084  1.00  0.00     0.166 HD
BRANCH   8  12
HETATM   12  C   UNL     1     -45.914 -52.146  13.149  1.00  0.00     0.027 C 
HETATM   13  C   UNL     1     -46.443 -51.426  14.396  1.00  0.00     0.016 C 
HETATM   14  C   UNL     1     -46.813 -51.858  11.943  1.00  0.00     0.016 C 
ENDBRANCH   8  12
ENDBRANCH   3   4
ENDBRANCH   1   3
BRANCH   1  15
HETATM   15  O   UNL     1     -40.433 -50.151  10.347  1.00  0.00    -0.384 OA
HETATM   16  H   UNL     1     -40.021 -49.691   9.594  1.00  0.00     0.211 HD
ENDBRANCH   1  15
BRANCH   1  17
HETATM   17  C   UNL     1     -40.217 -48.108  11.611  1.00  0.00    -0.022 A 
HETATM   18  C   UNL     1     -41.178 -47.557  10.743  1.00  0.00     0.010 A 
HETATM   19  C   UNL     1     -41.491 -46.197  10.778  1.00  0.00     0.001 A 
HETATM   20  C   UNL     1     -40.840 -45.353  11.672  1.00  0.00     0.016 A 
HETATM   21  C   UNL     1     -39.869 -45.861  12.545  1.00  0.00     0.048 A 
HETATM   22  C   UNL     1     -39.575 -47.236  12.512  1.00  0.00     0.026 A 
BRANCH  21  23
HETATM   23  C   UNL     1     -39.134 -44.956  13.505  1.00  0.00     0.417 C 
HETATM   24  F   UNL     1     -39.955 -44.122  14.204  1.00  0.00    -0.166 F 
HETATM   25  F   UNL     1     -38.423 -45.647  14.438  1.00  0.00    -0.166 F 
HETATM   26  F   UNL     1     -38.238 -44.149  12.871  1.00  0.00    -0.166 F 
ENDBRANCH  21  23
ENDBRANCH   1  17
TORSDOF 6
ENDMDL
MODEL 6
REMARK VINA RESULT:      -6.7      3.740      7.124
REMARK  6 active torsions:
REMARK  status: ('A' for Active; 'I' for Inactive)
REMARK    1  A    between atoms: C_2  and  C_4 
REMARK    2  A    between atoms: N_8  and  C_9 
REMARK    3  A    between atoms: C_9  and  C_10 
REMARK    4  A    between atoms: C_10  and  O_12 
REMARK    5  A    between atoms: C_10  and  C_13 
REMARK    6  A    between atoms: C_17  and  C_19 
ROOT
HETATM    1  C   UNL     1     -42.077 -54.243  15.215  1.00  0.00     0.098 C 
HETATM    2  C   UNL     1     -41.908 -55.495  16.092  1.00  0.00     0.053 C 
ENDROOT
BRANCH   1   3
HETATM    3  C   UNL     1     -41.168 -54.273  13.951  1.00  0.00     0.175 C 
BRANCH   3   4
HETATM    4  N   UNL     1     -40.674 -53.014  13.371  1.00  0.00    -0.307 N 
HETATM    5  C   UNL     1     -39.539 -52.476  13.953  1.00  0.00     0.250 A 
HETATM    6  C   UNL     1     -38.957 -51.303  13.274  1.00  0.00     0.100 A 
HETATM    7  O   UNL     1     -38.984 -52.932  14.951  1.00  0.00    -0.268 OA
HETATM    8  C   UNL     1     -39.563 -50.831  12.177  1.00  0.00     0.018 A 
HETATM    9  N   UNL     1     -40.727 -51.355  11.687  1.00  0.00    -0.355 N 
HETATM   10  C   UNL     1     -41.206 -52.400  12.271  1.00  0.00     0.186 A 
ATOM     11  HN  UNL     1     -41.200 -50.933  10.887  1.00  0.00     0.166 HD
BRANCH   8  12
HETATM   12  C   UNL     1     -38.956 -49.719  11.336  1.00  0.00     0.027 C 
HETATM   13  C   UNL     1     -39.291 -48.359  11.962  1.00  0.00     0.016 C 
HETATM   14  C   UNL     1     -37.440 -49.882  11.189  1.00  0.00     0.016 C 
ENDBRANCH   8  12
ENDBRANCH   3   4
ENDBRANCH   1   3
BRANCH   1  15
HETATM   15  O   UNL     1     -41.749 -53.105  16.029  1.00  0.00    -0.384 OA
HETATM   16  H   UNL     1     -40.893 -52.749  15.733  1.00  0.00     0.211 HD
ENDBRANCH   1  15
BRANCH   1  17
HETATM   17  C   UNL     1     -43.553 -54.131  14.798  1.00  0.00    -0.022 A 
HETATM   18  C   UNL     1     -44.231 -55.244  14.266  1.00  0.00     0.010 A 
HETATM   19  C   UNL     1     -45.573 -55.164  13.892  1.00  0.00     0.001 A 
HETATM   20  C   UNL     1     -46.266 -53.965  14.027  1.00  0.00     0.016 A 
HETATM   21  C   UNL     1     -45.624 -52.832  14.542  1.00  0.00     0.048 A 
HETATM   22  C   UNL     1     -44.276 -52.930  14.932  1.00  0.00     0.026 A 
BRANCH  21  23
HETATM   23  C   UNL     1     -46.352 -51.516  14.673  1.00  0.00     0.417 C 
HETATM   24  F   UNL     1     -46.915 -51.086  13.508  1.00  0.00    -0.166 F 
HETATM   25  F   UNL     1     -47.365 -51.562  15.582  1.00  0.00    -0.166 F 
HETATM   26  F   UNL     1     -45.529 -50.508  15.079  1.00  0.00    -0.166 F 
ENDBRANCH  21  23
ENDBRANCH   1  17
TORSDOF 6
ENDMDL
MODEL 7
REMARK VINA RESULT:      -6.6      2.989      6.829
REMARK  6 active torsions:
REMARK  status: ('A' for Active; 'I' for Inactive)
REMARK    1  A    between atoms: C_2  and  C_4 
REMARK    2  A    between atoms: N_8  and  C_9 
REMARK    3  A    between atoms: C_9  and  C_10 
REMARK    4  A    between atoms: C_10  and  O_12 
REMARK    5  A    between atoms: C_10  and  C_13 
REMARK    6  A    between atoms: C_17  and  C_19 
ROOT
HETATM    1  C   UNL     1     -41.989 -53.510  14.735  1.00  0.00     0.098 C 
HETATM    2  C   UNL     1     -41.411 -54.762  15.418  1.00  0.00     0.053 C 
ENDROOT
BRANCH   1   3
HETATM    3  C   UNL     1     -41.380 -53.265  13.323  1.00  0.00     0.175 C 
BRANCH   3   4
HETATM    4  N   UNL     1     -41.287 -51.897  12.791  1.00  0.00    -0.307 N 
HETATM    5  C   UNL     1     -40.009 -51.396  12.610  1.00  0.00     0.250 A 
HETATM    6  C   UNL     1     -39.915 -50.090  11.932  1.00  0.00     0.100 A 
HETATM    7  O   UNL     1     -38.978 -51.980  12.939  1.00  0.00    -0.268 OA
HETATM    8  C   UNL     1     -41.047 -49.476  11.563  1.00  0.00     0.018 A 
HETATM    9  N   UNL     1     -42.288 -49.980  11.834  1.00  0.00    -0.355 N 
HETATM   10  C   UNL     1     -42.354 -51.138  12.398  1.00  0.00     0.186 A 
ATOM     11  HN  UNL     1     -43.133 -49.458  11.599  1.00  0.00     0.166 HD
BRANCH   8  12
HETATM   12  C   UNL     1     -41.039 -48.199  10.737  1.00  0.00     0.027 C 
HETATM   13  C   UNL     1     -42.462 -47.890  10.254  1.00  0.00     0.016 C 
HETATM   14  C   UNL     1     -40.472 -47.016  11.527  1.00  0.00     0.016 C 
ENDBRANCH   8  12
ENDBRANCH   3   4
ENDBRANCH   1   3
BRANCH   1  15
HETATM   15  O   UNL     1     -41.710 -52.391  15.592  1.00  0.00    -0.384 OA
HETATM   16  H   UNL     1     -41.960 -52.627  16.502  1.00  0.00     0.211 HD
ENDBRANCH   1  15
BRANCH   1  17
HETATM   17  C   UNL     1     -43.515 -53.670  14.629  1.00  0.00    -0.022 A 
HETATM   18  C   UNL     1     -44.077 -54.879  14.177  1.00  0.00     0.010 A 
HETATM   19  C   UNL     1     -45.459 -55.045  14.083  1.00  0.00     0.001 A 
HETATM   20  C   UNL     1     -46.314 -54.002  14.426  1.00  0.00     0.016 A 
HETATM   21  C   UNL     1     -45.794 -52.779  14.869  1.00  0.00     0.048 A 
HETATM   22  C   UNL     1     -44.399 -52.630  14.976  1.00  0.00     0.026 A 
BRANCH  21  23
HETATM   23  C   UNL     1     -46.703 -51.627  15.221  1.00  0.00     0.417 C 
HETATM   24  F   UNL     1     -47.798 -51.998  15.944  1.00  0.00    -0.166 F 
HETATM   25  F   UNL     1     -46.078 -50.668  15.958  1.00  0.00    -0.166 F 
HETATM   26  F   UNL     1     -47.187 -50.994  14.116  1.00  0.00    -0.166 F 
ENDBRANCH  21  23
ENDBRANCH   1  17
TORSDOF 6
ENDMDL
MODEL 8
REMARK VINA RESULT:      -6.5      3.855      6.782
REMARK  6 active torsions:
REMARK  status: ('A' for Active; 'I' for Inactive)
REMARK    1  A    between atoms: C_2  and  C_4 
REMARK    2  A    between atoms: N_8  and  C_9 
REMARK    3  A    between atoms: C_9  and  C_10 
REMARK    4  A    between atoms: C_10  and  O_12 
REMARK    5  A    between atoms: C_10  and  C_13 
REMARK    6  A    between atoms: C_17  and  C_19 
ROOT
HETATM    1  C   UNL     1     -40.923 -52.700  12.545  1.00  0.00     0.098 C 
HETATM    2  C   UNL     1     -41.156 -51.274  12.017  1.00  0.00     0.053 C 
ENDROOT
BRANCH   1   3
HETATM    3  C   UNL     1     -39.793 -52.763  13.614  1.00  0.00     0.175 C 
BRANCH   3   4
HETATM    4  N   UNL     1     -39.213 -51.519  14.144  1.00  0.00    -0.307 N 
HETATM    5  C   UNL     1     -38.090 -51.040  13.491  1.00  0.00     0.250 A 
HETATM    6  C   UNL     1     -37.605 -49.715  13.923  1.00  0.00     0.100 A 
HETATM    7  O   UNL     1     -37.516 -51.622  12.572  1.00  0.00    -0.268 OA
HETATM    8  C   UNL     1     -38.253 -49.086  14.911  1.00  0.00     0.018 A 
HETATM    9  N   UNL     1     -39.313 -49.639  15.575  1.00  0.00    -0.355 N 
HETATM   10  C   UNL     1     -39.746 -50.782  15.165  1.00  0.00     0.186 A 
ATOM     11  HN  UNL     1     -39.746 -49.163  16.368  1.00  0.00     0.166 HD
BRANCH   8  12
HETATM   12  C   UNL     1     -37.910 -47.663  15.322  1.00  0.00     0.027 C 
HETATM   13  C   UNL     1     -38.385 -46.685  14.240  1.00  0.00     0.016 C 
HETATM   14  C   UNL     1     -38.525 -47.301  16.678  1.00  0.00     0.016 C 
ENDBRANCH   8  12
ENDBRANCH   3   4
ENDBRANCH   1   3
BRANCH   1  15
HETATM   15  O   UNL     1     -40.578 -53.520  11.417  1.00  0.00    -0.384 OA
HETATM   16  H   UNL     1     -40.975 -54.401  11.541  1.00  0.00     0.211 HD
ENDBRANCH   1  15
BRANCH   1  17
HETATM   17  C   UNL     1     -42.240 -53.224  13.140  1.00  0.00    -0.022 A 
HETATM   18  C   UNL     1     -42.245 -54.357  13.976  1.00  0.00     0.010 A 
HETATM   19  C   UNL     1     -43.429 -54.841  14.533  1.00  0.00     0.001 A 
HETATM   20  C   UNL     1     -44.640 -54.214  14.256  1.00  0.00     0.016 A 
HETATM   21  C   UNL     1     -44.678 -53.091  13.420  1.00  0.00     0.048 A 
HETATM   22  C   UNL     1     -43.476 -52.602  12.879  1.00  0.00     0.026 A 
BRANCH  21  23
HETATM   23  C   UNL     1     -45.985 -52.411  13.088  1.00  0.00     0.417 C 
HETATM   24  F   UNL     1     -45.985 -51.073  13.349  1.00  0.00    -0.166 F 
HETATM   25  F   UNL     1     -46.324 -52.535  11.775  1.00  0.00    -0.166 F 
HETATM   26  F   UNL     1     -47.030 -52.926  13.795  1.00  0.00    -0.166 F 
ENDBRANCH  21  23
ENDBRANCH   1  17
TORSDOF 6
ENDMDL
MODEL 9
REMARK VINA RESULT:      -6.4      3.027      6.016
REMARK  6 active torsions:
REMARK  status: ('A' for Active; 'I' for Inactive)
REMARK    1  A    between atoms: C_2  and  C_4 
REMARK    2  A    between atoms: N_8  and  C_9 
REMARK    3  A    between atoms: C_9  and  C_10 
REMARK    4  A    between atoms: C_10  and  O_12 
REMARK    5  A    between atoms: C_10  and  C_13 
REMARK    6  A    between atoms: C_17  and  C_19 
ROOT
HETATM    1  C   UNL     1     -41.927 -49.816  14.638  1.00  0.00     0.098 C 
HETATM    2  C   UNL     1     -40.953 -50.532  15.590  1.00  0.00     0.053 C 
ENDROOT
BRANCH   1   3
HETATM    3  C   UNL     1     -41.193 -48.908  13.607  1.00  0.00     0.175 C 
BRANCH   3   4
HETATM    4  N   UNL     1     -41.890 -48.471  12.387  1.00  0.00    -0.307 N 
HETATM    5  C   UNL     1     -42.812 -47.450  12.542  1.00  0.00     0.250 A 
HETATM    6  C   UNL     1     -43.393 -46.908  11.299  1.00  0.00     0.100 A 
HETATM    7  O   UNL     1     -43.135 -46.960  13.622  1.00  0.00    -0.268 OA
HETATM    8  C   UNL     1     -43.016 -47.440  10.130  1.00  0.00     0.018 A 
HETATM    9  N   UNL     1     -42.157 -48.500  10.038  1.00  0.00    -0.355 N 
HETATM   10  C   UNL     1     -41.632 -48.942  11.130  1.00  0.00     0.186 A 
ATOM     11  HN  UNL     1     -41.939 -48.927   9.137  1.00  0.00     0.166 HD
BRANCH   8  12
HETATM   12  C   UNL     1     -43.454 -46.853   8.798  1.00  0.00     0.027 C 
HETATM   13  C   UNL     1     -43.431 -47.944   7.720  1.00  0.00     0.016 C 
HETATM   14  C   UNL     1     -44.846 -46.219   8.888  1.00  0.00     0.016 C 
ENDBRANCH   8  12
ENDBRANCH   3   4
ENDBRANCH   1   3
BRANCH   1  15
HETATM   15  O   UNL     1     -42.810 -49.025  15.449  1.00  0.00    -0.384 OA
HETATM   16  H   UNL     1     -42.824 -48.118  15.097  1.00  0.00     0.211 HD
ENDBRANCH   1  15
BRANCH   1  17
HETATM   17  C   UNL     1     -42.764 -50.877  13.903  1.00  0.00    -0.022 A 
HETATM   18  C   UNL     1     -42.134 -51.899  13.168  1.00  0.00     0.010 A 
HETATM   19  C   UNL     1     -42.877 -52.875  12.503  1.00  0.00     0.001 A 
HETATM   20  C   UNL     1     -44.268 -52.845  12.543  1.00  0.00     0.016 A 
HETATM   21  C   UNL     1     -44.931 -51.837  13.254  1.00  0.00     0.048 A 
HETATM   22  C   UNL     1     -44.171 -50.868  13.935  1.00  0.00     0.026 A 
BRANCH  21  23
HETATM   23  C   UNL     1     -46.439 -51.772  13.289  1.00  0.00     0.417 C 
HETATM   24  F   UNL     1     -46.993 -51.329  12.125  1.00  0.00    -0.166 F 
HETATM   25  F   UNL     1     -47.013 -52.981  13.538  1.00  0.00    -0.166 F 
HETATM   26  F   UNL     1     -46.898 -50.932  14.260  1.00  0.00    -0.166 F 
ENDBRANCH  21  23
ENDBRANCH   1  17
TORSDOF 6
ENDMDL
