MODEL 1
REMARK VINA RESULT:      -5.6      0.000      0.000
REMARK  5 active torsions:
REMARK  status: ('A' for Active; 'I' for Inactive)
REMARK    1  A    between atoms: C_2  and  C_3 
REMARK    2  A    between atoms: C_2  and  C_5 
REMARK    3  A    between atoms: C_3  and  O_4 
REMARK    4  A    between atoms: C_5  and  N_7 
REMARK       I    between atoms: N_7  and  C_8 
REMARK       I    between atoms: C_8  and  N_10 
REMARK    5  A    between atoms: N_10  and  C_12 
ROOT
HETATM    1  N   UNL     1     -39.382 -51.260  13.471  1.00  0.00    -0.338 N 
HETATM    2  C   UNL     1     -38.241 -51.135  12.720  1.00  0.00     0.324 C 
HETATM    3  O   UNL     1     -37.286 -51.900  12.852  1.00  0.00    -0.247 OA
HETATM    4  N   UNL     1     -38.299 -50.180  11.711  1.00  0.00    -0.290 N 
HETATM    5  C   UNL     1     -37.150 -50.001  10.834  1.00  0.00     0.163 C 
HETATM    6  H   UNL     1     -39.911 -50.396  13.558  1.00  0.00     0.164 HD
ENDROOT
BRANCH   1   7
HETATM    7  C   UNL     1     -39.618 -52.296  14.470  1.00  0.00     0.087 C 
HETATM    8  C   UNL     1     -38.730 -52.078  15.697  1.00  0.00     0.032 C 
BRANCH   7   9
HETATM    9  C   UNL     1     -39.514 -53.727  13.870  1.00  0.00     0.028 C 
HETATM   10  C   UNL     1     -39.390 -54.803  14.959  1.00  0.00     0.014 C 
BRANCH   9  11
HETATM   11  C   UNL     1     -40.729 -54.040  12.977  1.00  0.00     0.170 C 
BRANCH  11  12
HETATM   12  O   UNL     1     -40.546 -53.516  11.665  1.00  0.00    -0.400 OA
HETATM   13  H   UNL     1     -39.891 -54.085  11.224  1.00  0.00     0.209 HD
ENDBRANCH  11  12
ENDBRANCH   9  11
ENDBRANCH   7   9
ENDBRANCH   1   7
BRANCH   4  14
HETATM   14  C   UNL     1     -39.390 -49.300  11.536  1.00  0.00     0.110 A 
HETATM   15  C   UNL     1     -39.400 -48.072  12.196  1.00  0.00     0.050 A 
HETATM   16  C   UNL     1     -40.463 -47.193  11.992  1.00  0.00     0.029 A 
HETATM   17  C   UNL     1     -41.516 -47.584  11.179  1.00  0.00     0.049 A 
HETATM   18 CL   UNL     1     -42.866 -46.556  10.937  1.00  0.00    -0.083 Cl
HETATM   19  C   UNL     1     -41.439 -48.822  10.562  1.00  0.00     0.113 A 
HETATM   20  N   UNL     1     -40.383 -49.664  10.686  1.00  0.00    -0.350 N 
ATOM     21  HN  UNL     1     -40.337 -50.538  10.161  1.00  0.00     0.166 HD
ENDBRANCH   4  14
TORSDOF 5
ENDMDL
MODEL 2
REMARK VINA RESULT:      -5.6      4.034      4.959
REMARK  5 active torsions:
REMARK  status: ('A' for Active; 'I' for Inactive)
REMARK    1  A    between atoms: C_2  and  C_3 
REMARK    2  A    between atoms: C_2  and  C_5 
REMARK    3  A    between atoms: C_3  and  O_4 
REMARK    4  A    between atoms: C_5  and  N_7 
REMARK       I    between atoms: N_7  and  C_8 
REMARK       I    between atoms: C_8  and  N_10 
REMARK    5  A    between atoms: N_10  and  C_12 
ROOT
HETATM    1  N   UNL     1     -44.316 -51.712  12.894  1.00  0.00    -0.338 N 
HETATM    2  C   UNL     1     -43.093 -52.313  12.736  1.00  0.00     0.324 C 
HETATM    3  O   UNL     1     -42.967 -53.537  12.705  1.00  0.00    -0.247 OA
HETATM    4  N   UNL     1     -42.038 -51.446  12.472  1.00  0.00    -0.290 N 
HETATM    5  C   UNL     1     -40.707 -51.993  12.250  1.00  0.00     0.163 C 
HETATM    6  H   UNL     1     -44.263 -50.773  13.281  1.00  0.00     0.164 HD
ENDROOT
BRANCH   1   7
HETATM    7  C   UNL     1     -45.587 -52.418  13.014  1.00  0.00     0.087 C 
HETATM    8  C   UNL     1     -46.722 -51.599  12.394  1.00  0.00     0.032 C 
BRANCH   7   9
HETATM    9  C   UNL     1     -45.872 -52.875  14.472  1.00  0.00     0.028 C 
HETATM   10  C   UNL     1     -47.073 -52.141  15.085  1.00  0.00     0.014 C 
BRANCH   9  11
HETATM   11  C   UNL     1     -46.114 -54.395  14.535  1.00  0.00     0.170 C 
BRANCH  11  12
HETATM   12  O   UNL     1     -45.663 -55.034  13.345  1.00  0.00    -0.400 OA
HETATM   13  H   UNL     1     -45.324 -54.333  12.760  1.00  0.00     0.209 HD
ENDBRANCH  11  12
ENDBRANCH   9  11
ENDBRANCH   7   9
ENDBRANCH   1   7
BRANCH   4  14
HETATM   14  C   UNL     1     -42.165 -50.039  12.493  1.00  0.00     0.110 A 
HETATM   15  C   UNL     1     -42.152 -49.362  13.712  1.00  0.00     0.050 A 
HETATM   16  C   UNL     1     -42.242 -47.971  13.723  1.00  0.00     0.029 A 
HETATM   17  C   UNL     1     -42.401 -47.294  12.523  1.00  0.00     0.049 A 
HETATM   18 CL   UNL     1     -42.563 -45.588  12.492  1.00  0.00    -0.083 Cl
HETATM   19  C   UNL     1     -42.410 -48.036  11.353  1.00  0.00     0.113 A 
HETATM   20  N   UNL     1     -42.251 -49.382  11.309  1.00  0.00    -0.350 N 
ATOM     21  HN  UNL     1     -42.199 -49.881  10.421  1.00  0.00     0.166 HD
ENDBRANCH   4  14
TORSDOF 5
ENDMDL
MODEL 3
REMARK VINA RESULT:      -5.5      4.936      7.941
REMARK  5 active torsions:
REMARK  status: ('A' for Active; 'I' for Inactive)
REMARK    1  A    between atoms: C_2  and  C_3 
REMARK    2  A    between atoms: C_2  and  C_5 
REMARK    3  A    between atoms: C_3  and  O_4 
REMARK    4  A    between atoms: C_5  and  N_7 
REMARK       I    between atoms: N_7  and  C_8 
REMARK       I    between atoms: C_8  and  N_10 
REMARK    5  A    between atoms: N_10  and  C_12 
ROOT
HETATM    1  N   UNL     1     -42.210 -45.244  10.795  1.00  0.00    -0.338 N 
HETATM    2  C   UNL     1     -43.067 -45.635   9.798  1.00  0.00     0.324 C 
HETATM    3  O   UNL     1     -43.588 -44.826   9.031  1.00  0.00    -0.247 OA
HETATM    4  N   UNL     1     -43.189 -47.010   9.628  1.00  0.00    -0.290 N 
HETATM    5  C   UNL     1     -44.046 -47.523   8.568  1.00  0.00     0.163 C 
HETATM    6  H   UNL     1     -42.154 -45.903  11.568  1.00  0.00     0.164 HD
ENDROOT
BRANCH   1   7
HETATM    7  C   UNL     1     -41.795 -43.870  11.052  1.00  0.00     0.087 C 
HETATM    8  C   UNL     1     -40.275 -43.784  11.210  1.00  0.00     0.032 C 
BRANCH   7   9
HETATM    9  C   UNL     1     -42.582 -43.228  12.228  1.00  0.00     0.028 C 
HETATM   10  C   UNL     1     -41.649 -42.667  13.312  1.00  0.00     0.014 C 
BRANCH   9  11
HETATM   11  C   UNL     1     -43.510 -42.107  11.723  1.00  0.00     0.170 C 
BRANCH  11  12
HETATM   12  O   UNL     1     -44.172 -42.496  10.523  1.00  0.00    -0.400 OA
HETATM   13  H   UNL     1     -44.976 -42.977  10.788  1.00  0.00     0.209 HD
ENDBRANCH  11  12
ENDBRANCH   9  11
ENDBRANCH   7   9
ENDBRANCH   1   7
BRANCH   4  14
HETATM   14  C   UNL     1     -42.591 -47.956  10.491  1.00  0.00     0.110 A 
HETATM   15  C   UNL     1     -43.233 -48.314  11.676  1.00  0.00     0.050 A 
HETATM   16  C   UNL     1     -42.653 -49.273  12.505  1.00  0.00     0.029 A 
HETATM   17  C   UNL     1     -41.421 -49.810  12.161  1.00  0.00     0.049 A 
HETATM   18 CL   UNL     1     -40.649 -50.957  13.174  1.00  0.00    -0.083 Cl
HETATM   19  C   UNL     1     -40.842 -49.400  10.971  1.00  0.00     0.113 A 
HETATM   20  N   UNL     1     -41.418 -48.524  10.111  1.00  0.00    -0.350 N 
ATOM     21  HN  UNL     1     -40.987 -48.300   9.214  1.00  0.00     0.166 HD
ENDBRANCH   4  14
TORSDOF 5
ENDMDL
MODEL 4
REMARK VINA RESULT:      -5.5      4.484      5.858
REMARK  5 active torsions:
REMARK  status: ('A' for Active; 'I' for Inactive)
REMARK    1  A    between atoms: C_2  and  C_3 
REMARK    2  A    between atoms: C_2  and  C_5 
REMARK    3  A    between atoms: C_3  and  O_4 
REMARK    4  A    between atoms: C_5  and  N_7 
REMARK       I    between atoms: N_7  and  C_8 
REMARK       I    between atoms: C_8  and  N_10 
REMARK    5  A    between atoms: N_10  and  C_12 
ROOT
HETATM    1  N   UNL     1     -42.166 -52.635  14.855  1.00  0.00    -0.338 N 
HETATM    2  C   UNL     1     -42.751 -53.262  15.926  1.00  0.00     0.324 C 
HETATM    3  O   UNL     1     -42.098 -53.635  16.900  1.00  0.00    -0.247 OA
HETATM    4  N   UNL     1     -44.140 -53.317  15.892  1.00  0.00    -0.290 N 
HETATM    5  C   UNL     1     -44.854 -53.930  17.004  1.00  0.00     0.163 C 
HETATM    6  H   UNL     1     -42.694 -52.723  13.991  1.00  0.00     0.164 HD
ENDROOT
BRANCH   1   7
HETATM    7  C   UNL     1     -40.748 -52.311  14.747  1.00  0.00     0.087 C 
HETATM    8  C   UNL     1     -40.555 -50.837  14.380  1.00  0.00     0.032 C 
BRANCH   7   9
HETATM    9  C   UNL     1     -39.991 -53.292  13.808  1.00  0.00     0.028 C 
HETATM   10  C   UNL     1     -39.335 -54.444  14.583  1.00  0.00     0.014 C 
BRANCH   9  11
HETATM   11  C   UNL     1     -40.934 -53.868  12.736  1.00  0.00     0.170 C 
BRANCH  11  12
HETATM   12  O   UNL     1     -40.600 -53.373  11.443  1.00  0.00    -0.400 OA
HETATM   13  H   UNL     1     -40.089 -54.072  10.997  1.00  0.00     0.209 HD
ENDBRANCH  11  12
ENDBRANCH   9  11
ENDBRANCH   7   9
ENDBRANCH   1   7
BRANCH   4  14
HETATM   14  C   UNL     1     -44.908 -52.886  14.788  1.00  0.00     0.110 A 
HETATM   15  C   UNL     1     -45.787 -51.814  14.934  1.00  0.00     0.050 A 
HETATM   16  C   UNL     1     -46.516 -51.371  13.831  1.00  0.00     0.029 A 
HETATM   17  C   UNL     1     -46.392 -52.043  12.625  1.00  0.00     0.049 A 
HETATM   18 CL   UNL     1     -47.304 -51.564  11.255  1.00  0.00    -0.083 Cl
HETATM   19  C   UNL     1     -45.503 -53.104  12.558  1.00  0.00     0.113 A 
HETATM   20  N   UNL     1     -44.729 -53.508  13.595  1.00  0.00    -0.350 N 
ATOM     21  HN  UNL     1     -44.039 -54.252  13.484  1.00  0.00     0.166 HD
ENDBRANCH   4  14
TORSDOF 5
ENDMDL
MODEL 5
REMARK VINA RESULT:      -5.4      4.069      5.222
REMARK  5 active torsions:
REMARK  status: ('A' for Active; 'I' for Inactive)
REMARK    1  A    between atoms: C_2  and  C_3 
REMARK    2  A    between atoms: C_2  and  C_5 
REMARK    3  A    between atoms: C_3  and  O_4 
REMARK    4  A    between atoms: C_5  and  N_7 
REMARK       I    between atoms: N_7  and  C_8 
REMARK       I    between atoms: C_8  and  N_10 
REMARK    5  A    between atoms: N_10  and  C_12 
ROOT
HETATM    1  N   UNL     1     -43.931 -52.365  13.213  1.00  0.00    -0.338 N 
HETATM    2  C   UNL     1     -43.023 -53.387  13.325  1.00  0.00     0.324 C 
HETATM    3  O   UNL     1     -43.369 -54.546  13.547  1.00  0.00    -0.247 OA
HETATM    4  N   UNL     1     -41.707 -53.044  13.031  1.00  0.00    -0.290 N 
HETATM    5  C   UNL     1     -40.676 -54.071  13.083  1.00  0.00     0.163 C 
HETATM    6  H   UNL     1     -43.541 -51.448  13.414  1.00  0.00     0.164 HD
ENDROOT
BRANCH   1   7
HETATM    7  C   UNL     1     -45.378 -52.516  13.310  1.00  0.00     0.087 C 
HETATM    8  C   UNL     1     -46.091 -51.449  12.475  1.00  0.00     0.032 C 
BRANCH   7   9
HETATM    9  C   UNL     1     -45.866 -52.584  14.784  1.00  0.00     0.028 C 
HETATM   10  C   UNL     1     -46.898 -51.493  15.103  1.00  0.00     0.014 C 
BRANCH   9  11
HETATM   11  C   UNL     1     -46.467 -53.966  15.102  1.00  0.00     0.170 C 
BRANCH  11  12
HETATM   12  O   UNL     1     -46.273 -54.868  14.017  1.00  0.00    -0.400 OA
HETATM   13  H   UNL     1     -47.153 -55.050  13.641  1.00  0.00     0.209 HD
ENDBRANCH  11  12
ENDBRANCH   9  11
ENDBRANCH   7   9
ENDBRANCH   1   7
BRANCH   4  14
HETATM   14  C   UNL     1     -41.290 -51.721  12.763  1.00  0.00     0.110 A 
HETATM   15  C   UNL     1     -41.073 -50.838  13.821  1.00  0.00     0.050 A 
HETATM   16  C   UNL     1     -40.628 -49.545  13.551  1.00  0.00     0.029 A 
HETATM   17  C   UNL     1     -40.465 -49.146  12.233  1.00  0.00     0.049 A 
HETATM   18 CL   UNL     1     -39.966 -47.551  11.853  1.00  0.00    -0.083 Cl
HETATM   19  C   UNL     1     -40.707 -50.078  11.236  1.00  0.00     0.113 A 
HETATM   20  N   UNL     1     -41.070 -51.362  11.473  1.00  0.00    -0.350 N 
ATOM     21  HN  UNL     1     -41.173 -52.034  10.712  1.00  0.00     0.166 HD
ENDBRANCH   4  14
TORSDOF 5
ENDMDL
MODEL 6
REMARK VINA RESULT:      -5.3      3.161      5.028
REMARK  5 active torsions:
REMARK  status: ('A' for Active; 'I' for Inactive)
REMARK    1  A    between atoms: C_2  and  C_3 
REMARK    2  A    between atoms: C_2  and  C_5 
REMARK    3  A    between atoms: C_3  and  O_4 
REMARK    4  A    between atoms: C_5  and  N_7 
REMARK       I    between atoms: N_7  and  C_8 
REMARK       I    between atoms: C_8  and  N_10 
REMARK    5  A    between atoms: N_10  and  C_12 
ROOT
HETATM    1  N   UNL     1     -40.384 -50.750  13.530  1.00  0.00    -0.338 N 
HETATM    2  C   UNL     1     -40.030 -52.069  13.395  1.00  0.00     0.324 C 
HETATM    3  O   UNL     1     -38.856 -52.421  13.285  1.00  0.00    -0.247 OA
HETATM    4  N   UNL     1     -41.073 -52.978  13.533  1.00  0.00    -0.290 N 
HETATM    5  C   UNL     1     -40.790 -54.404  13.444  1.00  0.00     0.163 C 
HETATM    6  H   UNL     1     -41.335 -50.549  13.231  1.00  0.00     0.164 HD
ENDROOT
BRANCH   1   7
HETATM    7  C   UNL     1     -39.448 -49.634  13.589  1.00  0.00     0.087 C 
HETATM    8  C   UNL     1     -39.858 -48.640  14.680  1.00  0.00     0.032 C 
BRANCH   7   9
HETATM    9  C   UNL     1     -39.226 -48.977  12.198  1.00  0.00     0.028 C 
HETATM   10  C   UNL     1     -38.040 -49.598  11.447  1.00  0.00     0.014 C 
BRANCH   9  11
HETATM   11  C   UNL     1     -40.494 -49.083  11.330  1.00  0.00     0.170 C 
BRANCH  11  12
HETATM   12  O   UNL     1     -40.352 -50.099  10.343  1.00  0.00    -0.400 OA
HETATM   13  H   UNL     1     -39.544 -49.893   9.840  1.00  0.00     0.209 HD
ENDBRANCH  11  12
ENDBRANCH   9  11
ENDBRANCH   7   9
ENDBRANCH   1   7
BRANCH   4  14
HETATM   14  C   UNL     1     -42.426 -52.594  13.670  1.00  0.00     0.110 A 
HETATM   15  C   UNL     1     -43.299 -52.744  12.593  1.00  0.00     0.050 A 
HETATM   16  C   UNL     1     -44.641 -52.396  12.747  1.00  0.00     0.029 A 
HETATM   17  C   UNL     1     -45.065 -51.854  13.951  1.00  0.00     0.049 A 
HETATM   18 CL   UNL     1     -46.694 -51.367  14.169  1.00  0.00    -0.083 Cl
HETATM   19  C   UNL     1     -44.137 -51.729  14.972  1.00  0.00     0.113 A 
HETATM   20  N   UNL     1     -42.845 -52.128  14.873  1.00  0.00    -0.350 N 
ATOM     21  HN  UNL     1     -42.212 -52.079  15.672  1.00  0.00     0.166 HD
ENDBRANCH   4  14
TORSDOF 5
ENDMDL
MODEL 7
REMARK VINA RESULT:      -5.3      4.322      5.912
REMARK  5 active torsions:
REMARK  status: ('A' for Active; 'I' for Inactive)
REMARK    1  A    between atoms: C_2  and  C_3 
REMARK    2  A    between atoms: C_2  and  C_5 
REMARK    3  A    between atoms: C_3  and  O_4 
REMARK    4  A    between atoms: C_5  and  N_7 
REMARK       I    between atoms: N_7  and  C_8 
REMARK       I    between atoms: C_8  and  N_10 
REMARK    5  A    between atoms: N_10  and  C_12 
ROOT
HETATM    1  N   UNL     1     -44.145 -53.661  14.476  1.00  0.00    -0.338 N 
HETATM    2  C   UNL     1     -43.193 -54.332  15.201  1.00  0.00     0.324 C 
HETATM    3  O   UNL     1     -43.487 -55.226  15.993  1.00  0.00    -0.247 OA
HETATM    4  N   UNL     1     -41.877 -54.029  14.871  1.00  0.00    -0.290 N 
HETATM    5  C   UNL     1     -40.794 -54.720  15.559  1.00  0.00     0.163 C 
HETATM    6  H   UNL     1     -43.851 -52.736  14.172  1.00  0.00     0.164 HD
ENDROOT
BRANCH   1   7
HETATM    7  C   UNL     1     -45.578 -53.928  14.525  1.00  0.00     0.087 C 
HETATM    8  C   UNL     1     -45.898 -55.287  13.898  1.00  0.00     0.032 C 
BRANCH   7   9
HETATM    9  C   UNL     1     -46.416 -52.757  13.939  1.00  0.00     0.028 C 
HETATM   10  C   UNL     1     -46.550 -51.590  14.927  1.00  0.00     0.014 C 
BRANCH   9  11
HETATM   11  C   UNL     1     -45.801 -52.246  12.623  1.00  0.00     0.170 C 
BRANCH  11  12
HETATM   12  O   UNL     1     -46.639 -52.556  11.514  1.00  0.00    -0.400 OA
HETATM   13  H   UNL     1     -47.208 -53.297  11.789  1.00  0.00     0.209 HD
ENDBRANCH  11  12
ENDBRANCH   9  11
ENDBRANCH   7   9
ENDBRANCH   1   7
BRANCH   4  14
HETATM   14  C   UNL     1     -41.519 -53.013  13.956  1.00  0.00     0.110 A 
HETATM   15  C   UNL     1     -41.193 -51.742  14.428  1.00  0.00     0.050 A 
HETATM   16  C   UNL     1     -40.806 -50.755  13.522  1.00  0.00     0.029 A 
HETATM   17  C   UNL     1     -40.810 -51.043  12.165  1.00  0.00     0.049 A 
HETATM   18 CL   UNL     1     -40.388 -49.846  11.013  1.00  0.00    -0.083 Cl
HETATM   19  C   UNL     1     -41.152 -52.327  11.773  1.00  0.00     0.113 A 
HETATM   20  N   UNL     1     -41.460 -53.325  12.637  1.00  0.00    -0.350 N 
ATOM     21  HN  UNL     1     -41.642 -54.274  12.308  1.00  0.00     0.166 HD
ENDBRANCH   4  14
TORSDOF 5
ENDMDL
MODEL 8
REMARK VINA RESULT:      -5.2      5.403      6.699
REMARK  5 active torsions:
REMARK  status: ('A' for Active; 'I' for Inactive)
REMARK    1  A    between atoms: C_2  and  C_3 
REMARK    2  A    between atoms: C_2  and  C_5 
REMARK    3  A    between atoms: C_3  and  O_4 
REMARK    4  A    between atoms: C_5  and  N_7 
REMARK       I    between atoms: N_7  and  C_8 
REMARK       I    between atoms: C_8  and  N_10 
REMARK    5  A    between atoms: N_10  and  C_12 
ROOT
HETATM    1  N   UNL     1     -43.835 -53.366  14.259  1.00  0.00    -0.338 N 
HETATM    2  C   UNL     1     -44.603 -53.018  13.177  1.00  0.00     0.324 C 
HETATM    3  O   UNL     1     -44.420 -53.505  12.063  1.00  0.00    -0.247 OA
HETATM    4  N   UNL     1     -45.684 -52.189  13.461  1.00  0.00    -0.290 N 
HETATM    5  C   UNL     1     -46.582 -51.797  12.384  1.00  0.00     0.163 C 
HETATM    6  H   UNL     1     -43.811 -52.657  14.988  1.00  0.00     0.164 HD
ENDROOT
BRANCH   1   7
HETATM    7  C   UNL     1     -42.756 -54.346  14.239  1.00  0.00     0.087 C 
HETATM    8  C   UNL     1     -42.960 -55.398  15.333  1.00  0.00     0.032 C 
BRANCH   7   9
HETATM    9  C   UNL     1     -41.352 -53.679  14.269  1.00  0.00     0.028 C 
HETATM   10  C   UNL     1     -40.322 -54.532  15.023  1.00  0.00     0.014 C 
BRANCH   9  11
HETATM   11  C   UNL     1     -40.843 -53.403  12.842  1.00  0.00     0.170 C 
BRANCH  11  12
HETATM   12  O   UNL     1     -40.885 -54.585  12.048  1.00  0.00    -0.400 OA
HETATM   13  H   UNL     1     -41.343 -55.263  12.576  1.00  0.00     0.209 HD
ENDBRANCH  11  12
ENDBRANCH   9  11
ENDBRANCH   7   9
ENDBRANCH   1   7
BRANCH   4  14
HETATM   14  C   UNL     1     -45.917 -51.627  14.737  1.00  0.00     0.110 A 
HETATM   15  C   UNL     1     -47.120 -51.883  15.395  1.00  0.00     0.050 A 
HETATM   16  C   UNL     1     -47.328 -51.354  16.668  1.00  0.00     0.029 A 
HETATM   17  C   UNL     1     -46.358 -50.536  17.228  1.00  0.00     0.049 A 
HETATM   18 CL   UNL     1     -46.593 -49.826  18.770  1.00  0.00    -0.083 Cl
HETATM   19  C   UNL     1     -45.192 -50.323  16.511  1.00  0.00     0.113 A 
HETATM   20  N   UNL     1     -44.934 -50.884  15.304  1.00  0.00    -0.350 N 
ATOM     21  HN  UNL     1     -44.034 -50.753  14.840  1.00  0.00     0.166 HD
ENDBRANCH   4  14
TORSDOF 5
ENDMDL
MODEL 9
REMARK VINA RESULT:      -5.2      3.583      6.069
REMARK  5 active torsions:
REMARK  status: ('A' for Active; 'I' for Inactive)
REMARK    1  A    between atoms: C_2  and  C_3 
REMARK    2  A    between atoms: C_2  and  C_5 
REMARK    3  A    between atoms: C_3  and  O_4 
REMARK    4  A    between atoms: C_5  and  N_7 
REMARK       I    between atoms: N_7  and  C_8 
REMARK       I    between atoms: C_8  and  N_10 
REMARK    5  A    between atoms: N_10  and  C_12 
ROOT
HETATM    1  N   UNL     1     -41.576 -51.020  13.225  1.00  0.00    -0.338 N 
HETATM    2  C   UNL     1     -40.607 -51.988  13.147  1.00  0.00     0.324 C 
HETATM    3  O   UNL     1     -39.437 -51.720  12.882  1.00  0.00    -0.247 OA
HETATM    4  N   UNL     1     -41.014 -53.263  13.527  1.00  0.00    -0.290 N 
HETATM    5  C   UNL     1     -40.046 -54.351  13.516  1.00  0.00     0.163 C 
HETATM    6  H   UNL     1     -42.518 -51.369  13.065  1.00  0.00     0.164 HD
ENDROOT
BRANCH   1   7
HETATM    7  C   UNL     1     -41.349 -49.591  13.038  1.00  0.00     0.087 C 
HETATM    8  C   UNL     1     -41.584 -48.830  14.346  1.00  0.00     0.032 C 
BRANCH   7   9
HETATM    9  C   UNL     1     -42.147 -49.021  11.832  1.00  0.00     0.028 C 
HETATM   10  C   UNL     1     -42.863 -47.708  12.181  1.00  0.00     0.014 C 
BRANCH   9  11
HETATM   11  C   UNL     1     -41.225 -48.794  10.620  1.00  0.00     0.170 C 
BRANCH  11  12
HETATM   12  O   UNL     1     -40.436 -49.950  10.356  1.00  0.00    -0.400 OA
HETATM   13  H   UNL     1     -39.526 -49.740  10.633  1.00  0.00     0.209 HD
ENDBRANCH  11  12
ENDBRANCH   9  11
ENDBRANCH   7   9
ENDBRANCH   1   7
BRANCH   4  14
HETATM   14  C   UNL     1     -42.352 -53.589  13.844  1.00  0.00     0.110 A 
HETATM   15  C   UNL     1     -43.259 -53.857  12.820  1.00  0.00     0.050 A 
HETATM   16  C   UNL     1     -44.568 -54.213  13.143  1.00  0.00     0.029 A 
HETATM   17  C   UNL     1     -44.955 -54.237  14.474  1.00  0.00     0.049 A 
HETATM   18 CL   UNL     1     -46.566 -54.623  14.914  1.00  0.00    -0.083 Cl
HETATM   19  C   UNL     1     -43.998 -53.953  15.436  1.00  0.00     0.113 A 
HETATM   20  N   UNL     1     -42.701 -53.676  15.153  1.00  0.00    -0.350 N 
ATOM     21  HN  UNL     1     -42.014 -53.538  15.895  1.00  0.00     0.166 HD
ENDBRANCH   4  14
TORSDOF 5
ENDMDL
