MODEL 1
REMARK VINA RESULT:      -6.8      0.000      0.000
REMARK  3 active torsions:
REMARK  status: ('A' for Active; 'I' for Inactive)
REMARK    1  A    between atoms: C_6  and  C_7 
REMARK    2  A    between atoms: C_7  and  N_8 
REMARK       I    between atoms: N_8  and  C_9 
REMARK       I    between atoms: C_9  and  N_11 
REMARK    3  A    between atoms: N_11  and  C_12 
ROOT
HETATM    1  N   UNL     1     -40.472 -49.582  10.589  1.00  0.00    -0.340 N 
HETATM    2  C   UNL     1     -41.470 -48.640  10.653  1.00  0.00     0.321 C 
HETATM    3  O   UNL     1     -41.746 -48.046  11.690  1.00  0.00    -0.247 OA
HETATM    4  N   UNL     1     -42.074 -48.442   9.436  1.00  0.00    -0.295 N 
HETATM    5  H   UNL     1     -40.620 -50.332   9.923  1.00  0.00     0.164 HD
HETATM    6  H   UNL     1     -41.414 -48.311   8.683  1.00  0.00     0.172 HD
ENDROOT
BRANCH   1   7
HETATM    7  C   UNL     1     -39.723 -49.928  11.785  1.00  0.00     0.158 C 
BRANCH   7   8
HETATM    8  C   UNL     1     -40.304 -51.111  12.582  1.00  0.00     0.167 C 
HETATM    9  O   UNL     1     -39.207 -51.941  13.023  1.00  0.00    -0.381 OA
HETATM   10  C   UNL     1     -39.688 -53.027  13.826  1.00  0.00     0.198 C 
HETATM   11  C   UNL     1     -40.715 -53.883  13.067  1.00  0.00     0.298 C 
HETATM   12  N   UNL     1     -41.859 -53.121  12.534  1.00  0.00     0.088 N 
HETATM   13  C   UNL     1     -42.810 -52.733  13.570  1.00  0.00     0.310 C 
HETATM   14  C   UNL     1     -41.340 -51.950  11.793  1.00  0.00     0.305 C 
ENDBRANCH   7   8
ENDBRANCH   1   7
BRANCH   4  15
HETATM   15  C   UNL     1     -43.157 -47.561   9.343  1.00  0.00     0.109 A 
HETATM   16  C   UNL     1     -42.951 -46.203   9.123  1.00  0.00     0.049 A 
HETATM   17  C   UNL     1     -44.060 -45.385   8.959  1.00  0.00     0.006 A 
HETATM   18  C   UNL     1     -45.329 -45.951   8.990  1.00  0.00     0.025 A 
HETATM   19  C   UNL     1     -45.445 -47.318   9.236  1.00  0.00     0.007 A 
HETATM   20  C   UNL     1     -46.782 -47.992   9.179  1.00  0.00     0.068 C 
HETATM   21  N   UNL     1     -44.376 -48.119   9.460  1.00  0.00    -0.346 N 
ATOM     22  HN  UNL     1     -44.489 -49.102   9.707  1.00  0.00     0.167 HD
ENDBRANCH   4  15
TORSDOF 3
ENDMDL
MODEL 2
REMARK VINA RESULT:      -6.5      2.943      6.274
REMARK  3 active torsions:
REMARK  status: ('A' for Active; 'I' for Inactive)
REMARK    1  A    between atoms: C_6  and  C_7 
REMARK    2  A    between atoms: C_7  and  N_8 
REMARK       I    between atoms: N_8  and  C_9 
REMARK       I    between atoms: C_9  and  N_11 
REMARK    3  A    between atoms: N_11  and  C_12 
ROOT
HETATM    1  N   UNL     1     -41.050 -51.456  11.423  1.00  0.00    -0.340 N 
HETATM    2  C   UNL     1     -42.083 -51.748  12.279  1.00  0.00     0.321 C 
HETATM    3  O   UNL     1     -42.204 -51.204  13.372  1.00  0.00    -0.247 OA
HETATM    4  N   UNL     1     -42.946 -52.676  11.751  1.00  0.00    -0.295 N 
HETATM    5  H   UNL     1     -40.737 -52.221  10.836  1.00  0.00     0.164 HD
HETATM    6  H   UNL     1     -43.226 -52.464  10.804  1.00  0.00     0.172 HD
ENDROOT
BRANCH   1   7
HETATM    7  C   UNL     1     -40.032 -50.495  11.815  1.00  0.00     0.158 C 
BRANCH   7   8
HETATM    8  C   UNL     1     -40.502 -49.028  11.809  1.00  0.00     0.167 C 
HETATM    9  O   UNL     1     -41.164 -48.772  10.552  1.00  0.00    -0.381 OA
HETATM   10  C   UNL     1     -41.680 -47.433  10.519  1.00  0.00     0.198 C 
HETATM   11  C   UNL     1     -40.571 -46.392  10.744  1.00  0.00     0.298 C 
HETATM   12  N   UNL     1     -39.801 -46.591  11.985  1.00  0.00     0.088 N 
HETATM   13  C   UNL     1     -40.542 -46.198  13.178  1.00  0.00     0.310 C 
HETATM   14  C   UNL     1     -39.364 -48.005  12.046  1.00  0.00     0.305 C 
ENDBRANCH   7   8
ENDBRANCH   1   7
BRANCH   4  15
HETATM   15  C   UNL     1     -44.018 -53.134  12.524  1.00  0.00     0.109 A 
HETATM   16  C   UNL     1     -44.110 -54.473  12.889  1.00  0.00     0.049 A 
HETATM   17  C   UNL     1     -45.149 -54.861  13.722  1.00  0.00     0.006 A 
HETATM   18  C   UNL     1     -46.040 -53.899  14.186  1.00  0.00     0.025 A 
HETATM   19  C   UNL     1     -45.887 -52.583  13.755  1.00  0.00     0.007 A 
HETATM   20  C   UNL     1     -46.757 -51.494  14.303  1.00  0.00     0.068 C 
HETATM   21  N   UNL     1     -44.915 -52.200  12.891  1.00  0.00    -0.346 N 
ATOM     22  HN  UNL     1     -44.865 -51.246  12.535  1.00  0.00     0.167 HD
ENDBRANCH   4  15
TORSDOF 3
ENDMDL
MODEL 3
REMARK VINA RESULT:      -6.5      1.923      6.990
REMARK  3 active torsions:
REMARK  status: ('A' for Active; 'I' for Inactive)
REMARK    1  A    between atoms: C_6  and  C_7 
REMARK    2  A    between atoms: C_7  and  N_8 
REMARK       I    between atoms: N_8  and  C_9 
REMARK       I    between atoms: C_9  and  N_11 
REMARK    3  A    between atoms: N_11  and  C_12 
ROOT
HETATM    1  N   UNL     1     -41.029 -50.616  11.206  1.00  0.00    -0.340 N 
HETATM    2  C   UNL     1     -41.759 -51.238  12.190  1.00  0.00     0.321 C 
HETATM    3  O   UNL     1     -41.958 -50.723  13.284  1.00  0.00    -0.247 OA
HETATM    4  N   UNL     1     -42.240 -52.459  11.784  1.00  0.00    -0.295 N 
HETATM    5  H   UNL     1     -40.510 -51.232  10.590  1.00  0.00     0.164 HD
HETATM    6  H   UNL     1     -42.687 -52.427  10.879  1.00  0.00     0.172 HD
ENDROOT
BRANCH   1   7
HETATM    7  C   UNL     1     -40.435 -49.313  11.457  1.00  0.00     0.158 C 
BRANCH   7   8
HETATM    8  C   UNL     1     -41.126 -48.146  10.728  1.00  0.00     0.167 C 
HETATM    9  O   UNL     1     -40.464 -46.921  11.110  1.00  0.00    -0.381 OA
HETATM   10  C   UNL     1     -41.029 -45.804  10.409  1.00  0.00     0.198 C 
HETATM   11  C   UNL     1     -42.540 -45.679  10.663  1.00  0.00     0.298 C 
HETATM   12  N   UNL     1     -43.307 -46.897  10.346  1.00  0.00     0.088 N 
HETATM   13  C   UNL     1     -43.471 -47.103   8.911  1.00  0.00     0.310 C 
HETATM   14  C   UNL     1     -42.648 -48.051  10.999  1.00  0.00     0.305 C 
ENDBRANCH   7   8
ENDBRANCH   1   7
BRANCH   4  15
HETATM   15  C   UNL     1     -42.949 -53.253  12.692  1.00  0.00     0.109 A 
HETATM   16  C   UNL     1     -44.277 -53.588  12.456  1.00  0.00     0.049 A 
HETATM   17  C   UNL     1     -44.912 -54.443  13.346  1.00  0.00     0.006 A 
HETATM   18  C   UNL     1     -44.193 -54.956  14.419  1.00  0.00     0.025 A 
HETATM   19  C   UNL     1     -42.871 -54.552  14.593  1.00  0.00     0.007 A 
HETATM   20  C   UNL     1     -42.026 -55.152  15.675  1.00  0.00     0.068 C 
HETATM   21  N   UNL     1     -42.257 -53.669  13.769  1.00  0.00    -0.346 N 
ATOM     22  HN  UNL     1     -41.312 -53.334  13.956  1.00  0.00     0.167 HD
ENDBRANCH   4  15
TORSDOF 3
ENDMDL
MODEL 4
REMARK VINA RESULT:      -6.5      3.781      5.661
REMARK  3 active torsions:
REMARK  status: ('A' for Active; 'I' for Inactive)
REMARK    1  A    between atoms: C_6  and  C_7 
REMARK    2  A    between atoms: C_7  and  N_8 
REMARK       I    between atoms: N_8  and  C_9 
REMARK       I    between atoms: C_9  and  N_11 
REMARK    3  A    between atoms: N_11  and  C_12 
ROOT
HETATM    1  N   UNL     1     -40.825 -51.041  11.210  1.00  0.00    -0.340 N 
HETATM    2  C   UNL     1     -41.927 -51.316  11.982  1.00  0.00     0.321 C 
HETATM    3  O   UNL     1     -42.420 -50.488  12.741  1.00  0.00    -0.247 OA
HETATM    4  N   UNL     1     -42.401 -52.588  11.774  1.00  0.00    -0.295 N 
HETATM    5  H   UNL     1     -40.214 -51.829  11.022  1.00  0.00     0.164 HD
HETATM    6  H   UNL     1     -42.499 -52.819  10.796  1.00  0.00     0.172 HD
ENDROOT
BRANCH   1   7
HETATM    7  C   UNL     1     -40.182 -49.741  11.299  1.00  0.00     0.158 C 
BRANCH   7   8
HETATM    8  C   UNL     1     -38.985 -49.686  12.269  1.00  0.00     0.167 C 
HETATM    9  O   UNL     1     -38.408 -51.007  12.347  1.00  0.00    -0.381 OA
HETATM   10  C   UNL     1     -37.247 -51.000  13.190  1.00  0.00     0.198 C 
HETATM   11  C   UNL     1     -37.576 -50.491  14.604  1.00  0.00     0.298 C 
HETATM   12  N   UNL     1     -38.214 -49.162  14.633  1.00  0.00     0.088 N 
HETATM   13  C   UNL     1     -37.274 -48.080  14.361  1.00  0.00     0.310 C 
HETATM   14  C   UNL     1     -39.347 -49.163  13.681  1.00  0.00     0.305 C 
ENDBRANCH   7   8
ENDBRANCH   1   7
BRANCH   4  15
HETATM   15  C   UNL     1     -43.482 -53.050  12.533  1.00  0.00     0.109 A 
HETATM   16  C   UNL     1     -43.387 -54.235  13.254  1.00  0.00     0.049 A 
HETATM   17  C   UNL     1     -44.457 -54.609  14.055  1.00  0.00     0.006 A 
HETATM   18  C   UNL     1     -45.568 -53.776  14.131  1.00  0.00     0.025 A 
HETATM   19  C   UNL     1     -45.589 -52.616  13.358  1.00  0.00     0.007 A 
HETATM   20  C   UNL     1     -46.716 -51.638  13.481  1.00  0.00     0.068 C 
HETATM   21  N   UNL     1     -44.578 -52.270  12.525  1.00  0.00    -0.346 N 
ATOM     22  HN  UNL     1     -44.646 -51.453  11.917  1.00  0.00     0.167 HD
ENDBRANCH   4  15
TORSDOF 3
ENDMDL
MODEL 5
REMARK VINA RESULT:      -6.5      2.477      6.972
REMARK  3 active torsions:
REMARK  status: ('A' for Active; 'I' for Inactive)
REMARK    1  A    between atoms: C_6  and  C_7 
REMARK    2  A    between atoms: C_7  and  N_8 
REMARK       I    between atoms: N_8  and  C_9 
REMARK       I    between atoms: C_9  and  N_11 
REMARK    3  A    between atoms: N_11  and  C_12 
ROOT
HETATM    1  N   UNL     1     -40.850 -50.857  11.145  1.00  0.00    -0.340 N 
HETATM    2  C   UNL     1     -41.581 -51.428  12.157  1.00  0.00     0.321 C 
HETATM    3  O   UNL     1     -41.610 -50.961  13.291  1.00  0.00    -0.247 OA
HETATM    4  N   UNL     1     -42.274 -52.536  11.734  1.00  0.00    -0.295 N 
HETATM    5  H   UNL     1     -40.481 -51.501  10.453  1.00  0.00     0.164 HD
HETATM    6  H   UNL     1     -42.783 -52.381  10.876  1.00  0.00     0.172 HD
ENDROOT
BRANCH   1   7
HETATM    7  C   UNL     1     -40.046 -49.674  11.408  1.00  0.00     0.158 C 
BRANCH   7   8
HETATM    8  C   UNL     1     -40.837 -48.352  11.406  1.00  0.00     0.167 C 
HETATM    9  O   UNL     1     -41.679 -48.332  10.233  1.00  0.00    -0.381 OA
HETATM   10  C   UNL     1     -42.487 -47.147  10.214  1.00  0.00     0.198 C 
HETATM   11  C   UNL     1     -41.627 -45.873  10.260  1.00  0.00     0.298 C 
HETATM   12  N   UNL     1     -40.696 -45.814  11.401  1.00  0.00     0.088 N 
HETATM   13  C   UNL     1     -41.368 -45.519  12.662  1.00  0.00     0.310 C 
HETATM   14  C   UNL     1     -39.944 -47.088  11.460  1.00  0.00     0.305 C 
ENDBRANCH   7   8
ENDBRANCH   1   7
BRANCH   4  15
HETATM   15  C   UNL     1     -43.018 -53.275  12.660  1.00  0.00     0.109 A 
HETATM   16  C   UNL     1     -44.374 -53.507  12.458  1.00  0.00     0.049 A 
HETATM   17  C   UNL     1     -45.049 -54.312  13.364  1.00  0.00     0.006 A 
HETATM   18  C   UNL     1     -44.345 -54.880  14.420  1.00  0.00     0.025 A 
HETATM   19  C   UNL     1     -42.991 -54.579  14.559  1.00  0.00     0.007 A 
HETATM   20  C   UNL     1     -42.167 -55.245  15.619  1.00  0.00     0.068 C 
HETATM   21  N   UNL     1     -42.332 -53.745  13.719  1.00  0.00    -0.346 N 
ATOM     22  HN  UNL     1     -41.360 -53.484  13.881  1.00  0.00     0.167 HD
ENDBRANCH   4  15
TORSDOF 3
ENDMDL
MODEL 6
REMARK VINA RESULT:      -6.3      2.082      6.641
REMARK  3 active torsions:
REMARK  status: ('A' for Active; 'I' for Inactive)
REMARK    1  A    between atoms: C_6  and  C_7 
REMARK    2  A    between atoms: C_7  and  N_8 
REMARK       I    between atoms: N_8  and  C_9 
REMARK       I    between atoms: C_9  and  N_11 
REMARK    3  A    between atoms: N_11  and  C_12 
ROOT
HETATM    1  N   UNL     1     -40.040 -49.883  10.940  1.00  0.00    -0.340 N 
HETATM    2  C   UNL     1     -40.813 -50.615  11.808  1.00  0.00     0.321 C 
HETATM    3  O   UNL     1     -41.283 -50.135  12.833  1.00  0.00    -0.247 OA
HETATM    4  N   UNL     1     -41.004 -51.902  11.370  1.00  0.00    -0.295 N 
HETATM    5  H   UNL     1     -39.325 -50.403  10.443  1.00  0.00     0.164 HD
HETATM    6  H   UNL     1     -41.286 -51.954  10.402  1.00  0.00     0.172 HD
ENDROOT
BRANCH   1   7
HETATM    7  C   UNL     1     -39.727 -48.495  11.241  1.00  0.00     0.158 C 
BRANCH   7   8
HETATM    8  C   UNL     1     -40.923 -47.531  11.128  1.00  0.00     0.167 C 
HETATM    9  O   UNL     1     -41.841 -48.066  10.150  1.00  0.00    -0.381 OA
HETATM   10  C   UNL     1     -43.008 -47.237  10.050  1.00  0.00     0.198 C 
HETATM   11  C   UNL     1     -42.645 -45.787   9.686  1.00  0.00     0.298 C 
HETATM   12  N   UNL     1     -41.674 -45.161  10.601  1.00  0.00     0.088 N 
HETATM   13  C   UNL     1     -42.265 -44.790  11.882  1.00  0.00     0.310 C 
HETATM   14  C   UNL     1     -40.525 -46.079  10.767  1.00  0.00     0.305 C 
ENDBRANCH   7   8
ENDBRANCH   1   7
BRANCH   4  15
HETATM   15  C   UNL     1     -41.715 -52.801  12.172  1.00  0.00     0.109 A 
HETATM   16  C   UNL     1     -41.049 -53.648  13.052  1.00  0.00     0.049 A 
HETATM   17  C   UNL     1     -41.803 -54.464  13.883  1.00  0.00     0.006 A 
HETATM   18  C   UNL     1     -43.190 -54.386  13.829  1.00  0.00     0.025 A 
HETATM   19  C   UNL     1     -43.776 -53.524  12.904  1.00  0.00     0.007 A 
HETATM   20  C   UNL     1     -45.262 -53.331  12.877  1.00  0.00     0.068 C 
HETATM   21  N   UNL     1     -43.054 -52.768  12.043  1.00  0.00    -0.346 N 
ATOM     22  HN  UNL     1     -43.505 -52.198  11.328  1.00  0.00     0.167 HD
ENDBRANCH   4  15
TORSDOF 3
ENDMDL
MODEL 7
REMARK VINA RESULT:      -6.0      2.024      3.197
REMARK  3 active torsions:
REMARK  status: ('A' for Active; 'I' for Inactive)
REMARK    1  A    between atoms: C_6  and  C_7 
REMARK    2  A    between atoms: C_7  and  N_8 
REMARK       I    between atoms: N_8  and  C_9 
REMARK       I    between atoms: C_9  and  N_11 
REMARK    3  A    between atoms: N_11  and  C_12 
ROOT
HETATM    1  N   UNL     1     -40.550 -51.245  11.492  1.00  0.00    -0.340 N 
HETATM    2  C   UNL     1     -40.833 -49.906  11.610  1.00  0.00     0.321 C 
HETATM    3  O   UNL     1     -40.782 -49.316  12.684  1.00  0.00    -0.247 OA
HETATM    4  N   UNL     1     -41.141 -49.334  10.400  1.00  0.00    -0.295 N 
HETATM    5  H   UNL     1     -41.059 -51.739  10.767  1.00  0.00     0.164 HD
HETATM    6  H   UNL     1     -40.481 -49.566   9.672  1.00  0.00     0.172 HD
ENDROOT
BRANCH   1   7
HETATM    7  C   UNL     1     -40.205 -52.021  12.672  1.00  0.00     0.158 C 
BRANCH   7   8
HETATM    8  C   UNL     1     -41.416 -52.519  13.485  1.00  0.00     0.167 C 
HETATM    9  O   UNL     1     -41.267 -52.057  14.844  1.00  0.00    -0.381 OA
HETATM   10  C   UNL     1     -42.402 -52.440  15.633  1.00  0.00     0.198 C 
HETATM   11  C   UNL     1     -42.613 -53.964  15.621  1.00  0.00     0.298 C 
HETATM   12  N   UNL     1     -42.733 -54.545  14.272  1.00  0.00     0.088 N 
HETATM   13  C   UNL     1     -44.024 -54.267  13.651  1.00  0.00     0.310 C 
HETATM   14  C   UNL     1     -41.605 -54.055  13.447  1.00  0.00     0.305 C 
ENDBRANCH   7   8
ENDBRANCH   1   7
BRANCH   4  15
HETATM   15  C   UNL     1     -41.519 -47.988  10.355  1.00  0.00     0.109 A 
HETATM   16  C   UNL     1     -42.844 -47.630  10.131  1.00  0.00     0.049 A 
HETATM   17  C   UNL     1     -43.182 -46.285  10.174  1.00  0.00     0.006 A 
HETATM   18  C   UNL     1     -42.197 -45.350  10.468  1.00  0.00     0.025 A 
HETATM   19  C   UNL     1     -40.889 -45.793  10.659  1.00  0.00     0.007 A 
HETATM   20  C   UNL     1     -39.814 -44.837  11.077  1.00  0.00     0.068 C 
HETATM   21  N   UNL     1     -40.532 -47.096  10.558  1.00  0.00    -0.346 N 
ATOM     22  HN  UNL     1     -39.558 -47.388  10.633  1.00  0.00     0.167 HD
ENDBRANCH   4  15
TORSDOF 3
ENDMDL
MODEL 8
REMARK VINA RESULT:      -5.9      2.314      3.307
REMARK  3 active torsions:
REMARK  status: ('A' for Active; 'I' for Inactive)
REMARK    1  A    between atoms: C_6  and  C_7 
REMARK    2  A    between atoms: C_7  and  N_8 
REMARK       I    between atoms: N_8  and  C_9 
REMARK       I    between atoms: C_9  and  N_11 
REMARK    3  A    between atoms: N_11  and  C_12 
ROOT
HETATM    1  N   UNL     1     -39.246 -50.738  11.791  1.00  0.00    -0.340 N 
HETATM    2  C   UNL     1     -39.776 -49.471  11.775  1.00  0.00     0.321 C 
HETATM    3  O   UNL     1     -39.494 -48.630  12.622  1.00  0.00    -0.247 OA
HETATM    4  N   UNL     1     -40.611 -49.273  10.703  1.00  0.00    -0.295 N 
HETATM    5  H   UNL     1     -39.845 -51.468  11.422  1.00  0.00     0.164 HD
HETATM    6  H   UNL     1     -40.212 -49.577   9.827  1.00  0.00     0.172 HD
ENDROOT
BRANCH   1   7
HETATM    7  C   UNL     1     -38.340 -51.132  12.857  1.00  0.00     0.158 C 
BRANCH   7   8
HETATM    8  C   UNL     1     -38.907 -52.197  13.815  1.00  0.00     0.167 C 
HETATM    9  O   UNL     1     -39.696 -53.126  13.041  1.00  0.00    -0.381 OA
HETATM   10  C   UNL     1     -40.198 -54.178  13.877  1.00  0.00     0.198 C 
HETATM   11  C   UNL     1     -41.038 -53.627  15.041  1.00  0.00     0.298 C 
HETATM   12  N   UNL     1     -40.336 -52.632  15.872  1.00  0.00     0.088 N 
HETATM   13  C   UNL     1     -39.340 -53.234  16.752  1.00  0.00     0.310 C 
HETATM   14  C   UNL     1     -39.741 -51.610  14.980  1.00  0.00     0.305 C 
ENDBRANCH   7   8
ENDBRANCH   1   7
BRANCH   4  15
HETATM   15  C   UNL     1     -41.286 -48.054  10.576  1.00  0.00     0.109 A 
HETATM   16  C   UNL     1     -42.676 -48.013  10.538  1.00  0.00     0.049 A 
HETATM   17  C   UNL     1     -43.299 -46.774  10.491  1.00  0.00     0.006 A 
HETATM   18  C   UNL     1     -42.520 -45.623  10.514  1.00  0.00     0.025 A 
HETATM   19  C   UNL     1     -41.132 -45.756  10.532  1.00  0.00     0.007 A 
HETATM   20  C   UNL     1     -40.253 -44.550  10.658  1.00  0.00     0.068 C 
HETATM   21  N   UNL     1     -40.508 -46.958  10.514  1.00  0.00    -0.346 N 
ATOM     22  HN  UNL     1     -39.492 -47.029  10.457  1.00  0.00     0.167 HD
ENDBRANCH   4  15
TORSDOF 3
ENDMDL
MODEL 9
REMARK VINA RESULT:      -5.7      2.088      2.948
REMARK  3 active torsions:
REMARK  status: ('A' for Active; 'I' for Inactive)
REMARK    1  A    between atoms: C_6  and  C_7 
REMARK    2  A    between atoms: C_7  and  N_8 
REMARK       I    between atoms: N_8  and  C_9 
REMARK       I    between atoms: C_9  and  N_11 
REMARK    3  A    between atoms: N_11  and  C_12 
ROOT
HETATM    1  N   UNL     1     -41.393 -51.263  12.462  1.00  0.00    -0.340 N 
HETATM    2  C   UNL     1     -41.897 -49.998  12.279  1.00  0.00     0.321 C 
HETATM    3  O   UNL     1     -42.531 -49.412  13.149  1.00  0.00    -0.247 OA
HETATM    4  N   UNL     1     -41.579 -49.488  11.044  1.00  0.00    -0.295 N 
HETATM    5  H   UNL     1     -41.341 -51.839  11.629  1.00  0.00     0.164 HD
HETATM    6  H   UNL     1     -40.603 -49.594  10.811  1.00  0.00     0.172 HD
ENDROOT
BRANCH   1   7
HETATM    7  C   UNL     1     -41.633 -51.966  13.711  1.00  0.00     0.158 C 
BRANCH   7   8
HETATM    8  C   UNL     1     -43.048 -52.561  13.847  1.00  0.00     0.167 C 
HETATM    9  O   UNL     1     -43.000 -53.619  14.828  1.00  0.00    -0.381 OA
HETATM   10  C   UNL     1     -44.309 -54.167  15.041  1.00  0.00     0.198 C 
HETATM   11  C   UNL     1     -44.922 -54.697  13.734  1.00  0.00     0.298 C 
HETATM   12  N   UNL     1     -44.976 -53.702  12.647  1.00  0.00     0.088 N 
HETATM   13  C   UNL     1     -46.025 -52.708  12.846  1.00  0.00     0.310 C 
HETATM   14  C   UNL     1     -43.640 -53.079  12.513  1.00  0.00     0.305 C 
ENDBRANCH   7   8
ENDBRANCH   1   7
BRANCH   4  15
HETATM   15  C   UNL     1     -42.074 -48.233  10.673  1.00  0.00     0.109 A 
HETATM   16  C   UNL     1     -41.259 -47.107  10.717  1.00  0.00     0.049 A 
HETATM   17  C   UNL     1     -41.773 -45.901  10.263  1.00  0.00     0.006 A 
HETATM   18  C   UNL     1     -43.066 -45.866   9.754  1.00  0.00     0.025 A 
HETATM   19  C   UNL     1     -43.821 -47.037   9.765  1.00  0.00     0.007 A 
HETATM   20  C   UNL     1     -45.181 -47.074   9.138  1.00  0.00     0.068 C 
HETATM   21  N   UNL     1     -43.355 -48.208  10.263  1.00  0.00    -0.346 N 
ATOM     22  HN  UNL     1     -43.950 -49.034  10.325  1.00  0.00     0.167 HD
ENDBRANCH   4  15
TORSDOF 3
ENDMDL
