MODEL 1
REMARK VINA RESULT:      -6.2      0.000      0.000
REMARK  4 active torsions:
REMARK  status: ('A' for Active; 'I' for Inactive)
REMARK    1  A    between atoms: C_2  and  C_5 
REMARK       I    between atoms: C_5  and  N_7 
REMARK    2  A    between atoms: N_7  and  C_8 
REMARK    3  A    between atoms: C_8  and  C_9 
REMARK    4  A    between atoms: C_12  and  N_16 
ROOT
HETATM    1  C   UNL     1     -42.307 -50.035  12.371  1.00  0.00    -0.025 A 
HETATM    2  C   UNL     1     -43.397 -49.791  13.197  1.00  0.00     0.014 A 
HETATM    3  C   UNL     1     -43.914 -50.821  13.987  1.00  0.00     0.049 A 
HETATM    4  C   UNL     1     -43.349 -52.097  13.957  1.00  0.00     0.103 A 
HETATM    5  N   UNL     1     -42.308 -52.342  13.130  1.00  0.00    -0.352 N 
ATOM      6  HN  UNL     1     -41.898 -53.275  13.077  1.00  0.00     0.166 HD
HETATM    7  C   UNL     1     -41.816 -51.331  12.370  1.00  0.00     0.098 A 
ENDROOT
BRANCH   1   8
HETATM    8  C   UNL     1     -41.698 -48.958  11.526  1.00  0.00     0.162 C 
BRANCH   8   9
HETATM    9  N   UNL     1     -42.542 -48.574  10.416  1.00  0.00    -0.356 N 
HETATM   10  C   UNL     1     -43.237 -47.383  10.456  1.00  0.00     0.225 C 
HETATM   11  O   UNL     1     -43.169 -46.633  11.429  1.00  0.00    -0.273 OA
HETATM   12  H   UNL     1     -42.612 -49.188   9.618  1.00  0.00     0.162 HD
BRANCH  10  13
HETATM   13  C   UNL     1     -44.089 -47.059   9.213  1.00  0.00     0.030 C 
HETATM   14  C   UNL     1     -45.534 -47.543   9.439  1.00  0.00     0.024 C 
HETATM   15  C   UNL     1     -43.521 -47.776   7.979  1.00  0.00     0.024 C 
HETATM   16  C   UNL     1     -44.113 -45.542   8.981  1.00  0.00     0.024 C 
ENDBRANCH  10  13
ENDBRANCH   8   9
ENDBRANCH   1   8
BRANCH   4  17
HETATM   17  N   UNL     1     -43.880 -53.137  14.699  1.00  0.00    -0.363 N 
HETATM   18  C   UNL     1     -43.838 -54.532  14.236  1.00  0.00     0.150 C 
HETATM   19  C   UNL     1     -45.237 -55.017  13.818  1.00  0.00     0.187 C 
HETATM   20  O   UNL     1     -46.202 -54.819  14.861  1.00  0.00    -0.388 OA
HETATM   21  C   UNL     1     -46.301 -53.418  15.176  1.00  0.00     0.187 C 
HETATM   22  C   UNL     1     -44.957 -52.858  15.664  1.00  0.00     0.150 C 
ENDBRANCH   4  17
TORSDOF 4
ENDMDL
MODEL 2
REMARK VINA RESULT:      -5.8      2.448      7.520
REMARK  4 active torsions:
REMARK  status: ('A' for Active; 'I' for Inactive)
REMARK    1  A    between atoms: C_2  and  C_5 
REMARK       I    between atoms: C_5  and  N_7 
REMARK    2  A    between atoms: N_7  and  C_8 
REMARK    3  A    between atoms: C_8  and  C_9 
REMARK    4  A    between atoms: C_12  and  N_16 
ROOT
HETATM    1  C   UNL     1     -42.190 -49.773  12.200  1.00  0.00    -0.025 A 
HETATM    2  C   UNL     1     -43.136 -48.765  12.334  1.00  0.00     0.014 A 
HETATM    3  C   UNL     1     -42.939 -47.539  11.692  1.00  0.00     0.049 A 
HETATM    4  C   UNL     1     -41.800 -47.312  10.917  1.00  0.00     0.103 A 
HETATM    5  N   UNL     1     -40.865 -48.283  10.813  1.00  0.00    -0.352 N 
ATOM      6  HN  UNL     1     -40.015 -48.126  10.271  1.00  0.00     0.166 HD
HETATM    7  C   UNL     1     -41.071 -49.469  11.441  1.00  0.00     0.098 A 
ENDROOT
BRANCH   1   8
HETATM    8  C   UNL     1     -42.367 -51.115  12.845  1.00  0.00     0.162 C 
BRANCH   8   9
HETATM    9  N   UNL     1     -43.738 -51.573  12.814  1.00  0.00    -0.356 N 
HETATM   10  C   UNL     1     -44.509 -51.526  13.957  1.00  0.00     0.225 C 
HETATM   11  O   UNL     1     -44.052 -51.111  15.022  1.00  0.00    -0.273 OA
HETATM   12  H   UNL     1     -44.118 -51.926  11.947  1.00  0.00     0.162 HD
BRANCH  10  13
HETATM   13  C   UNL     1     -45.962 -52.017  13.810  1.00  0.00     0.030 C 
HETATM   14  C   UNL     1     -46.522 -51.569  12.447  1.00  0.00     0.024 C 
HETATM   15  C   UNL     1     -46.839 -51.417  14.919  1.00  0.00     0.024 C 
HETATM   16  C   UNL     1     -46.002 -53.550  13.875  1.00  0.00     0.024 C 
ENDBRANCH  10  13
ENDBRANCH   8   9
ENDBRANCH   1   8
BRANCH   4  17
HETATM   17  N   UNL     1     -41.572 -46.088  10.315  1.00  0.00    -0.363 N 
HETATM   18  C   UNL     1     -40.242 -45.460  10.296  1.00  0.00     0.150 C 
HETATM   19  C   UNL     1     -40.194 -44.242  11.234  1.00  0.00     0.187 C 
HETATM   20  O   UNL     1     -41.243 -43.306  10.946  1.00  0.00    -0.388 OA
HETATM   21  C   UNL     1     -42.523 -43.939  11.116  1.00  0.00     0.187 C 
HETATM   22  C   UNL     1     -42.686 -45.136  10.169  1.00  0.00     0.150 C 
ENDBRANCH   4  17
TORSDOF 4
ENDMDL
MODEL 3
REMARK VINA RESULT:      -5.8      4.504      5.568
REMARK  4 active torsions:
REMARK  status: ('A' for Active; 'I' for Inactive)
REMARK    1  A    between atoms: C_2  and  C_5 
REMARK       I    between atoms: C_5  and  N_7 
REMARK    2  A    between atoms: N_7  and  C_8 
REMARK    3  A    between atoms: C_8  and  C_9 
REMARK    4  A    between atoms: C_12  and  N_16 
ROOT
HETATM    1  C   UNL     1     -40.606 -53.694  13.816  1.00  0.00    -0.025 A 
HETATM    2  C   UNL     1     -41.402 -54.355  14.742  1.00  0.00     0.014 A 
HETATM    3  C   UNL     1     -42.772 -54.496  14.504  1.00  0.00     0.049 A 
HETATM    4  C   UNL     1     -43.354 -53.979  13.345  1.00  0.00     0.103 A 
HETATM    5  N   UNL     1     -42.583 -53.308  12.459  1.00  0.00    -0.352 N 
ATOM      6  HN  UNL     1     -42.996 -52.902  11.619  1.00  0.00     0.166 HD
HETATM    7  C   UNL     1     -41.254 -53.181  12.703  1.00  0.00     0.098 A 
ENDROOT
BRANCH   1   8
HETATM    8  C   UNL     1     -39.127 -53.540  14.010  1.00  0.00     0.162 C 
BRANCH   8   9
HETATM    9  N   UNL     1     -38.770 -52.267  14.595  1.00  0.00    -0.356 N 
HETATM   10  C   UNL     1     -38.274 -51.255  13.800  1.00  0.00     0.225 C 
HETATM   11  O   UNL     1     -38.113 -51.410  12.590  1.00  0.00    -0.273 OA
HETATM   12  H   UNL     1     -38.889 -52.133  15.589  1.00  0.00     0.162 HD
BRANCH  10  13
HETATM   13  C   UNL     1     -37.946 -49.932  14.520  1.00  0.00     0.030 C 
HETATM   14  C   UNL     1     -39.111 -49.550  15.452  1.00  0.00     0.024 C 
HETATM   15  C   UNL     1     -37.753 -48.805  13.494  1.00  0.00     0.024 C 
HETATM   16  C   UNL     1     -36.677 -50.102  15.366  1.00  0.00     0.024 C 
ENDBRANCH  10  13
ENDBRANCH   8   9
ENDBRANCH   1   8
BRANCH   4  17
HETATM   17  N   UNL     1     -44.715 -54.072  13.121  1.00  0.00    -0.363 N 
HETATM   18  C   UNL     1     -45.516 -52.922  12.674  1.00  0.00     0.150 C 
HETATM   19  C   UNL     1     -46.426 -52.412  13.805  1.00  0.00     0.187 C 
HETATM   20  O   UNL     1     -47.238 -53.462  14.351  1.00  0.00    -0.388 OA
HETATM   21  C   UNL     1     -46.398 -54.495  14.897  1.00  0.00     0.187 C 
HETATM   22  C   UNL     1     -45.493 -55.109  13.820  1.00  0.00     0.150 C 
ENDBRANCH   4  17
TORSDOF 4
ENDMDL
MODEL 4
REMARK VINA RESULT:      -5.8      1.663      7.407
REMARK  4 active torsions:
REMARK  status: ('A' for Active; 'I' for Inactive)
REMARK    1  A    between atoms: C_2  and  C_5 
REMARK       I    between atoms: C_5  and  N_7 
REMARK    2  A    between atoms: N_7  and  C_8 
REMARK    3  A    between atoms: C_8  and  C_9 
REMARK    4  A    between atoms: C_12  and  N_16 
ROOT
HETATM    1  C   UNL     1     -42.077 -50.278  12.608  1.00  0.00    -0.025 A 
HETATM    2  C   UNL     1     -43.083 -49.325  12.697  1.00  0.00     0.014 A 
HETATM    3  C   UNL     1     -43.147 -48.293  11.756  1.00  0.00     0.049 A 
HETATM    4  C   UNL     1     -42.211 -48.207  10.724  1.00  0.00     0.103 A 
HETATM    5  N   UNL     1     -41.213 -49.118  10.656  1.00  0.00    -0.352 N 
ATOM      6  HN  UNL     1     -40.506 -49.056   9.924  1.00  0.00     0.166 HD
HETATM    7  C   UNL     1     -41.165 -50.115  11.577  1.00  0.00     0.098 A 
ENDROOT
BRANCH   1   8
HETATM    8  C   UNL     1     -41.980 -51.419  13.575  1.00  0.00     0.162 C 
BRANCH   8   9
HETATM    9  N   UNL     1     -43.274 -51.909  13.993  1.00  0.00    -0.356 N 
HETATM   10  C   UNL     1     -43.708 -53.153  13.583  1.00  0.00     0.225 C 
HETATM   11  O   UNL     1     -43.020 -53.863  12.851  1.00  0.00    -0.273 OA
HETATM   12  H   UNL     1     -43.851 -51.329  14.585  1.00  0.00     0.162 HD
BRANCH  10  13
HETATM   13  C   UNL     1     -45.092 -53.588  14.103  1.00  0.00     0.030 C 
HETATM   14  C   UNL     1     -45.134 -53.448  15.636  1.00  0.00     0.024 C 
HETATM   15  C   UNL     1     -45.355 -55.057  13.740  1.00  0.00     0.024 C 
HETATM   16  C   UNL     1     -46.180 -52.690  13.499  1.00  0.00     0.024 C 
ENDBRANCH  10  13
ENDBRANCH   8   9
ENDBRANCH   1   8
BRANCH   4  17
HETATM   17  N   UNL     1     -42.237 -47.166   9.814  1.00  0.00    -0.363 N 
HETATM   18  C   UNL     1     -41.753 -45.819  10.151  1.00  0.00     0.150 C 
HETATM   19  C   UNL     1     -42.923 -44.830  10.286  1.00  0.00     0.187 C 
HETATM   20  O   UNL     1     -43.760 -44.832   9.119  1.00  0.00    -0.388 OA
HETATM   21  C   UNL     1     -44.316 -46.144   8.920  1.00  0.00     0.187 C 
HETATM   22  C   UNL     1     -43.215 -47.194   8.713  1.00  0.00     0.150 C 
ENDBRANCH   4  17
TORSDOF 4
ENDMDL
MODEL 5
REMARK VINA RESULT:      -5.6      2.429      3.175
REMARK  4 active torsions:
REMARK  status: ('A' for Active; 'I' for Inactive)
REMARK    1  A    between atoms: C_2  and  C_5 
REMARK       I    between atoms: C_5  and  N_7 
REMARK    2  A    between atoms: N_7  and  C_8 
REMARK    3  A    between atoms: C_8  and  C_9 
REMARK    4  A    between atoms: C_12  and  N_16 
ROOT
HETATM    1  C   UNL     1     -40.752 -48.839  11.736  1.00  0.00    -0.025 A 
HETATM    2  C   UNL     1     -40.890 -49.135  13.086  1.00  0.00     0.014 A 
HETATM    3  C   UNL     1     -40.786 -50.459  13.520  1.00  0.00     0.049 A 
HETATM    4  C   UNL     1     -40.546 -51.492  12.613  1.00  0.00     0.103 A 
HETATM    5  N   UNL     1     -40.442 -51.207  11.295  1.00  0.00    -0.352 N 
ATOM      6  HN  UNL     1     -40.290 -51.952  10.616  1.00  0.00     0.166 HD
HETATM    7  C   UNL     1     -40.543 -49.915  10.889  1.00  0.00     0.098 A 
ENDROOT
BRANCH   1   8
HETATM    8  C   UNL     1     -40.827 -47.432  11.223  1.00  0.00     0.162 C 
BRANCH   8   9
HETATM    9  N   UNL     1     -41.785 -47.279  10.151  1.00  0.00    -0.356 N 
HETATM   10  C   UNL     1     -43.134 -47.216  10.432  1.00  0.00     0.225 C 
HETATM   11  O   UNL     1     -43.553 -47.301  11.586  1.00  0.00    -0.273 OA
HETATM   12  H   UNL     1     -41.451 -47.220   9.199  1.00  0.00     0.162 HD
BRANCH  10  13
HETATM   13  C   UNL     1     -44.067 -47.030   9.220  1.00  0.00     0.030 C 
HETATM   14  C   UNL     1     -43.469 -47.747   7.995  1.00  0.00     0.024 C 
HETATM   15  C   UNL     1     -44.214 -45.538   8.888  1.00  0.00     0.024 C 
HETATM   16  C   UNL     1     -45.442 -47.643   9.523  1.00  0.00     0.024 C 
ENDBRANCH  10  13
ENDBRANCH   8   9
ENDBRANCH   1   8
BRANCH   4  17
HETATM   17  N   UNL     1     -40.486 -52.812  13.024  1.00  0.00    -0.363 N 
HETATM   18  C   UNL     1     -41.665 -53.691  13.008  1.00  0.00     0.150 C 
HETATM   19  C   UNL     1     -42.157 -53.978  14.437  1.00  0.00     0.187 C 
HETATM   20  O   UNL     1     -41.107 -54.491  15.270  1.00  0.00    -0.388 OA
HETATM   21  C   UNL     1     -40.042 -53.528  15.360  1.00  0.00     0.187 C 
HETATM   22  C   UNL     1     -39.443 -53.224  13.979  1.00  0.00     0.150 C 
ENDBRANCH   4  17
TORSDOF 4
ENDMDL
MODEL 6
REMARK VINA RESULT:      -5.6      4.646      7.938
REMARK  4 active torsions:
REMARK  status: ('A' for Active; 'I' for Inactive)
REMARK    1  A    between atoms: C_2  and  C_5 
REMARK       I    between atoms: C_5  and  N_7 
REMARK    2  A    between atoms: N_7  and  C_8 
REMARK    3  A    between atoms: C_8  and  C_9 
REMARK    4  A    between atoms: C_12  and  N_16 
ROOT
HETATM    1  C   UNL     1     -40.513 -54.184  13.943  1.00  0.00    -0.025 A 
HETATM    2  C   UNL     1     -41.405 -54.644  14.903  1.00  0.00     0.014 A 
HETATM    3  C   UNL     1     -42.777 -54.630  14.639  1.00  0.00     0.049 A 
HETATM    4  C   UNL     1     -43.266 -54.158  13.420  1.00  0.00     0.103 A 
HETATM    5  N   UNL     1     -42.400 -53.680  12.498  1.00  0.00    -0.352 N 
ATOM      6  HN  UNL     1     -42.741 -53.309  11.612  1.00  0.00     0.166 HD
HETATM    7  C   UNL     1     -41.069 -53.702  12.768  1.00  0.00     0.098 A 
ENDROOT
BRANCH   1   8
HETATM    8  C   UNL     1     -39.031 -54.203  14.166  1.00  0.00     0.162 C 
BRANCH   8   9
HETATM    9  N   UNL     1     -38.638 -55.095  15.234  1.00  0.00    -0.356 N 
HETATM   10  C   UNL     1     -38.378 -54.595  16.492  1.00  0.00     0.225 C 
HETATM   11  O   UNL     1     -38.459 -53.391  16.734  1.00  0.00    -0.273 OA
HETATM   12  H   UNL     1     -38.558 -56.084  15.043  1.00  0.00     0.162 HD
BRANCH  10  13
HETATM   13  C   UNL     1     -37.988 -55.633  17.563  1.00  0.00     0.030 C 
HETATM   14  C   UNL     1     -38.248 -55.049  18.964  1.00  0.00     0.024 C 
HETATM   15  C   UNL     1     -36.497 -55.980  17.447  1.00  0.00     0.024 C 
HETATM   16  C   UNL     1     -38.841 -56.899  17.394  1.00  0.00     0.024 C 
ENDBRANCH  10  13
ENDBRANCH   8   9
ENDBRANCH   1   8
BRANCH   4  17
HETATM   17  N   UNL     1     -44.624 -54.096  13.164  1.00  0.00    -0.363 N 
HETATM   18  C   UNL     1     -45.284 -52.857  12.727  1.00  0.00     0.150 C 
HETATM   19  C   UNL     1     -46.159 -52.272  13.850  1.00  0.00     0.187 C 
HETATM   20  O   UNL     1     -47.093 -53.238  14.354  1.00  0.00    -0.388 OA
HETATM   21  C   UNL     1     -46.384 -54.367  14.895  1.00  0.00     0.187 C 
HETATM   22  C   UNL     1     -45.527 -55.055  13.824  1.00  0.00     0.150 C 
ENDBRANCH   4  17
TORSDOF 4
ENDMDL
MODEL 7
REMARK VINA RESULT:      -5.5      1.723      2.453
REMARK  4 active torsions:
REMARK  status: ('A' for Active; 'I' for Inactive)
REMARK    1  A    between atoms: C_2  and  C_5 
REMARK       I    between atoms: C_5  and  N_7 
REMARK    2  A    between atoms: N_7  and  C_8 
REMARK    3  A    between atoms: C_8  and  C_9 
REMARK    4  A    between atoms: C_12  and  N_16 
ROOT
HETATM    1  C   UNL     1     -41.356 -51.702  12.286  1.00  0.00    -0.025 A 
HETATM    2  C   UNL     1     -40.941 -53.022  12.404  1.00  0.00     0.014 A 
HETATM    3  C   UNL     1     -41.751 -53.947  13.069  1.00  0.00     0.049 A 
HETATM    4  C   UNL     1     -42.974 -53.561  13.619  1.00  0.00     0.103 A 
HETATM    5  N   UNL     1     -43.363 -52.269  13.531  1.00  0.00    -0.352 N 
ATOM      6  HN  UNL     1     -44.242 -51.964  13.948  1.00  0.00     0.166 HD
HETATM    7  C   UNL     1     -42.567 -51.382  12.880  1.00  0.00     0.098 A 
ENDROOT
BRANCH   1   8
HETATM    8  C   UNL     1     -40.539 -50.677  11.558  1.00  0.00     0.162 C 
BRANCH   8   9
HETATM    9  N   UNL     1     -41.330 -49.562  11.087  1.00  0.00    -0.356 N 
HETATM   10  C   UNL     1     -41.007 -48.276  11.465  1.00  0.00     0.225 C 
HETATM   11  O   UNL     1     -40.058 -48.047  12.214  1.00  0.00    -0.273 OA
HETATM   12  H   UNL     1     -42.118 -49.741  10.480  1.00  0.00     0.162 HD
BRANCH  10  13
HETATM   13  C   UNL     1     -41.900 -47.160  10.890  1.00  0.00     0.030 C 
HETATM   14  C   UNL     1     -42.881 -46.675  11.974  1.00  0.00     0.024 C 
HETATM   15  C   UNL     1     -42.712 -47.692   9.700  1.00  0.00     0.024 C 
HETATM   16  C   UNL     1     -41.031 -45.973  10.450  1.00  0.00     0.024 C 
ENDBRANCH  10  13
ENDBRANCH   8   9
ENDBRANCH   1   8
BRANCH   4  17
HETATM   17  N   UNL     1     -43.763 -54.456  14.320  1.00  0.00    -0.363 N 
HETATM   18  C   UNL     1     -45.065 -54.916  13.813  1.00  0.00     0.150 C 
HETATM   19  C   UNL     1     -46.219 -54.308  14.629  1.00  0.00     0.187 C 
HETATM   20  O   UNL     1     -46.064 -54.552  16.035  1.00  0.00    -0.388 OA
HETATM   21  C   UNL     1     -44.840 -53.959  16.502  1.00  0.00     0.187 C 
HETATM   22  C   UNL     1     -43.620 -54.553  15.782  1.00  0.00     0.150 C 
ENDBRANCH   4  17
TORSDOF 4
ENDMDL
MODEL 8
REMARK VINA RESULT:      -5.5      3.594      4.643
REMARK  4 active torsions:
REMARK  status: ('A' for Active; 'I' for Inactive)
REMARK    1  A    between atoms: C_2  and  C_5 
REMARK       I    between atoms: C_5  and  N_7 
REMARK    2  A    between atoms: N_7  and  C_8 
REMARK    3  A    between atoms: C_8  and  C_9 
REMARK    4  A    between atoms: C_12  and  N_16 
ROOT
HETATM    1  C   UNL     1     -42.118 -53.280  13.008  1.00  0.00    -0.025 A 
HETATM    2  C   UNL     1     -42.335 -54.322  13.900  1.00  0.00     0.014 A 
HETATM    3  C   UNL     1     -43.549 -54.405  14.588  1.00  0.00     0.049 A 
HETATM    4  C   UNL     1     -44.549 -53.451  14.392  1.00  0.00     0.103 A 
HETATM    5  N   UNL     1     -44.324 -52.419  13.546  1.00  0.00    -0.352 N 
ATOM      6  HN  UNL     1     -45.034 -51.700  13.409  1.00  0.00     0.166 HD
HETATM    7  C   UNL     1     -43.141 -52.354  12.884  1.00  0.00     0.098 A 
ENDROOT
BRANCH   1   8
HETATM    8  C   UNL     1     -40.846 -53.162  12.224  1.00  0.00     0.162 C 
BRANCH   8   9
HETATM    9  N   UNL     1     -40.450 -51.788  12.005  1.00  0.00    -0.356 N 
HETATM   10  C   UNL     1     -39.303 -51.297  12.593  1.00  0.00     0.225 C 
HETATM   11  O   UNL     1     -38.603 -52.001  13.320  1.00  0.00    -0.273 OA
HETATM   12  H   UNL     1     -41.024 -51.200  11.419  1.00  0.00     0.162 HD
BRANCH  10  13
HETATM   13  C   UNL     1     -38.960 -49.828  12.277  1.00  0.00     0.030 C 
HETATM   14  C   UNL     1     -40.122 -49.184  11.498  1.00  0.00     0.024 C 
HETATM   15  C   UNL     1     -37.693 -49.754  11.413  1.00  0.00     0.024 C 
HETATM   16  C   UNL     1     -38.757 -49.049  13.584  1.00  0.00     0.024 C 
ENDBRANCH  10  13
ENDBRANCH   8   9
ENDBRANCH   1   8
BRANCH   4  17
HETATM   17  N   UNL     1     -45.736 -53.496  15.101  1.00  0.00    -0.363 N 
HETATM   18  C   UNL     1     -46.910 -52.698  14.715  1.00  0.00     0.150 C 
HETATM   19  C   UNL     1     -47.147 -51.550  15.712  1.00  0.00     0.187 C 
HETATM   20  O   UNL     1     -47.233 -52.027  17.063  1.00  0.00    -0.388 OA
HETATM   21  C   UNL     1     -46.003 -52.677  17.430  1.00  0.00     0.187 C 
HETATM   22  C   UNL     1     -45.713 -53.881  16.522  1.00  0.00     0.150 C 
ENDBRANCH   4  17
TORSDOF 4
ENDMDL
MODEL 9
REMARK VINA RESULT:      -5.3      3.892      6.903
REMARK  4 active torsions:
REMARK  status: ('A' for Active; 'I' for Inactive)
REMARK    1  A    between atoms: C_2  and  C_5 
REMARK       I    between atoms: C_5  and  N_7 
REMARK    2  A    between atoms: N_7  and  C_8 
REMARK    3  A    between atoms: C_8  and  C_9 
REMARK    4  A    between atoms: C_12  and  N_16 
ROOT
HETATM    1  C   UNL     1     -41.851 -53.183  12.955  1.00  0.00    -0.025 A 
HETATM    2  C   UNL     1     -40.887 -53.195  13.955  1.00  0.00     0.014 A 
HETATM    3  C   UNL     1     -39.808 -52.309  13.889  1.00  0.00     0.049 A 
HETATM    4  C   UNL     1     -39.685 -51.410  12.828  1.00  0.00     0.103 A 
HETATM    5  N   UNL     1     -40.607 -51.421  11.839  1.00  0.00    -0.352 N 
ATOM      6  HN  UNL     1     -40.520 -50.788  11.044  1.00  0.00     0.166 HD
HETATM    7  C   UNL     1     -41.651 -52.286  11.918  1.00  0.00     0.098 A 
ENDROOT
BRANCH   1   8
HETATM    8  C   UNL     1     -43.042 -54.093  12.993  1.00  0.00     0.162 C 
BRANCH   8   9
HETATM    9  N   UNL     1     -44.290 -53.376  13.128  1.00  0.00    -0.356 N 
HETATM   10  C   UNL     1     -44.752 -53.022  14.378  1.00  0.00     0.225 C 
HETATM   11  O   UNL     1     -44.130 -53.316  15.399  1.00  0.00    -0.273 OA
HETATM   12  H   UNL     1     -44.813 -53.140  12.297  1.00  0.00     0.162 HD
BRANCH  10  13
HETATM   13  C   UNL     1     -46.080 -52.241  14.410  1.00  0.00     0.030 C 
HETATM   14  C   UNL     1     -47.231 -53.195  14.780  1.00  0.00     0.024 C 
HETATM   15  C   UNL     1     -46.372 -51.637  13.028  1.00  0.00     0.024 C 
HETATM   16  C   UNL     1     -46.005 -51.131  15.468  1.00  0.00     0.024 C 
ENDBRANCH  10  13
ENDBRANCH   8   9
ENDBRANCH   1   8
BRANCH   4  17
HETATM   17  N   UNL     1     -38.598 -50.560  12.728  1.00  0.00    -0.363 N 
HETATM   18  C   UNL     1     -37.446 -50.651  13.638  1.00  0.00     0.150 C 
HETATM   19  C   UNL     1     -37.422 -49.463  14.616  1.00  0.00     0.187 C 
HETATM   20  O   UNL     1     -37.475 -48.205  13.928  1.00  0.00    -0.388 OA
HETATM   21  C   UNL     1     -38.691 -48.117  13.164  1.00  0.00     0.187 C 
HETATM   22  C   UNL     1     -38.774 -49.233  12.113  1.00  0.00     0.150 C 
ENDBRANCH   4  17
TORSDOF 4
ENDMDL
