MODEL 1
REMARK VINA RESULT:      -6.2      0.000      0.000
REMARK  3 active torsions:
REMARK  status: ('A' for Active; 'I' for Inactive)
REMARK    1  A    between atoms: C_2  and  N_3 
REMARK    2  A    between atoms: C_2  and  C_14 
REMARK       I    between atoms: N_3  and  C_4 
REMARK       I    between atoms: C_4  and  N_6 
REMARK    3  A    between atoms: N_6  and  C_7 
REMARK       I    between atoms: C_14  and  N_16 
ROOT
HETATM    1  N   UNL     1     -42.076 -51.609  11.916  1.00  0.00    -0.330 N 
HETATM    2  C   UNL     1     -41.902 -50.260  12.131  1.00  0.00     0.321 C 
HETATM    3  O   UNL     1     -42.013 -49.777  13.252  1.00  0.00    -0.247 OA
HETATM    4  N   UNL     1     -41.593 -49.580  10.977  1.00  0.00    -0.309 N 
HETATM    5  H   UNL     1     -42.345 -51.914  10.993  1.00  0.00     0.165 HD
HETATM    6  H   UNL     1     -41.460 -50.139  10.149  1.00  0.00     0.170 HD
ENDROOT
BRANCH   1   7
HETATM    7  C   UNL     1     -42.426 -52.495  13.030  1.00  0.00     0.174 C 
HETATM    8  C   UNL     1     -41.551 -53.744  12.974  1.00  0.00     0.042 C 
BRANCH   7   9
HETATM    9  C   UNL     1     -43.926 -52.842  12.923  1.00  0.00     0.242 C 
HETATM   10  O   UNL     1     -44.316 -53.783  12.229  1.00  0.00    -0.271 OA
HETATM   11  N   UNL     1     -44.824 -52.013  13.569  1.00  0.00    -0.350 N 
HETATM   12  C   UNL     1     -46.253 -52.182  13.367  1.00  0.00     0.126 C 
HETATM   13  C   UNL     1     -44.556 -51.168  14.725  1.00  0.00     0.126 C 
HETATM   14  C   UNL     1     -46.920 -51.401  14.492  1.00  0.00     0.021 C 
HETATM   15  C   UNL     1     -45.830 -51.288  15.549  1.00  0.00     0.021 C 
ENDBRANCH   7   9
ENDBRANCH   1   7
BRANCH   4  16
HETATM   16  C   UNL     1     -41.354 -48.192  10.861  1.00  0.00     0.038 A 
HETATM   17  C   UNL     1     -40.194 -47.572  11.318  1.00  0.00     0.046 A 
HETATM   18  C   UNL     1     -40.062 -46.204  11.161  1.00  0.00     0.090 A 
HETATM   19  N   UNL     1     -40.997 -45.419  10.592  1.00  0.00    -0.375 N 
HETATM   20  C   UNL     1     -42.112 -46.038  10.153  1.00  0.00     0.090 A 
ATOM     21  HN  UNL     1     -40.869 -44.412  10.498  1.00  0.00     0.164 HD
HETATM   22  C   UNL     1     -42.335 -47.404  10.259  1.00  0.00     0.046 A 
ENDBRANCH   4  16
TORSDOF 3
ENDMDL
MODEL 2
REMARK VINA RESULT:      -5.8      2.322      3.270
REMARK  3 active torsions:
REMARK  status: ('A' for Active; 'I' for Inactive)
REMARK    1  A    between atoms: C_2  and  N_3 
REMARK    2  A    between atoms: C_2  and  C_14 
REMARK       I    between atoms: N_3  and  C_4 
REMARK       I    between atoms: C_4  and  N_6 
REMARK    3  A    between atoms: N_6  and  C_7 
REMARK       I    between atoms: C_14  and  N_16 
ROOT
HETATM    1  N   UNL     1     -41.232 -49.765  11.434  1.00  0.00    -0.330 N 
HETATM    2  C   UNL     1     -42.204 -48.792  11.369  1.00  0.00     0.321 C 
HETATM    3  O   UNL     1     -42.712 -48.335  12.386  1.00  0.00    -0.247 OA
HETATM    4  N   UNL     1     -42.494 -48.424  10.076  1.00  0.00    -0.309 N 
HETATM    5  H   UNL     1     -41.107 -50.368  10.635  1.00  0.00     0.165 HD
HETATM    6  H   UNL     1     -41.927 -48.841   9.354  1.00  0.00     0.170 HD
ENDROOT
BRANCH   1   7
HETATM    7  C   UNL     1     -40.802 -50.294  12.731  1.00  0.00     0.174 C 
HETATM    8  C   UNL     1     -39.335 -49.944  12.957  1.00  0.00     0.042 C 
BRANCH   7   9
HETATM    9  C   UNL     1     -41.034 -51.820  12.735  1.00  0.00     0.242 C 
HETATM   10  O   UNL     1     -40.195 -52.594  12.269  1.00  0.00    -0.271 OA
HETATM   11  N   UNL     1     -42.247 -52.284  13.207  1.00  0.00    -0.350 N 
HETATM   12  C   UNL     1     -42.595 -53.690  13.078  1.00  0.00     0.126 C 
HETATM   13  C   UNL     1     -43.132 -51.611  14.147  1.00  0.00     0.126 C 
HETATM   14  C   UNL     1     -43.769 -53.909  14.023  1.00  0.00     0.021 C 
HETATM   15  C   UNL     1     -43.663 -52.750  15.006  1.00  0.00     0.021 C 
ENDBRANCH   7   9
ENDBRANCH   1   7
BRANCH   4  16
HETATM   16  C   UNL     1     -43.441 -47.456   9.673  1.00  0.00     0.038 A 
HETATM   17  C   UNL     1     -43.113 -46.130   9.399  1.00  0.00     0.046 A 
HETATM   18  C   UNL     1     -44.117 -45.260   9.017  1.00  0.00     0.090 A 
HETATM   19  N   UNL     1     -45.412 -45.612   8.896  1.00  0.00    -0.375 N 
HETATM   20  C   UNL     1     -45.709 -46.900   9.163  1.00  0.00     0.090 A 
ATOM     21  HN  UNL     1     -46.128 -44.942   8.617  1.00  0.00     0.164 HD
HETATM   22  C   UNL     1     -44.773 -47.850   9.547  1.00  0.00     0.046 A 
ENDBRANCH   4  16
TORSDOF 3
ENDMDL
MODEL 3
REMARK VINA RESULT:      -5.8      2.353      7.033
REMARK  3 active torsions:
REMARK  status: ('A' for Active; 'I' for Inactive)
REMARK    1  A    between atoms: C_2  and  N_3 
REMARK    2  A    between atoms: C_2  and  C_14 
REMARK       I    between atoms: N_3  and  C_4 
REMARK       I    between atoms: C_4  and  N_6 
REMARK    3  A    between atoms: N_6  and  C_7 
REMARK       I    between atoms: C_14  and  N_16 
ROOT
HETATM    1  N   UNL     1     -43.409 -49.480  12.355  1.00  0.00    -0.330 N 
HETATM    2  C   UNL     1     -43.744 -50.525  13.187  1.00  0.00     0.321 C 
HETATM    3  O   UNL     1     -43.179 -50.687  14.262  1.00  0.00    -0.247 OA
HETATM    4  N   UNL     1     -44.752 -51.305  12.670  1.00  0.00    -0.309 N 
HETATM    5  H   UNL     1     -43.598 -49.576  11.369  1.00  0.00     0.165 HD
HETATM    6  H   UNL     1     -45.166 -50.989  11.807  1.00  0.00     0.170 HD
ENDROOT
BRANCH   1   7
HETATM    7  C   UNL     1     -42.342 -48.549  12.733  1.00  0.00     0.174 C 
HETATM    8  C   UNL     1     -42.863 -47.119  12.635  1.00  0.00     0.042 C 
BRANCH   7   9
HETATM    9  C   UNL     1     -41.137 -48.785  11.798  1.00  0.00     0.242 C 
HETATM   10  O   UNL     1     -41.216 -48.566  10.587  1.00  0.00    -0.271 OA
HETATM   11  N   UNL     1     -39.990 -49.322  12.352  1.00  0.00    -0.350 N 
HETATM   12  C   UNL     1     -38.885 -49.727  11.499  1.00  0.00     0.126 C 
HETATM   13  C   UNL     1     -39.573 -49.240  13.745  1.00  0.00     0.126 C 
HETATM   14  C   UNL     1     -37.690 -49.889  12.429  1.00  0.00     0.021 C 
HETATM   15  C   UNL     1     -38.065 -49.057  13.648  1.00  0.00     0.021 C 
ENDBRANCH   7   9
ENDBRANCH   1   7
BRANCH   4  16
HETATM   16  C   UNL     1     -45.322 -52.448  13.276  1.00  0.00     0.038 A 
HETATM   17  C   UNL     1     -44.838 -53.740  13.084  1.00  0.00     0.046 A 
HETATM   18  C   UNL     1     -45.472 -54.791  13.719  1.00  0.00     0.090 A 
HETATM   19  N   UNL     1     -46.547 -54.648  14.520  1.00  0.00    -0.375 N 
HETATM   20  C   UNL     1     -46.998 -53.389  14.696  1.00  0.00     0.090 A 
ATOM     21  HN  UNL     1     -46.993 -55.447  14.969  1.00  0.00     0.164 HD
HETATM   22  C   UNL     1     -46.427 -52.270  14.107  1.00  0.00     0.046 A 
ENDBRANCH   4  16
TORSDOF 3
ENDMDL
MODEL 4
REMARK VINA RESULT:      -5.7      3.186      6.796
REMARK  3 active torsions:
REMARK  status: ('A' for Active; 'I' for Inactive)
REMARK    1  A    between atoms: C_2  and  N_3 
REMARK    2  A    between atoms: C_2  and  C_14 
REMARK       I    between atoms: N_3  and  C_4 
REMARK       I    between atoms: C_4  and  N_6 
REMARK    3  A    between atoms: N_6  and  C_7 
REMARK       I    between atoms: C_14  and  N_16 
ROOT
HETATM    1  N   UNL     1     -42.244 -48.553  10.630  1.00  0.00    -0.330 N 
HETATM    2  C   UNL     1     -41.931 -49.369  11.693  1.00  0.00     0.321 C 
HETATM    3  O   UNL     1     -42.362 -49.140  12.817  1.00  0.00    -0.247 OA
HETATM    4  N   UNL     1     -41.125 -50.421  11.328  1.00  0.00    -0.309 N 
HETATM    5  H   UNL     1     -41.613 -48.533   9.842  1.00  0.00     0.165 HD
HETATM    6  H   UNL     1     -40.925 -50.512  10.345  1.00  0.00     0.170 HD
ENDROOT
BRANCH   1   7
HETATM    7  C   UNL     1     -43.083 -47.368  10.830  1.00  0.00     0.174 C 
HETATM    8  C   UNL     1     -44.380 -47.530  10.043  1.00  0.00     0.042 C 
BRANCH   7   9
HETATM    9  C   UNL     1     -42.289 -46.126  10.373  1.00  0.00     0.242 C 
HETATM   10  O   UNL     1     -42.463 -45.630   9.258  1.00  0.00    -0.271 OA
HETATM   11  N   UNL     1     -41.319 -45.634  11.228  1.00  0.00    -0.350 N 
HETATM   12  C   UNL     1     -40.422 -44.578  10.788  1.00  0.00     0.126 C 
HETATM   13  C   UNL     1     -41.269 -45.794  12.674  1.00  0.00     0.126 C 
HETATM   14  C   UNL     1     -39.784 -44.030  12.057  1.00  0.00     0.021 C 
HETATM   15  C   UNL     1     -40.750 -44.447  13.158  1.00  0.00     0.021 C 
ENDBRANCH   7   9
ENDBRANCH   1   7
BRANCH   4  16
HETATM   16  C   UNL     1     -40.631 -51.433  12.182  1.00  0.00     0.038 A 
HETATM   17  C   UNL     1     -39.564 -51.245  13.057  1.00  0.00     0.046 A 
HETATM   18  C   UNL     1     -39.154 -52.304  13.847  1.00  0.00     0.090 A 
HETATM   19  N   UNL     1     -39.722 -53.526  13.821  1.00  0.00    -0.375 N 
HETATM   20  C   UNL     1     -40.755 -53.687  12.969  1.00  0.00     0.090 A 
ATOM     21  HN  UNL     1     -39.390 -54.286  14.414  1.00  0.00     0.164 HD
HETATM   22  C   UNL     1     -41.243 -52.686  12.141  1.00  0.00     0.046 A 
ENDBRANCH   4  16
TORSDOF 3
ENDMDL
MODEL 5
REMARK VINA RESULT:      -5.3      2.838      3.469
REMARK  3 active torsions:
REMARK  status: ('A' for Active; 'I' for Inactive)
REMARK    1  A    between atoms: C_2  and  N_3 
REMARK    2  A    between atoms: C_2  and  C_14 
REMARK       I    between atoms: N_3  and  C_4 
REMARK       I    between atoms: C_4  and  N_6 
REMARK    3  A    between atoms: N_6  and  C_7 
REMARK       I    between atoms: C_14  and  N_16 
ROOT
HETATM    1  N   UNL     1     -41.995 -53.925  14.200  1.00  0.00    -0.330 N 
HETATM    2  C   UNL     1     -41.213 -52.793  14.260  1.00  0.00     0.321 C 
HETATM    3  O   UNL     1     -41.237 -52.057  15.239  1.00  0.00    -0.247 OA
HETATM    4  N   UNL     1     -40.440 -52.629  13.135  1.00  0.00    -0.309 N 
HETATM    5  H   UNL     1     -42.239 -54.289  13.291  1.00  0.00     0.165 HD
HETATM    6  H   UNL     1     -40.479 -53.370  12.453  1.00  0.00     0.170 HD
ENDROOT
BRANCH   1   7
HETATM    7  C   UNL     1     -42.899 -54.257  15.305  1.00  0.00     0.174 C 
HETATM    8  C   UNL     1     -42.511 -55.615  15.883  1.00  0.00     0.042 C 
BRANCH   7   9
HETATM    9  C   UNL     1     -44.346 -54.257  14.768  1.00  0.00     0.242 C 
HETATM   10  O   UNL     1     -44.894 -55.301  14.409  1.00  0.00    -0.271 OA
HETATM   11  N   UNL     1     -44.979 -53.036  14.628  1.00  0.00    -0.350 N 
HETATM   12  C   UNL     1     -46.271 -52.951  13.970  1.00  0.00     0.126 C 
HETATM   13  C   UNL     1     -44.685 -51.812  15.362  1.00  0.00     0.126 C 
HETATM   14  C   UNL     1     -46.829 -51.583  14.338  1.00  0.00     0.021 C 
HETATM   15  C   UNL     1     -46.061 -51.206  15.598  1.00  0.00     0.021 C 
ENDBRANCH   7   9
ENDBRANCH   1   7
BRANCH   4  16
HETATM   16  C   UNL     1     -39.533 -51.574  12.888  1.00  0.00     0.038 A 
HETATM   17  C   UNL     1     -38.262 -51.507  13.452  1.00  0.00     0.046 A 
HETATM   18  C   UNL     1     -37.454 -50.426  13.150  1.00  0.00     0.090 A 
HETATM   19  N   UNL     1     -37.822 -49.415  12.339  1.00  0.00    -0.375 N 
HETATM   20  C   UNL     1     -39.056 -49.500  11.800  1.00  0.00     0.090 A 
ATOM     21  HN  UNL     1     -37.202 -48.630  12.142  1.00  0.00     0.164 HD
HETATM   22  C   UNL     1     -39.937 -50.545  12.037  1.00  0.00     0.046 A 
ENDBRANCH   4  16
TORSDOF 3
ENDMDL
MODEL 6
REMARK VINA RESULT:      -5.2      3.250      4.285
REMARK  3 active torsions:
REMARK  status: ('A' for Active; 'I' for Inactive)
REMARK    1  A    between atoms: C_2  and  N_3 
REMARK    2  A    between atoms: C_2  and  C_14 
REMARK       I    between atoms: N_3  and  C_4 
REMARK       I    between atoms: C_4  and  N_6 
REMARK    3  A    between atoms: N_6  and  C_7 
REMARK       I    between atoms: C_14  and  N_16 
ROOT
HETATM    1  N   UNL     1     -39.203 -49.077  11.382  1.00  0.00    -0.330 N 
HETATM    2  C   UNL     1     -39.735 -47.884  11.820  1.00  0.00     0.321 C 
HETATM    3  O   UNL     1     -39.912 -47.669  13.013  1.00  0.00    -0.247 OA
HETATM    4  N   UNL     1     -40.009 -47.020  10.786  1.00  0.00    -0.309 N 
HETATM    5  H   UNL     1     -39.408 -49.373  10.439  1.00  0.00     0.165 HD
HETATM    6  H   UNL     1     -39.729 -47.320   9.865  1.00  0.00     0.170 HD
ENDROOT
BRANCH   1   7
HETATM    7  C   UNL     1     -38.861 -50.129  12.342  1.00  0.00     0.174 C 
HETATM    8  C   UNL     1     -37.506 -50.726  11.974  1.00  0.00     0.042 C 
BRANCH   7   9
HETATM    9  C   UNL     1     -39.980 -51.192  12.318  1.00  0.00     0.242 C 
HETATM   10  O   UNL     1     -40.852 -51.182  11.447  1.00  0.00    -0.271 OA
HETATM   11  N   UNL     1     -40.016 -52.110  13.352  1.00  0.00    -0.350 N 
HETATM   12  C   UNL     1     -41.139 -53.024  13.481  1.00  0.00     0.126 C 
HETATM   13  C   UNL     1     -38.896 -52.537  14.178  1.00  0.00     0.126 C 
HETATM   14  C   UNL     1     -40.674 -54.109  14.443  1.00  0.00     0.021 C 
HETATM   15  C   UNL     1     -39.154 -54.024  14.376  1.00  0.00     0.021 C 
ENDBRANCH   7   9
ENDBRANCH   1   7
BRANCH   4  16
HETATM   16  C   UNL     1     -40.558 -45.723  10.902  1.00  0.00     0.038 A 
HETATM   17  C   UNL     1     -39.785 -44.565  10.949  1.00  0.00     0.046 A 
HETATM   18  C   UNL     1     -40.422 -43.344  11.070  1.00  0.00     0.090 A 
HETATM   19  N   UNL     1     -41.758 -43.196  11.151  1.00  0.00    -0.375 N 
HETATM   20  C   UNL     1     -42.489 -44.329  11.101  1.00  0.00     0.090 A 
ATOM     21  HN  UNL     1     -42.194 -42.279  11.245  1.00  0.00     0.164 HD
HETATM   22  C   UNL     1     -41.945 -45.599  10.975  1.00  0.00     0.046 A 
ENDBRANCH   4  16
TORSDOF 3
ENDMDL
MODEL 7
REMARK VINA RESULT:      -5.2      2.575      3.254
REMARK  3 active torsions:
REMARK  status: ('A' for Active; 'I' for Inactive)
REMARK    1  A    between atoms: C_2  and  N_3 
REMARK    2  A    between atoms: C_2  and  C_14 
REMARK       I    between atoms: N_3  and  C_4 
REMARK       I    between atoms: C_4  and  N_6 
REMARK    3  A    between atoms: N_6  and  C_7 
REMARK       I    between atoms: C_14  and  N_16 
ROOT
HETATM    1  N   UNL     1     -39.691 -50.398  12.320  1.00  0.00    -0.330 N 
HETATM    2  C   UNL     1     -40.461 -49.257  12.315  1.00  0.00     0.321 C 
HETATM    3  O   UNL     1     -40.793 -48.711  13.361  1.00  0.00    -0.247 OA
HETATM    4  N   UNL     1     -40.771 -48.838  11.043  1.00  0.00    -0.309 N 
HETATM    5  H   UNL     1     -39.745 -51.013  11.522  1.00  0.00     0.165 HD
HETATM    6  H   UNL     1     -40.352 -49.355  10.286  1.00  0.00     0.170 HD
ENDROOT
BRANCH   1   7
HETATM    7  C   UNL     1     -39.274 -51.002  13.588  1.00  0.00     0.174 C 
HETATM    8  C   UNL     1     -37.769 -50.822  13.762  1.00  0.00     0.042 C 
BRANCH   7   9
HETATM    9  C   UNL     1     -39.673 -52.493  13.572  1.00  0.00     0.242 C 
HETATM   10  O   UNL     1     -38.830 -53.378  13.410  1.00  0.00    -0.271 OA
HETATM   11  N   UNL     1     -41.018 -52.799  13.667  1.00  0.00    -0.350 N 
HETATM   12  C   UNL     1     -41.473 -54.167  13.485  1.00  0.00     0.126 C 
HETATM   13  C   UNL     1     -42.058 -51.977  14.270  1.00  0.00     0.126 C 
HETATM   14  C   UNL     1     -42.894 -54.201  14.033  1.00  0.00     0.021 C 
HETATM   15  C   UNL     1     -42.952 -52.996  14.963  1.00  0.00     0.021 C 
ENDBRANCH   7   9
ENDBRANCH   1   7
BRANCH   4  16
HETATM   16  C   UNL     1     -41.542 -47.705  10.699  1.00  0.00     0.038 A 
HETATM   17  C   UNL     1     -41.089 -46.396  10.844  1.00  0.00     0.046 A 
HETATM   18  C   UNL     1     -41.927 -45.356  10.483  1.00  0.00     0.090 A 
HETATM   19  N   UNL     1     -43.172 -45.527   9.997  1.00  0.00    -0.375 N 
HETATM   20  C   UNL     1     -43.591 -46.802   9.862  1.00  0.00     0.090 A 
ATOM     21  HN  UNL     1     -43.765 -44.736   9.746  1.00  0.00     0.164 HD
HETATM   22  C   UNL     1     -42.825 -47.911  10.190  1.00  0.00     0.046 A 
ENDBRANCH   4  16
TORSDOF 3
ENDMDL
MODEL 8
REMARK VINA RESULT:      -4.9      2.272      6.757
REMARK  3 active torsions:
REMARK  status: ('A' for Active; 'I' for Inactive)
REMARK    1  A    between atoms: C_2  and  N_3 
REMARK    2  A    between atoms: C_2  and  C_14 
REMARK       I    between atoms: N_3  and  C_4 
REMARK       I    between atoms: C_4  and  N_6 
REMARK    3  A    between atoms: N_6  and  C_7 
REMARK       I    between atoms: C_14  and  N_16 
ROOT
HETATM    1  N   UNL     1     -40.103 -50.690  13.584  1.00  0.00    -0.330 N 
HETATM    2  C   UNL     1     -41.281 -51.053  12.971  1.00  0.00     0.321 C 
HETATM    3  O   UNL     1     -41.433 -50.925  11.762  1.00  0.00    -0.247 OA
HETATM    4  N   UNL     1     -42.200 -51.561  13.859  1.00  0.00    -0.309 N 
HETATM    5  H   UNL     1     -40.128 -50.455  14.564  1.00  0.00     0.165 HD
HETATM    6  H   UNL     1     -41.888 -51.674  14.810  1.00  0.00     0.170 HD
ENDROOT
BRANCH   1   7
HETATM    7  C   UNL     1     -39.008 -50.114  12.797  1.00  0.00     0.174 C 
HETATM    8  C   UNL     1     -37.774 -51.000  12.927  1.00  0.00     0.042 C 
BRANCH   7   9
HETATM    9  C   UNL     1     -38.742 -48.682  13.310  1.00  0.00     0.242 C 
HETATM   10  O   UNL     1     -37.929 -48.468  14.211  1.00  0.00    -0.271 OA
HETATM   11  N   UNL     1     -39.503 -47.658  12.778  1.00  0.00    -0.350 N 
HETATM   12  C   UNL     1     -39.423 -46.319  13.338  1.00  0.00     0.126 C 
HETATM   13  C   UNL     1     -40.157 -47.642  11.477  1.00  0.00     0.126 C 
HETATM   14  C   UNL     1     -40.056 -45.403  12.299  1.00  0.00     0.021 C 
HETATM   15  C   UNL     1     -39.969 -46.206  11.008  1.00  0.00     0.021 C 
ENDBRANCH   7   9
ENDBRANCH   1   7
BRANCH   4  16
HETATM   16  C   UNL     1     -43.499 -52.022  13.547  1.00  0.00     0.038 A 
HETATM   17  C   UNL     1     -44.599 -51.179  13.408  1.00  0.00     0.046 A 
HETATM   18  C   UNL     1     -45.830 -51.733  13.108  1.00  0.00     0.090 A 
HETATM   19  N   UNL     1     -46.041 -53.054  12.944  1.00  0.00    -0.375 N 
HETATM   20  C   UNL     1     -44.963 -53.853  13.080  1.00  0.00     0.090 A 
ATOM     21  HN  UNL     1     -46.964 -53.429  12.728  1.00  0.00     0.164 HD
HETATM   22  C   UNL     1     -43.687 -53.393  13.374  1.00  0.00     0.046 A 
ENDBRANCH   4  16
TORSDOF 3
ENDMDL
MODEL 9
REMARK VINA RESULT:      -4.7      2.822      4.284
REMARK  3 active torsions:
REMARK  status: ('A' for Active; 'I' for Inactive)
REMARK    1  A    between atoms: C_2  and  N_3 
REMARK    2  A    between atoms: C_2  and  C_14 
REMARK       I    between atoms: N_3  and  C_4 
REMARK       I    between atoms: C_4  and  N_6 
REMARK    3  A    between atoms: N_6  and  C_7 
REMARK       I    between atoms: C_14  and  N_16 
ROOT
HETATM    1  N   UNL     1     -39.361 -48.257  12.246  1.00  0.00    -0.330 N 
HETATM    2  C   UNL     1     -40.058 -47.098  12.504  1.00  0.00     0.321 C 
HETATM    3  O   UNL     1     -40.502 -46.861  13.621  1.00  0.00    -0.247 OA
HETATM    4  N   UNL     1     -40.164 -46.291  11.396  1.00  0.00    -0.309 N 
HETATM    5  H   UNL     1     -39.337 -48.598  11.296  1.00  0.00     0.165 HD
HETATM    6  H   UNL     1     -39.673 -46.596  10.571  1.00  0.00     0.170 HD
ENDROOT
BRANCH   1   7
HETATM    7  C   UNL     1     -39.159 -49.249  13.305  1.00  0.00     0.174 C 
HETATM    8  C   UNL     1     -37.722 -49.161  13.811  1.00  0.00     0.042 C 
BRANCH   7   9
HETATM    9  C   UNL     1     -39.478 -50.646  12.732  1.00  0.00     0.242 C 
HETATM   10  O   UNL     1     -38.585 -51.383  12.311  1.00  0.00    -0.271 OA
HETATM   11  N   UNL     1     -40.808 -51.011  12.635  1.00  0.00    -0.350 N 
HETATM   12  C   UNL     1     -41.184 -52.236  11.948  1.00  0.00     0.126 C 
HETATM   13  C   UNL     1     -41.914 -50.499  13.433  1.00  0.00     0.126 C 
HETATM   14  C   UNL     1     -42.621 -52.515  12.366  1.00  0.00     0.021 C 
HETATM   15  C   UNL     1     -42.779 -51.730  13.662  1.00  0.00     0.021 C 
ENDBRANCH   7   9
ENDBRANCH   1   7
BRANCH   4  16
HETATM   16  C   UNL     1     -40.816 -45.039  11.331  1.00  0.00     0.038 A 
HETATM   17  C   UNL     1     -42.183 -44.896  11.109  1.00  0.00     0.046 A 
HETATM   18  C   UNL     1     -42.721 -43.623  11.058  1.00  0.00     0.090 A 
HETATM   19  N   UNL     1     -41.999 -42.495  11.205  1.00  0.00    -0.375 N 
HETATM   20  C   UNL     1     -40.678 -42.654  11.422  1.00  0.00     0.090 A 
ATOM     21  HN  UNL     1     -42.429 -41.571  11.156  1.00  0.00     0.164 HD
HETATM   22  C   UNL     1     -40.046 -43.888  11.496  1.00  0.00     0.046 A 
ENDBRANCH   4  16
TORSDOF 3
ENDMDL
