MODEL 1
REMARK VINA RESULT:      -6.1      0.000      0.000
REMARK  4 active torsions:
REMARK  status: ('A' for Active; 'I' for Inactive)
REMARK    1  A    between atoms: O_1  and  C_2 
REMARK    2  A    between atoms: C_2  and  C_3 
REMARK    3  A    between atoms: C_3  and  N_4 
REMARK       I    between atoms: N_4  and  C_5 
REMARK       I    between atoms: C_5  and  N_7 
REMARK    4  A    between atoms: N_7  and  C_8 
ROOT
HETATM    1  N   UNL     1     -42.408 -48.197  10.143  1.00  0.00    -0.340 N 
HETATM    2  C   UNL     1     -41.207 -48.381  10.808  1.00  0.00     0.322 C 
HETATM    3  O   UNL     1     -40.660 -47.452  11.386  1.00  0.00    -0.247 OA
HETATM    4  N   UNL     1     -40.736 -49.659  10.674  1.00  0.00    -0.289 N 
HETATM    5  H   UNL     1     -43.073 -48.960  10.206  1.00  0.00     0.164 HD
HETATM    6  H   UNL     1     -41.061 -50.222   9.906  1.00  0.00     0.172 HD
ENDROOT
BRANCH   1   7
HETATM    7  C   UNL     1     -42.967 -46.858  10.166  1.00  0.00     0.162 C 
BRANCH   7   8
HETATM    8  C   UNL     1     -43.698 -46.603   8.850  1.00  0.00     0.074 C 
HETATM    9  C   UNL     1     -44.571 -47.814   8.404  1.00  0.00     0.040 C 
HETATM   10  C   UNL     1     -45.804 -47.101   8.983  1.00  0.00     0.006 C 
HETATM   11  C   UNL     1     -45.017 -45.782   8.938  1.00  0.00     0.040 C 
BRANCH   8  12
HETATM   12  O   UNL     1     -42.765 -46.118   7.851  1.00  0.00    -0.388 OA
HETATM   13  H   UNL     1     -42.879 -46.716   7.089  1.00  0.00     0.210 HD
ENDBRANCH   8  12
ENDBRANCH   7   8
ENDBRANCH   1   7
BRANCH   4  14
HETATM   14  C   UNL     1     -39.567 -50.031  11.283  1.00  0.00     0.152 A 
HETATM   15  N   UNL     1     -38.335 -49.830  10.884  1.00  0.00    -0.346 N 
HETATM   16  C   UNL     1     -37.460 -50.417  11.770  1.00  0.00     0.097 A 
ATOM     17  HN  UNL     1     -38.066 -49.316  10.045  1.00  0.00     0.167 HD
HETATM   18  C   UNL     1     -38.044 -51.041  12.852  1.00  0.00     0.070 A 
HETATM   19  S   UNL     1     -39.752 -50.866  12.762  1.00  0.00    -0.064 SA
ENDBRANCH   4  14
TORSDOF 4
ENDMDL
MODEL 2
REMARK VINA RESULT:      -5.8      3.268      6.475
REMARK  4 active torsions:
REMARK  status: ('A' for Active; 'I' for Inactive)
REMARK    1  A    between atoms: O_1  and  C_2 
REMARK    2  A    between atoms: C_2  and  C_3 
REMARK    3  A    between atoms: C_3  and  N_4 
REMARK       I    between atoms: N_4  and  C_5 
REMARK       I    between atoms: C_5  and  N_7 
REMARK    4  A    between atoms: N_7  and  C_8 
ROOT
HETATM    1  N   UNL     1     -40.154 -50.986  11.843  1.00  0.00    -0.340 N 
HETATM    2  C   UNL     1     -41.071 -49.951  11.749  1.00  0.00     0.322 C 
HETATM    3  O   UNL     1     -41.921 -49.785  12.612  1.00  0.00    -0.247 OA
HETATM    4  N   UNL     1     -40.921 -49.235  10.592  1.00  0.00    -0.289 N 
HETATM    5  H   UNL     1     -39.212 -50.776  11.530  1.00  0.00     0.164 HD
HETATM    6  H   UNL     1     -40.451 -49.661   9.811  1.00  0.00     0.172 HD
ENDROOT
BRANCH   1   7
HETATM    7  C   UNL     1     -40.264 -51.851  13.003  1.00  0.00     0.162 C 
BRANCH   7   8
HETATM    8  C   UNL     1     -40.863 -53.187  12.569  1.00  0.00     0.074 C 
HETATM    9  C   UNL     1     -40.433 -54.365  13.493  1.00  0.00     0.040 C 
HETATM   10  C   UNL     1     -41.778 -54.241  14.227  1.00  0.00     0.006 C 
HETATM   11  C   UNL     1     -42.326 -53.468  13.019  1.00  0.00     0.040 C 
BRANCH   8  12
HETATM   12  O   UNL     1     -40.627 -53.399  11.154  1.00  0.00    -0.388 OA
HETATM   13  H   UNL     1     -39.950 -54.099  11.114  1.00  0.00     0.210 HD
ENDBRANCH   8  12
ENDBRANCH   7   8
ENDBRANCH   1   7
BRANCH   4  14
HETATM   14  C   UNL     1     -41.729 -48.160  10.337  1.00  0.00     0.152 A 
HETATM   15  N   UNL     1     -42.933 -48.144   9.820  1.00  0.00    -0.346 N 
HETATM   16  C   UNL     1     -43.363 -46.842   9.687  1.00  0.00     0.097 A 
ATOM     17  HN  UNL     1     -43.470 -48.970   9.557  1.00  0.00     0.167 HD
HETATM   18  C   UNL     1     -42.479 -45.880  10.131  1.00  0.00     0.070 A 
HETATM   19  S   UNL     1     -41.069 -46.640  10.756  1.00  0.00    -0.064 SA
ENDBRANCH   4  14
TORSDOF 4
ENDMDL
MODEL 3
REMARK VINA RESULT:      -5.7      2.432      6.566
REMARK  4 active torsions:
REMARK  status: ('A' for Active; 'I' for Inactive)
REMARK    1  A    between atoms: O_1  and  C_2 
REMARK    2  A    between atoms: C_2  and  C_3 
REMARK    3  A    between atoms: C_3  and  N_4 
REMARK       I    between atoms: N_4  and  C_5 
REMARK       I    between atoms: C_5  and  N_7 
REMARK    4  A    between atoms: N_7  and  C_8 
ROOT
HETATM    1  N   UNL     1     -40.402 -49.990  10.725  1.00  0.00    -0.340 N 
HETATM    2  C   UNL     1     -41.172 -48.844  10.829  1.00  0.00     0.322 C 
HETATM    3  O   UNL     1     -41.336 -48.292  11.908  1.00  0.00    -0.247 OA
HETATM    4  N   UNL     1     -41.729 -48.489   9.630  1.00  0.00    -0.289 N 
HETATM    5  H   UNL     1     -39.829 -50.068   9.891  1.00  0.00     0.164 HD
HETATM    6  H   UNL     1     -41.828 -49.187   8.911  1.00  0.00     0.172 HD
ENDROOT
BRANCH   1   7
HETATM    7  C   UNL     1     -39.813 -50.493  11.953  1.00  0.00     0.162 C 
BRANCH   7   8
HETATM    8  C   UNL     1     -38.322 -50.167  11.958  1.00  0.00     0.074 C 
HETATM    9  C   UNL     1     -37.966 -49.000  12.926  1.00  0.00     0.040 C 
HETATM   10  C   UNL     1     -37.527 -50.038  13.971  1.00  0.00     0.006 C 
HETATM   11  C   UNL     1     -37.418 -51.074  12.842  1.00  0.00     0.040 C 
BRANCH   8  12
HETATM   12  O   UNL     1     -37.846 -50.003  10.598  1.00  0.00    -0.388 OA
HETATM   13  H   UNL     1     -37.949 -50.882  10.188  1.00  0.00     0.210 HD
ENDBRANCH   8  12
ENDBRANCH   7   8
ENDBRANCH   1   7
BRANCH   4  14
HETATM   14  C   UNL     1     -42.509 -47.367   9.536  1.00  0.00     0.152 A 
HETATM   15  N   UNL     1     -42.377 -46.223  10.161  1.00  0.00    -0.346 N 
HETATM   16  C   UNL     1     -43.412 -45.384   9.813  1.00  0.00     0.097 A 
ATOM     17  HN  UNL     1     -41.623 -45.990  10.807  1.00  0.00     0.167 HD
HETATM   18  C   UNL     1     -44.310 -45.899   8.902  1.00  0.00     0.070 A 
HETATM   19  S   UNL     1     -43.824 -47.486   8.452  1.00  0.00    -0.064 SA
ENDBRANCH   4  14
TORSDOF 4
ENDMDL
MODEL 4
REMARK VINA RESULT:      -5.6      5.073      5.525
REMARK  4 active torsions:
REMARK  status: ('A' for Active; 'I' for Inactive)
REMARK    1  A    between atoms: O_1  and  C_2 
REMARK    2  A    between atoms: C_2  and  C_3 
REMARK    3  A    between atoms: C_3  and  N_4 
REMARK       I    between atoms: N_4  and  C_5 
REMARK       I    between atoms: C_5  and  N_7 
REMARK    4  A    between atoms: N_7  and  C_8 
ROOT
HETATM    1  N   UNL     1     -43.658 -52.952  11.983  1.00  0.00    -0.340 N 
HETATM    2  C   UNL     1     -42.549 -52.351  12.556  1.00  0.00     0.322 C 
HETATM    3  O   UNL     1     -42.420 -52.299  13.771  1.00  0.00    -0.247 OA
HETATM    4  N   UNL     1     -41.715 -51.811  11.616  1.00  0.00    -0.289 N 
HETATM    5  H   UNL     1     -43.488 -53.481  11.134  1.00  0.00     0.164 HD
HETATM    6  H   UNL     1     -42.080 -51.594  10.703  1.00  0.00     0.172 HD
ENDROOT
BRANCH   1   7
HETATM    7  C   UNL     1     -44.644 -53.504  12.893  1.00  0.00     0.162 C 
BRANCH   7   8
HETATM    8  C   UNL     1     -45.887 -52.616  12.876  1.00  0.00     0.074 C 
HETATM    9  C   UNL     1     -46.809 -52.850  14.107  1.00  0.00     0.040 C 
HETATM   10  C   UNL     1     -46.190 -51.609  14.771  1.00  0.00     0.006 C 
HETATM   11  C   UNL     1     -45.702 -51.158  13.386  1.00  0.00     0.040 C 
BRANCH   8  12
HETATM   12  O   UNL     1     -46.546 -52.713  11.587  1.00  0.00    -0.388 OA
HETATM   13  H   UNL     1     -46.021 -52.146  10.993  1.00  0.00     0.210 HD
ENDBRANCH   8  12
ENDBRANCH   7   8
ENDBRANCH   1   7
BRANCH   4  14
HETATM   14  C   UNL     1     -40.554 -51.191  11.997  1.00  0.00     0.152 A 
HETATM   15  N   UNL     1     -39.629 -51.619  12.820  1.00  0.00    -0.346 N 
HETATM   16  C   UNL     1     -38.654 -50.656  12.963  1.00  0.00     0.097 A 
ATOM     17  HN  UNL     1     -39.630 -52.527  13.284  1.00  0.00     0.167 HD
HETATM   18  C   UNL     1     -38.844 -49.510  12.220  1.00  0.00     0.070 A 
HETATM   19  S   UNL     1     -40.286 -49.656  11.295  1.00  0.00    -0.064 SA
ENDBRANCH   4  14
TORSDOF 4
ENDMDL
MODEL 5
REMARK VINA RESULT:      -5.3      4.332      6.526
REMARK  4 active torsions:
REMARK  status: ('A' for Active; 'I' for Inactive)
REMARK    1  A    between atoms: O_1  and  C_2 
REMARK    2  A    between atoms: C_2  and  C_3 
REMARK    3  A    between atoms: C_3  and  N_4 
REMARK       I    between atoms: N_4  and  C_5 
REMARK       I    between atoms: C_5  and  N_7 
REMARK    4  A    between atoms: N_7  and  C_8 
ROOT
HETATM    1  N   UNL     1     -40.621 -51.037  11.301  1.00  0.00    -0.340 N 
HETATM    2  C   UNL     1     -41.772 -51.288  12.028  1.00  0.00     0.322 C 
HETATM    3  O   UNL     1     -42.220 -50.456  12.804  1.00  0.00    -0.247 OA
HETATM    4  N   UNL     1     -42.259 -52.547  11.800  1.00  0.00    -0.289 N 
HETATM    5  H   UNL     1     -40.609 -51.388  10.349  1.00  0.00     0.164 HD
HETATM    6  H   UNL     1     -41.639 -53.254  11.441  1.00  0.00     0.172 HD
ENDROOT
BRANCH   1   7
HETATM    7  C   UNL     1     -39.982 -49.751  11.515  1.00  0.00     0.162 C 
BRANCH   7   8
HETATM    8  C   UNL     1     -38.496 -49.974  11.784  1.00  0.00     0.074 C 
HETATM    9  C   UNL     1     -37.918 -48.975  12.829  1.00  0.00     0.040 C 
HETATM   10  C   UNL     1     -38.062 -50.062  13.906  1.00  0.00     0.006 C 
HETATM   11  C   UNL     1     -38.138 -51.110  12.785  1.00  0.00     0.040 C 
BRANCH   8  12
HETATM   12  O   UNL     1     -37.770 -50.040  10.530  1.00  0.00    -0.388 OA
HETATM   13  H   UNL     1     -36.876 -50.343  10.773  1.00  0.00     0.210 HD
ENDBRANCH   8  12
ENDBRANCH   7   8
ENDBRANCH   1   7
BRANCH   4  14
HETATM   14  C   UNL     1     -43.406 -52.966  12.420  1.00  0.00     0.152 A 
HETATM   15  N   UNL     1     -44.640 -52.576  12.211  1.00  0.00    -0.346 N 
HETATM   16  C   UNL     1     -45.484 -53.216  13.091  1.00  0.00     0.097 A 
ATOM     17  HN  UNL     1     -44.930 -51.900  11.504  1.00  0.00     0.167 HD
HETATM   18  C   UNL     1     -44.876 -54.110  13.947  1.00  0.00     0.070 A 
HETATM   19  S   UNL     1     -43.188 -54.162  13.620  1.00  0.00    -0.064 SA
ENDBRANCH   4  14
TORSDOF 4
ENDMDL
MODEL 6
REMARK VINA RESULT:      -5.0      4.603      6.594
REMARK  4 active torsions:
REMARK  status: ('A' for Active; 'I' for Inactive)
REMARK    1  A    between atoms: O_1  and  C_2 
REMARK    2  A    between atoms: C_2  and  C_3 
REMARK    3  A    between atoms: C_3  and  N_4 
REMARK       I    between atoms: N_4  and  C_5 
REMARK       I    between atoms: C_5  and  N_7 
REMARK    4  A    between atoms: N_7  and  C_8 
ROOT
HETATM    1  N   UNL     1     -41.778 -51.456  11.853  1.00  0.00    -0.340 N 
HETATM    2  C   UNL     1     -42.697 -51.596  12.880  1.00  0.00     0.322 C 
HETATM    3  O   UNL     1     -42.352 -51.501  14.049  1.00  0.00    -0.247 OA
HETATM    4  N   UNL     1     -43.948 -51.894  12.412  1.00  0.00    -0.289 N 
HETATM    5  H   UNL     1     -42.106 -50.972  11.024  1.00  0.00     0.164 HD
HETATM    6  H   UNL     1     -44.045 -52.296  11.494  1.00  0.00     0.172 HD
ENDROOT
BRANCH   1   7
HETATM    7  C   UNL     1     -40.402 -51.202  12.239  1.00  0.00     0.162 C 
BRANCH   7   8
HETATM    8  C   UNL     1     -39.910 -49.947  11.521  1.00  0.00     0.074 C 
HETATM    9  C   UNL     1     -40.159 -48.648  12.344  1.00  0.00     0.040 C 
HETATM   10  C   UNL     1     -38.696 -48.699  12.812  1.00  0.00     0.006 C 
HETATM   11  C   UNL     1     -38.390 -49.636  11.634  1.00  0.00     0.040 C 
BRANCH   8  12
HETATM   12  O   UNL     1     -40.420 -49.921  10.164  1.00  0.00    -0.388 OA
HETATM   13  H   UNL     1     -41.305 -49.519  10.236  1.00  0.00     0.210 HD
ENDBRANCH   8  12
ENDBRANCH   7   8
ENDBRANCH   1   7
BRANCH   4  14
HETATM   14  C   UNL     1     -44.992 -52.049  13.285  1.00  0.00     0.152 A 
HETATM   15  N   UNL     1     -45.616 -51.134  13.986  1.00  0.00    -0.346 N 
HETATM   16  C   UNL     1     -46.573 -51.730  14.777  1.00  0.00     0.097 A 
ATOM     17  HN  UNL     1     -45.423 -50.134  13.951  1.00  0.00     0.167 HD
HETATM   18  C   UNL     1     -46.679 -53.099  14.646  1.00  0.00     0.070 A 
HETATM   19  S   UNL     1     -45.550 -53.653  13.473  1.00  0.00    -0.064 SA
ENDBRANCH   4  14
TORSDOF 4
ENDMDL
MODEL 7
REMARK VINA RESULT:      -4.9      4.565      6.661
REMARK  4 active torsions:
REMARK  status: ('A' for Active; 'I' for Inactive)
REMARK    1  A    between atoms: O_1  and  C_2 
REMARK    2  A    between atoms: C_2  and  C_3 
REMARK    3  A    between atoms: C_3  and  N_4 
REMARK       I    between atoms: N_4  and  C_5 
REMARK       I    between atoms: C_5  and  N_7 
REMARK    4  A    between atoms: N_7  and  C_8 
ROOT
HETATM    1  N   UNL     1     -40.996 -50.766  13.351  1.00  0.00    -0.340 N 
HETATM    2  C   UNL     1     -42.274 -51.241  13.106  1.00  0.00     0.322 C 
HETATM    3  O   UNL     1     -42.484 -52.042  12.206  1.00  0.00    -0.247 OA
HETATM    4  N   UNL     1     -43.203 -50.667  13.930  1.00  0.00    -0.289 N 
HETATM    5  H   UNL     1     -40.751 -50.631  14.326  1.00  0.00     0.164 HD
HETATM    6  H   UNL     1     -42.990 -49.786  14.369  1.00  0.00     0.172 HD
ENDROOT
BRANCH   1   7
HETATM    7  C   UNL     1     -39.939 -51.261  12.489  1.00  0.00     0.162 C 
BRANCH   7   8
HETATM    8  C   UNL     1     -39.414 -50.109  11.635  1.00  0.00     0.074 C 
HETATM    9  C   UNL     1     -39.346 -48.765  12.418  1.00  0.00     0.040 C 
HETATM   10  C   UNL     1     -37.845 -49.005  12.643  1.00  0.00     0.006 C 
HETATM   11  C   UNL     1     -37.869 -50.010  11.482  1.00  0.00     0.040 C 
BRANCH   8  12
HETATM   12  O   UNL     1     -40.138 -50.053  10.380  1.00  0.00    -0.388 OA
HETATM   13  H   UNL     1     -39.755 -50.766   9.837  1.00  0.00     0.210 HD
ENDBRANCH   8  12
ENDBRANCH   7   8
ENDBRANCH   1   7
BRANCH   4  14
HETATM   14  C   UNL     1     -44.520 -51.030  13.845  1.00  0.00     0.152 A 
HETATM   15  N   UNL     1     -45.236 -51.272  12.775  1.00  0.00    -0.346 N 
HETATM   16  C   UNL     1     -46.533 -51.555  13.139  1.00  0.00     0.097 A 
ATOM     17  HN  UNL     1     -44.885 -51.253  11.817  1.00  0.00     0.167 HD
HETATM   18  C   UNL     1     -46.781 -51.548  14.496  1.00  0.00     0.070 A 
HETATM   19  S   UNL     1     -45.327 -51.193  15.342  1.00  0.00    -0.064 SA
ENDBRANCH   4  14
TORSDOF 4
ENDMDL
MODEL 8
REMARK VINA RESULT:      -4.9      4.760      6.180
REMARK  4 active torsions:
REMARK  status: ('A' for Active; 'I' for Inactive)
REMARK    1  A    between atoms: O_1  and  C_2 
REMARK    2  A    between atoms: C_2  and  C_3 
REMARK    3  A    between atoms: C_3  and  N_4 
REMARK       I    between atoms: N_4  and  C_5 
REMARK       I    between atoms: C_5  and  N_7 
REMARK    4  A    between atoms: N_7  and  C_8 
ROOT
HETATM    1  N   UNL     1     -43.145 -45.200  10.991  1.00  0.00    -0.340 N 
HETATM    2  C   UNL     1     -42.245 -44.153  11.088  1.00  0.00     0.322 C 
HETATM    3  O   UNL     1     -41.153 -44.210  10.540  1.00  0.00    -0.247 OA
HETATM    4  N   UNL     1     -42.713 -43.145  11.887  1.00  0.00    -0.289 N 
HETATM    5  H   UNL     1     -44.122 -44.941  10.909  1.00  0.00     0.164 HD
HETATM    6  H   UNL     1     -43.435 -43.347  12.558  1.00  0.00     0.172 HD
ENDROOT
BRANCH   1   7
HETATM    7  C   UNL     1     -42.723 -46.354  10.219  1.00  0.00     0.162 C 
BRANCH   7   8
HETATM    8  C   UNL     1     -43.498 -46.380   8.903  1.00  0.00     0.074 C 
HETATM    9  C   UNL     1     -44.218 -47.739   8.657  1.00  0.00     0.040 C 
HETATM   10  C   UNL     1     -45.522 -47.107   9.169  1.00  0.00     0.006 C 
HETATM   11  C   UNL     1     -44.907 -45.722   8.917  1.00  0.00     0.040 C 
BRANCH   8  12
HETATM   12  O   UNL     1     -42.646 -45.931   7.818  1.00  0.00    -0.388 OA
HETATM   13  H   UNL     1     -42.971 -46.405   7.031  1.00  0.00     0.210 HD
ENDBRANCH   8  12
ENDBRANCH   7   8
ENDBRANCH   1   7
BRANCH   4  14
HETATM   14  C   UNL     1     -41.964 -42.015  12.083  1.00  0.00     0.152 A 
HETATM   15  N   UNL     1     -41.368 -41.262  11.192  1.00  0.00    -0.346 N 
HETATM   16  C   UNL     1     -40.677 -40.253  11.826  1.00  0.00     0.097 A 
ATOM     17  HN  UNL     1     -41.410 -41.401  10.183  1.00  0.00     0.167 HD
HETATM   18  C   UNL     1     -40.779 -40.241  13.201  1.00  0.00     0.070 A 
HETATM   19  S   UNL     1     -41.795 -41.530  13.713  1.00  0.00    -0.064 SA
ENDBRANCH   4  14
TORSDOF 4
ENDMDL
MODEL 9
REMARK VINA RESULT:      -4.8      2.350      2.485
REMARK  4 active torsions:
REMARK  status: ('A' for Active; 'I' for Inactive)
REMARK    1  A    between atoms: O_1  and  C_2 
REMARK    2  A    between atoms: C_2  and  C_3 
REMARK    3  A    between atoms: C_3  and  N_4 
REMARK       I    between atoms: N_4  and  C_5 
REMARK       I    between atoms: C_5  and  N_7 
REMARK    4  A    between atoms: N_7  and  C_8 
ROOT
HETATM    1  N   UNL     1     -42.945 -48.530  11.215  1.00  0.00    -0.340 N 
HETATM    2  C   UNL     1     -42.024 -49.520  11.515  1.00  0.00     0.322 C 
HETATM    3  O   UNL     1     -40.865 -49.435  11.136  1.00  0.00    -0.247 OA
HETATM    4  N   UNL     1     -42.592 -50.560  12.200  1.00  0.00    -0.289 N 
HETATM    5  H   UNL     1     -43.617 -48.312  11.944  1.00  0.00     0.164 HD
HETATM    6  H   UNL     1     -43.588 -50.697  12.144  1.00  0.00     0.172 HD
ENDROOT
BRANCH   1   7
HETATM    7  C   UNL     1     -42.464 -47.406  10.432  1.00  0.00     0.162 C 
BRANCH   7   8
HETATM    8  C   UNL     1     -43.188 -47.392   9.088  1.00  0.00     0.074 C 
HETATM    9  C   UNL     1     -44.731 -47.534   9.236  1.00  0.00     0.040 C 
HETATM   10  C   UNL     1     -44.857 -46.010   9.081  1.00  0.00     0.006 C 
HETATM   11  C   UNL     1     -43.452 -45.994   8.460  1.00  0.00     0.040 C 
BRANCH   8  12
HETATM   12  O   UNL     1     -42.568 -48.341   8.182  1.00  0.00    -0.388 OA
HETATM   13  H   UNL     1     -43.309 -48.740   7.692  1.00  0.00     0.210 HD
ENDBRANCH   8  12
ENDBRANCH   7   8
ENDBRANCH   1   7
BRANCH   4  14
HETATM   14  C   UNL     1     -41.827 -51.623  12.600  1.00  0.00     0.152 A 
HETATM   15  N   UNL     1     -41.047 -52.388  11.877  1.00  0.00    -0.346 N 
HETATM   16  C   UNL     1     -40.503 -53.375  12.669  1.00  0.00     0.097 A 
ATOM     17  HN  UNL     1     -40.869 -52.271  10.880  1.00  0.00     0.167 HD
HETATM   18  C   UNL     1     -40.864 -53.330  13.999  1.00  0.00     0.070 A 
HETATM   19  S   UNL     1     -41.905 -51.988  14.267  1.00  0.00    -0.064 SA
ENDBRANCH   4  14
TORSDOF 4
ENDMDL
