MODEL 1
REMARK VINA RESULT:      -6.0      0.000      0.000
REMARK  4 active torsions:
REMARK  status: ('A' for Active; 'I' for Inactive)
REMARK    1  A    between atoms: N_6  and  C_7 
REMARK    2  A    between atoms: C_7  and  C_8 
REMARK       I    between atoms: C_8  and  N_10 
REMARK    3  A    between atoms: N_10  and  C_11 
REMARK    4  A    between atoms: C_11  and  C_12 
ROOT
HETATM    1  C   UNL     1     -42.387 -50.774  12.658  1.00  0.00     0.237 C 
HETATM    2  O   UNL     1     -42.860 -50.650  13.787  1.00  0.00    -0.272 OA
HETATM    3  N   UNL     1     -42.297 -49.723  11.765  1.00  0.00    -0.359 N 
HETATM    4  H   UNL     1     -41.735 -49.872  10.924  1.00  0.00     0.162 HD
ENDROOT
BRANCH   1   5
HETATM    5  C   UNL     1     -41.968 -52.123  12.124  1.00  0.00     0.251 C 
BRANCH   5   6
HETATM    6  N   UNL     1     -42.552 -53.218  12.872  1.00  0.00    -0.288 N 
HETATM    7  C   UNL     1     -41.936 -54.056  13.766  1.00  0.00     0.027 A 
HETATM    8  C   UNL     1     -42.945 -54.828  14.301  1.00  0.00     0.052 A 
HETATM    9  C   UNL     1     -40.480 -54.052  14.045  1.00  0.00     0.070 C 
HETATM   10  C   UNL     1     -44.129 -54.395  13.666  1.00  0.00     0.024 A 
HETATM   11  C   UNL     1     -45.513 -54.873  13.898  1.00  0.00     0.070 C 
HETATM   12  N   UNL     1     -43.882 -53.434  12.767  1.00  0.00    -0.303 N 
ATOM     13  HN  UNL     1     -44.546 -52.971  12.146  1.00  0.00     0.186 HD
ENDBRANCH   5   6
ENDBRANCH   1   5
BRANCH   3  14
HETATM   14  C   UNL     1     -42.683 -48.372  12.127  1.00  0.00     0.128 C 
BRANCH  14  15
HETATM   15  C   UNL     1     -43.163 -47.566  10.917  1.00  0.00     0.018 C 
HETATM   16  C   UNL     1     -44.663 -47.802  10.635  1.00  0.00     0.022 C 
HETATM   17  C   UNL     1     -44.972 -47.508   9.165  1.00  0.00     0.141 C 
HETATM   18  S   UNL     1     -43.420 -47.238   8.344  1.00  0.00     0.144 S 
HETATM   19  O   UNL     1     -43.339 -48.083   7.169  1.00  0.00    -0.228 OA
HETATM   20  O   UNL     1     -43.175 -45.811   8.288  1.00  0.00    -0.228 OA
HETATM   21  C   UNL     1     -42.417 -47.929   9.634  1.00  0.00     0.146 C 
ENDBRANCH  14  15
ENDBRANCH   3  14
TORSDOF 4
ENDMDL
MODEL 2
REMARK VINA RESULT:      -5.9      3.548      6.934
REMARK  4 active torsions:
REMARK  status: ('A' for Active; 'I' for Inactive)
REMARK    1  A    between atoms: N_6  and  C_7 
REMARK    2  A    between atoms: C_7  and  C_8 
REMARK       I    between atoms: C_8  and  N_10 
REMARK    3  A    between atoms: N_10  and  C_11 
REMARK    4  A    between atoms: C_11  and  C_12 
ROOT
HETATM    1  C   UNL     1     -40.330 -49.818  11.671  1.00  0.00     0.237 C 
HETATM    2  O   UNL     1     -39.216 -50.321  11.529  1.00  0.00    -0.272 OA
HETATM    3  N   UNL     1     -41.467 -50.571  11.893  1.00  0.00    -0.359 N 
HETATM    4  H   UNL     1     -42.311 -50.068  12.173  1.00  0.00     0.162 HD
ENDROOT
BRANCH   1   5
HETATM    5  C   UNL     1     -40.551 -48.334  11.502  1.00  0.00     0.251 C 
BRANCH   5   6
HETATM    6  N   UNL     1     -41.807 -48.034  10.845  1.00  0.00    -0.288 N 
HETATM    7  C   UNL     1     -42.936 -47.479  11.391  1.00  0.00     0.027 A 
HETATM    8  C   UNL     1     -43.794 -47.274  10.331  1.00  0.00     0.052 A 
HETATM    9  C   UNL     1     -43.105 -47.182  12.834  1.00  0.00     0.070 C 
HETATM   10  C   UNL     1     -43.105 -47.744   9.192  1.00  0.00     0.024 A 
HETATM   11  C   UNL     1     -43.562 -47.727   7.782  1.00  0.00     0.070 C 
HETATM   12  N   UNL     1     -41.904 -48.240   9.513  1.00  0.00    -0.303 N 
ATOM     13  HN  UNL     1     -41.219 -48.673   8.894  1.00  0.00     0.186 HD
ENDBRANCH   5   6
ENDBRANCH   1   5
BRANCH   3  14
HETATM   14  C   UNL     1     -41.415 -52.011  12.054  1.00  0.00     0.128 C 
BRANCH  14  15
HETATM   15  C   UNL     1     -42.772 -52.596  12.457  1.00  0.00     0.018 C 
HETATM   16  C   UNL     1     -43.491 -51.702  13.491  1.00  0.00     0.022 C 
HETATM   17  C   UNL     1     -44.486 -52.537  14.302  1.00  0.00     0.141 C 
HETATM   18  S   UNL     1     -44.226 -54.239  13.864  1.00  0.00     0.144 S 
HETATM   19  O   UNL     1     -44.046 -55.027  15.067  1.00  0.00    -0.228 OA
HETATM   20  O   UNL     1     -45.186 -54.600  12.841  1.00  0.00    -0.228 OA
HETATM   21  C   UNL     1     -42.651 -53.982  13.089  1.00  0.00     0.146 C 
ENDBRANCH  14  15
ENDBRANCH   3  14
TORSDOF 4
ENDMDL
MODEL 3
REMARK VINA RESULT:      -5.8      2.375      2.975
REMARK  4 active torsions:
REMARK  status: ('A' for Active; 'I' for Inactive)
REMARK    1  A    between atoms: N_6  and  C_7 
REMARK    2  A    between atoms: C_7  and  C_8 
REMARK       I    between atoms: C_8  and  N_10 
REMARK    3  A    between atoms: N_10  and  C_11 
REMARK    4  A    between atoms: C_11  and  C_12 
ROOT
HETATM    1  C   UNL     1     -41.518 -50.274  12.053  1.00  0.00     0.237 C 
HETATM    2  O   UNL     1     -41.966 -49.953  13.153  1.00  0.00    -0.272 OA
HETATM    3  N   UNL     1     -41.606 -49.456  10.943  1.00  0.00    -0.359 N 
HETATM    4  H   UNL     1     -41.056 -49.722  10.123  1.00  0.00     0.162 HD
ENDROOT
BRANCH   1   5
HETATM    5  C   UNL     1     -40.931 -51.644  11.811  1.00  0.00     0.251 C 
BRANCH   5   6
HETATM    6  N   UNL     1     -41.724 -52.698  12.411  1.00  0.00    -0.288 N 
HETATM    7  C   UNL     1     -41.323 -53.649  13.315  1.00  0.00     0.027 A 
HETATM    8  C   UNL     1     -42.472 -54.321  13.675  1.00  0.00     0.052 A 
HETATM    9  C   UNL     1     -39.923 -53.834  13.764  1.00  0.00     0.070 C 
HETATM   10  C   UNL     1     -43.511 -53.717  12.934  1.00  0.00     0.024 A 
HETATM   11  C   UNL     1     -44.958 -54.035  12.969  1.00  0.00     0.070 C 
HETATM   12  N   UNL     1     -43.046 -52.747  12.136  1.00  0.00    -0.303 N 
ATOM     13  HN  UNL     1     -43.570 -52.176  11.472  1.00  0.00     0.186 HD
ENDBRANCH   5   6
ENDBRANCH   1   5
BRANCH   3  14
HETATM   14  C   UNL     1     -42.166 -48.120  11.015  1.00  0.00     0.128 C 
BRANCH  14  15
HETATM   15  C   UNL     1     -41.103 -47.037  10.814  1.00  0.00     0.018 C 
HETATM   16  C   UNL     1     -40.391 -46.686  12.139  1.00  0.00     0.022 C 
HETATM   17  C   UNL     1     -39.811 -45.271  12.063  1.00  0.00     0.141 C 
HETATM   18  S   UNL     1     -40.405 -44.538  10.558  1.00  0.00     0.144 S 
HETATM   19  O   UNL     1     -41.003 -43.250  10.847  1.00  0.00    -0.228 OA
HETATM   20  O   UNL     1     -39.390 -44.707   9.537  1.00  0.00    -0.228 OA
HETATM   21  C   UNL     1     -41.687 -45.731  10.275  1.00  0.00     0.146 C 
ENDBRANCH  14  15
ENDBRANCH   3  14
TORSDOF 4
ENDMDL
MODEL 4
REMARK VINA RESULT:      -5.7      3.464      7.587
REMARK  4 active torsions:
REMARK  status: ('A' for Active; 'I' for Inactive)
REMARK    1  A    between atoms: N_6  and  C_7 
REMARK    2  A    between atoms: C_7  and  C_8 
REMARK       I    between atoms: C_8  and  N_10 
REMARK    3  A    between atoms: N_10  and  C_11 
REMARK    4  A    between atoms: C_11  and  C_12 
ROOT
HETATM    1  C   UNL     1     -41.687 -49.461  11.973  1.00  0.00     0.237 C 
HETATM    2  O   UNL     1     -41.393 -48.795  12.965  1.00  0.00    -0.272 OA
HETATM    3  N   UNL     1     -42.211 -50.737  12.059  1.00  0.00    -0.359 N 
HETATM    4  H   UNL     1     -42.589 -51.144  11.201  1.00  0.00     0.162 HD
ENDROOT
BRANCH   1   5
HETATM    5  C   UNL     1     -41.393 -48.967  10.577  1.00  0.00     0.251 C 
BRANCH   5   6
HETATM    6  N   UNL     1     -41.537 -47.530  10.459  1.00  0.00    -0.288 N 
HETATM    7  C   UNL     1     -42.693 -46.803  10.323  1.00  0.00     0.027 A 
HETATM    8  C   UNL     1     -42.306 -45.482  10.391  1.00  0.00     0.052 A 
HETATM    9  C   UNL     1     -44.039 -47.403  10.154  1.00  0.00     0.070 C 
HETATM   10  C   UNL     1     -40.905 -45.507  10.558  1.00  0.00     0.024 A 
HETATM   11  C   UNL     1     -39.987 -44.354  10.722  1.00  0.00     0.070 C 
HETATM   12  N   UNL     1     -40.432 -46.760  10.565  1.00  0.00    -0.303 N 
ATOM     13  HN  UNL     1     -39.461 -47.063  10.634  1.00  0.00     0.186 HD
ENDBRANCH   5   6
ENDBRANCH   1   5
BRANCH   3  14
HETATM   14  C   UNL     1     -42.525 -51.355  13.333  1.00  0.00     0.128 C 
BRANCH  14  15
HETATM   15  C   UNL     1     -43.703 -52.327  13.228  1.00  0.00     0.018 C 
HETATM   16  C   UNL     1     -45.056 -51.600  13.390  1.00  0.00     0.022 C 
HETATM   17  C   UNL     1     -46.124 -52.584  13.875  1.00  0.00     0.141 C 
HETATM   18  S   UNL     1     -45.298 -54.107  14.269  1.00  0.00     0.144 S 
HETATM   19  O   UNL     1     -45.666 -54.527  15.606  1.00  0.00    -0.228 OA
HETATM   20  O   UNL     1     -45.401 -54.991  13.125  1.00  0.00    -0.228 OA
HETATM   21  C   UNL     1     -43.664 -53.417  14.298  1.00  0.00     0.146 C 
ENDBRANCH  14  15
ENDBRANCH   3  14
TORSDOF 4
ENDMDL
MODEL 5
REMARK VINA RESULT:      -5.6      4.116      7.064
REMARK  4 active torsions:
REMARK  status: ('A' for Active; 'I' for Inactive)
REMARK    1  A    between atoms: N_6  and  C_7 
REMARK    2  A    between atoms: C_7  and  C_8 
REMARK       I    between atoms: C_8  and  N_10 
REMARK    3  A    between atoms: N_10  and  C_11 
REMARK    4  A    between atoms: C_11  and  C_12 
ROOT
HETATM    1  C   UNL     1     -41.758 -51.704  12.228  1.00  0.00     0.237 C 
HETATM    2  O   UNL     1     -40.843 -52.522  12.142  1.00  0.00    -0.272 OA
HETATM    3  N   UNL     1     -43.078 -52.074  12.398  1.00  0.00    -0.359 N 
HETATM    4  H   UNL     1     -43.743 -51.335  12.636  1.00  0.00     0.162 HD
ENDROOT
BRANCH   1   5
HETATM    5  C   UNL     1     -41.511 -50.225  12.046  1.00  0.00     0.251 C 
BRANCH   5   6
HETATM    6  N   UNL     1     -40.102 -49.889  12.105  1.00  0.00    -0.288 N 
HETATM    7  C   UNL     1     -39.396 -49.386  13.168  1.00  0.00     0.027 A 
HETATM    8  C   UNL     1     -38.079 -49.373  12.760  1.00  0.00     0.052 A 
HETATM    9  C   UNL     1     -40.007 -48.978  14.456  1.00  0.00     0.070 C 
HETATM   10  C   UNL     1     -38.087 -49.874  11.440  1.00  0.00     0.024 A 
HETATM   11  C   UNL     1     -36.927 -50.102  10.546  1.00  0.00     0.070 C 
HETATM   12  N   UNL     1     -39.330 -50.157  11.029  1.00  0.00    -0.303 N 
ATOM     13  HN  UNL     1     -39.625 -50.497  10.114  1.00  0.00     0.186 HD
ENDBRANCH   5   6
ENDBRANCH   1   5
BRANCH   3  14
HETATM   14  C   UNL     1     -43.472 -53.460  12.564  1.00  0.00     0.128 C 
BRANCH  14  15
HETATM   15  C   UNL     1     -44.255 -53.685  13.861  1.00  0.00     0.018 C 
HETATM   16  C   UNL     1     -45.303 -54.808  13.704  1.00  0.00     0.022 C 
HETATM   17  C   UNL     1     -46.426 -54.623  14.728  1.00  0.00     0.141 C 
HETATM   18  S   UNL     1     -46.165 -53.053  15.518  1.00  0.00     0.144 S 
HETATM   19  O   UNL     1     -47.384 -52.271  15.459  1.00  0.00    -0.228 OA
HETATM   20  O   UNL     1     -45.451 -53.279  16.758  1.00  0.00    -0.228 OA
HETATM   21  C   UNL     1     -45.016 -52.440  14.314  1.00  0.00     0.146 C 
ENDBRANCH  14  15
ENDBRANCH   3  14
TORSDOF 4
ENDMDL
MODEL 6
REMARK VINA RESULT:      -5.5      3.819      5.659
REMARK  4 active torsions:
REMARK  status: ('A' for Active; 'I' for Inactive)
REMARK    1  A    between atoms: N_6  and  C_7 
REMARK    2  A    between atoms: C_7  and  C_8 
REMARK       I    between atoms: C_8  and  N_10 
REMARK    3  A    between atoms: N_10  and  C_11 
REMARK    4  A    between atoms: C_11  and  C_12 
ROOT
HETATM    1  C   UNL     1     -43.945 -54.735  14.175  1.00  0.00     0.237 C 
HETATM    2  O   UNL     1     -43.816 -55.493  15.136  1.00  0.00    -0.272 OA
HETATM    3  N   UNL     1     -42.874 -54.098  13.577  1.00  0.00    -0.359 N 
HETATM    4  H   UNL     1     -43.049 -53.632  12.684  1.00  0.00     0.162 HD
ENDROOT
BRANCH   1   5
HETATM    5  C   UNL     1     -45.308 -54.359  13.646  1.00  0.00     0.251 C 
BRANCH   5   6
HETATM    6  N   UNL     1     -45.887 -53.238  14.359  1.00  0.00    -0.288 N 
HETATM    7  C   UNL     1     -46.448 -52.101  13.834  1.00  0.00     0.027 A 
HETATM    8  C   UNL     1     -46.970 -51.418  14.913  1.00  0.00     0.052 A 
HETATM    9  C   UNL     1     -46.455 -51.765  12.390  1.00  0.00     0.070 C 
HETATM   10  C   UNL     1     -46.669 -52.210  16.042  1.00  0.00     0.024 A 
HETATM   11  C   UNL     1     -47.034 -51.953  17.456  1.00  0.00     0.070 C 
HETATM   12  N   UNL     1     -45.977 -53.305  15.705  1.00  0.00    -0.303 N 
ATOM     13  HN  UNL     1     -45.603 -54.025  16.323  1.00  0.00     0.186 HD
ENDBRANCH   5   6
ENDBRANCH   1   5
BRANCH   3  14
HETATM   14  C   UNL     1     -41.506 -54.341  13.991  1.00  0.00     0.128 C 
BRANCH  14  15
HETATM   15  C   UNL     1     -40.586 -53.160  13.668  1.00  0.00     0.018 C 
HETATM   16  C   UNL     1     -40.746 -52.017  14.694  1.00  0.00     0.022 C 
HETATM   17  C   UNL     1     -40.321 -50.687  14.066  1.00  0.00     0.141 C 
HETATM   18  S   UNL     1     -40.039 -50.987  12.337  1.00  0.00     0.144 S 
HETATM   19  O   UNL     1     -40.786 -50.026  11.550  1.00  0.00    -0.228 OA
HETATM   20  O   UNL     1     -38.622 -51.212  12.139  1.00  0.00    -0.228 OA
HETATM   21  C   UNL     1     -40.868 -52.554  12.293  1.00  0.00     0.146 C 
ENDBRANCH  14  15
ENDBRANCH   3  14
TORSDOF 4
ENDMDL
MODEL 7
REMARK VINA RESULT:      -5.5      3.953      5.077
REMARK  4 active torsions:
REMARK  status: ('A' for Active; 'I' for Inactive)
REMARK    1  A    between atoms: N_6  and  C_7 
REMARK    2  A    between atoms: C_7  and  C_8 
REMARK       I    between atoms: C_8  and  N_10 
REMARK    3  A    between atoms: N_10  and  C_11 
REMARK    4  A    between atoms: C_11  and  C_12 
ROOT
HETATM    1  C   UNL     1     -43.025 -53.386  12.760  1.00  0.00     0.237 C 
HETATM    2  O   UNL     1     -42.375 -53.835  13.704  1.00  0.00    -0.272 OA
HETATM    3  N   UNL     1     -42.469 -52.574  11.790  1.00  0.00    -0.359 N 
HETATM    4  H   UNL     1     -43.031 -52.394  10.955  1.00  0.00     0.162 HD
ENDROOT
BRANCH   1   5
HETATM    5  C   UNL     1     -44.515 -53.606  12.655  1.00  0.00     0.251 C 
BRANCH   5   6
HETATM    6  N   UNL     1     -45.269 -52.674  13.470  1.00  0.00    -0.288 N 
HETATM    7  C   UNL     1     -46.363 -51.929  13.110  1.00  0.00     0.027 A 
HETATM    8  C   UNL     1     -46.788 -51.317  14.270  1.00  0.00     0.052 A 
HETATM    9  C   UNL     1     -46.913 -51.867  11.735  1.00  0.00     0.070 C 
HETATM   10  C   UNL     1     -45.887 -51.740  15.272  1.00  0.00     0.024 A 
HETATM   11  C   UNL     1     -45.909 -51.403  16.715  1.00  0.00     0.070 C 
HETATM   12  N   UNL     1     -44.939 -52.543  14.773  1.00  0.00    -0.303 N 
ATOM     13  HN  UNL     1     -44.149 -52.960  15.265  1.00  0.00     0.186 HD
ENDBRANCH   5   6
ENDBRANCH   1   5
BRANCH   3  14
HETATM   14  C   UNL     1     -41.055 -52.255  11.772  1.00  0.00     0.128 C 
BRANCH  14  15
HETATM   15  C   UNL     1     -40.768 -50.867  12.351  1.00  0.00     0.018 C 
HETATM   16  C   UNL     1     -40.394 -49.856  11.246  1.00  0.00     0.022 C 
HETATM   17  C   UNL     1     -39.562 -48.716  11.838  1.00  0.00     0.141 C 
HETATM   18  S   UNL     1     -39.180 -49.160  13.516  1.00  0.00     0.144 S 
HETATM   19  O   UNL     1     -37.753 -49.041  13.737  1.00  0.00    -0.228 OA
HETATM   20  O   UNL     1     -40.152 -48.529  14.387  1.00  0.00    -0.228 OA
HETATM   21  C   UNL     1     -39.608 -50.873  13.346  1.00  0.00     0.146 C 
ENDBRANCH  14  15
ENDBRANCH   3  14
TORSDOF 4
ENDMDL
MODEL 8
REMARK VINA RESULT:      -5.4      2.609      3.342
REMARK  4 active torsions:
REMARK  status: ('A' for Active; 'I' for Inactive)
REMARK    1  A    between atoms: N_6  and  C_7 
REMARK    2  A    between atoms: C_7  and  C_8 
REMARK       I    between atoms: C_8  and  N_10 
REMARK    3  A    between atoms: N_10  and  C_11 
REMARK    4  A    between atoms: C_11  and  C_12 
ROOT
HETATM    1  C   UNL     1     -42.406 -51.073  13.040  1.00  0.00     0.237 C 
HETATM    2  O   UNL     1     -42.263 -51.926  12.165  1.00  0.00    -0.272 OA
HETATM    3  N   UNL     1     -41.753 -49.856  13.011  1.00  0.00    -0.359 N 
HETATM    4  H   UNL     1     -42.063 -49.145  13.677  1.00  0.00     0.162 HD
ENDROOT
BRANCH   1   5
HETATM    5  C   UNL     1     -43.230 -51.344  14.276  1.00  0.00     0.251 C 
BRANCH   5   6
HETATM    6  N   UNL     1     -44.644 -51.467  13.980  1.00  0.00    -0.288 N 
HETATM    7  C   UNL     1     -45.704 -51.318  14.839  1.00  0.00     0.027 A 
HETATM    8  C   UNL     1     -46.830 -51.397  14.047  1.00  0.00     0.052 A 
HETATM    9  C   UNL     1     -45.569 -51.108  16.300  1.00  0.00     0.070 C 
HETATM   10  C   UNL     1     -46.355 -51.603  12.734  1.00  0.00     0.024 A 
HETATM   11  C   UNL     1     -47.150 -51.723  11.488  1.00  0.00     0.070 C 
HETATM   12  N   UNL     1     -45.019 -51.680  12.700  1.00  0.00    -0.303 N 
ATOM     13  HN  UNL     1     -44.422 -51.858  11.893  1.00  0.00     0.186 HD
ENDBRANCH   5   6
ENDBRANCH   1   5
BRANCH   3  14
HETATM   14  C   UNL     1     -40.909 -49.463  11.899  1.00  0.00     0.128 C 
BRANCH  14  15
HETATM   15  C   UNL     1     -41.071 -47.982  11.546  1.00  0.00     0.018 C 
HETATM   16  C   UNL     1     -41.832 -47.215  12.650  1.00  0.00     0.022 C 
HETATM   17  C   UNL     1     -42.493 -45.966  12.059  1.00  0.00     0.141 C 
HETATM   18  S   UNL     1     -42.295 -46.051  10.295  1.00  0.00     0.144 S 
HETATM   19  O   UNL     1     -43.582 -45.871   9.653  1.00  0.00    -0.228 OA
HETATM   20  O   UNL     1     -41.133 -45.267   9.928  1.00  0.00    -0.228 OA
HETATM   21  C   UNL     1     -41.851 -47.768  10.250  1.00  0.00     0.146 C 
ENDBRANCH  14  15
ENDBRANCH   3  14
TORSDOF 4
ENDMDL
MODEL 9
REMARK VINA RESULT:      -5.3      4.587      6.744
REMARK  4 active torsions:
REMARK  status: ('A' for Active; 'I' for Inactive)
REMARK    1  A    between atoms: N_6  and  C_7 
REMARK    2  A    between atoms: C_7  and  C_8 
REMARK       I    between atoms: C_8  and  N_10 
REMARK    3  A    between atoms: N_10  and  C_11 
REMARK    4  A    between atoms: C_11  and  C_12 
ROOT
HETATM    1  C   UNL     1     -41.178 -52.162  12.074  1.00  0.00     0.237 C 
HETATM    2  O   UNL     1     -40.617 -53.256  12.096  1.00  0.00    -0.272 OA
HETATM    3  N   UNL     1     -42.553 -52.027  12.060  1.00  0.00    -0.359 N 
HETATM    4  H   UNL     1     -42.931 -51.091  12.220  1.00  0.00     0.162 HD
ENDROOT
BRANCH   1   5
HETATM    5  C   UNL     1     -40.393 -50.878  11.950  1.00  0.00     0.251 C 
BRANCH   5   6
HETATM    6  N   UNL     1     -39.266 -50.830  12.859  1.00  0.00    -0.288 N 
HETATM    7  C   UNL     1     -37.998 -50.368  12.612  1.00  0.00     0.027 A 
HETATM    8  C   UNL     1     -37.349 -50.409  13.827  1.00  0.00     0.052 A 
HETATM    9  C   UNL     1     -37.518 -49.926  11.281  1.00  0.00     0.070 C 
HETATM   10  C   UNL     1     -38.295 -50.916  14.744  1.00  0.00     0.024 A 
HETATM   11  C   UNL     1     -38.126 -51.130  16.201  1.00  0.00     0.070 C 
HETATM   12  N   UNL     1     -39.457 -51.204  14.144  1.00  0.00    -0.303 N 
ATOM     13  HN  UNL     1     -40.293 -51.614  14.560  1.00  0.00     0.186 HD
ENDBRANCH   5   6
ENDBRANCH   1   5
BRANCH   3  14
HETATM   14  C   UNL     1     -43.438 -53.172  12.150  1.00  0.00     0.128 C 
BRANCH  14  15
HETATM   15  C   UNL     1     -44.586 -52.938  13.136  1.00  0.00     0.018 C 
HETATM   16  C   UNL     1     -44.172 -51.979  14.274  1.00  0.00     0.022 C 
HETATM   17  C   UNL     1     -45.048 -52.219  15.506  1.00  0.00     0.141 C 
HETATM   18  S   UNL     1     -46.027 -53.667  15.183  1.00  0.00     0.144 S 
HETATM   19  O   UNL     1     -45.886 -54.603  16.280  1.00  0.00    -0.228 OA
HETATM   20  O   UNL     1     -47.322 -53.242  14.691  1.00  0.00    -0.228 OA
HETATM   21  C   UNL     1     -45.060 -54.228  13.805  1.00  0.00     0.146 C 
ENDBRANCH  14  15
ENDBRANCH   3  14
TORSDOF 4
ENDMDL
