MODEL 1
REMARK VINA RESULT:      -5.5      0.000      0.000
REMARK  3 active torsions:
REMARK  status: ('A' for Active; 'I' for Inactive)
REMARK       I    between atoms: C_2  and  N_3 
REMARK       I    between atoms: C_2  and  N_10 
REMARK    1  A    between atoms: N_3  and  C_4 
REMARK    2  A    between atoms: C_4  and  C_5 
REMARK    3  A    between atoms: N_10  and  C_11 
ROOT
HETATM    1  O   UNL     1     -44.982 -54.624  12.661  1.00  0.00    -0.247 OA
HETATM    2  C   UNL     1     -44.260 -53.636  12.576  1.00  0.00     0.322 C 
HETATM    3  N   UNL     1     -44.747 -52.363  12.537  1.00  0.00    -0.342 N 
HETATM    4  N   UNL     1     -42.913 -53.787  12.459  1.00  0.00    -0.289 N 
HETATM    5  H   UNL     1     -44.064 -51.611  12.629  1.00  0.00     0.164 HD
HETATM    6  H   UNL     1     -42.584 -54.735  12.353  1.00  0.00     0.172 HD
ENDROOT
BRANCH   3   7
HETATM    7  C   UNL     1     -46.158 -52.078  12.629  1.00  0.00     0.131 C 
BRANCH   7   8
HETATM    8  C   UNL     1     -46.562 -51.588  14.011  1.00  0.00     0.029 C 
HETATM    9  C   UNL     1     -45.424 -51.018  14.838  1.00  0.00     0.034 C 
HETATM   10  C   UNL     1     -45.783 -51.383  16.269  1.00  0.00     0.168 C 
HETATM   11  O   UNL     1     -46.922 -52.250  16.230  1.00  0.00    -0.391 OA
HETATM   12  C   UNL     1     -47.062 -52.720  14.885  1.00  0.00     0.173 C 
ENDBRANCH   7   8
ENDBRANCH   3   7
BRANCH   4  13
HETATM   13  C   UNL     1     -41.998 -52.776  12.431  1.00  0.00     0.152 A 
HETATM   14  N   UNL     1     -41.425 -52.236  11.381  1.00  0.00    -0.346 N 
HETATM   15  C   UNL     1     -40.559 -51.247  11.805  1.00  0.00     0.097 A 
ATOM     16  HN  UNL     1     -41.591 -52.504  10.411  1.00  0.00     0.167 HD
HETATM   17  C   UNL     1     -40.460 -51.089  13.173  1.00  0.00     0.070 A 
HETATM   18  S   UNL     1     -41.555 -52.156  13.955  1.00  0.00    -0.064 SA
ENDBRANCH   4  13
TORSDOF 3
ENDMDL
MODEL 2
REMARK VINA RESULT:      -5.2      2.603      3.263
REMARK  3 active torsions:
REMARK  status: ('A' for Active; 'I' for Inactive)
REMARK       I    between atoms: C_2  and  N_3 
REMARK       I    between atoms: C_2  and  N_10 
REMARK    1  A    between atoms: N_3  and  C_4 
REMARK    2  A    between atoms: C_4  and  C_5 
REMARK    3  A    between atoms: N_10  and  C_11 
ROOT
HETATM    1  O   UNL     1     -40.549 -53.032  12.058  1.00  0.00    -0.247 OA
HETATM    2  C   UNL     1     -41.122 -51.960  11.892  1.00  0.00     0.322 C 
HETATM    3  N   UNL     1     -42.463 -51.798  12.082  1.00  0.00    -0.342 N 
HETATM    4  N   UNL     1     -40.426 -50.879  11.447  1.00  0.00    -0.289 N 
HETATM    5  H   UNL     1     -42.812 -50.840  12.077  1.00  0.00     0.164 HD
HETATM    6  H   UNL     1     -39.468 -51.051  11.183  1.00  0.00     0.172 HD
ENDROOT
BRANCH   3   7
HETATM    7  C   UNL     1     -43.310 -52.876  12.530  1.00  0.00     0.131 C 
BRANCH   7   8
HETATM    8  C   UNL     1     -44.766 -52.455  12.657  1.00  0.00     0.029 C 
HETATM    9  C   UNL     1     -44.995 -51.212  13.496  1.00  0.00     0.034 C 
HETATM   10  C   UNL     1     -46.342 -51.450  14.158  1.00  0.00     0.168 C 
HETATM   11  O   UNL     1     -46.742 -52.795  13.869  1.00  0.00    -0.391 OA
HETATM   12  C   UNL     1     -45.591 -53.495  13.387  1.00  0.00     0.173 C 
ENDBRANCH   7   8
ENDBRANCH   3   7
BRANCH   4  13
HETATM   13  C   UNL     1     -40.925 -49.619  11.293  1.00  0.00     0.152 A 
HETATM   14  N   UNL     1     -41.367 -49.055  10.193  1.00  0.00    -0.346 N 
HETATM   15  C   UNL     1     -41.775 -47.768  10.485  1.00  0.00     0.097 A 
ATOM     16  HN  UNL     1     -41.403 -49.495   9.274  1.00  0.00     0.167 HD
HETATM   17  C   UNL     1     -41.590 -47.367  11.792  1.00  0.00     0.070 A 
HETATM   18  S   UNL     1     -40.964 -48.676  12.711  1.00  0.00    -0.064 SA
ENDBRANCH   4  13
TORSDOF 3
ENDMDL
MODEL 3
REMARK VINA RESULT:      -5.0      3.935      4.683
REMARK  3 active torsions:
REMARK  status: ('A' for Active; 'I' for Inactive)
REMARK       I    between atoms: C_2  and  N_3 
REMARK       I    between atoms: C_2  and  N_10 
REMARK    1  A    between atoms: N_3  and  C_4 
REMARK    2  A    between atoms: C_4  and  C_5 
REMARK    3  A    between atoms: N_10  and  C_11 
ROOT
HETATM    1  O   UNL     1     -40.758 -50.414  12.304  1.00  0.00    -0.247 OA
HETATM    2  C   UNL     1     -41.601 -49.696  11.776  1.00  0.00     0.322 C 
HETATM    3  N   UNL     1     -42.911 -49.690  12.154  1.00  0.00    -0.342 N 
HETATM    4  N   UNL     1     -41.255 -48.898  10.730  1.00  0.00    -0.289 N 
HETATM    5  H   UNL     1     -43.493 -48.947  11.768  1.00  0.00     0.164 HD
HETATM    6  H   UNL     1     -40.317 -49.015  10.379  1.00  0.00     0.172 HD
ENDROOT
BRANCH   3   7
HETATM    7  C   UNL     1     -43.402 -50.510  13.234  1.00  0.00     0.131 C 
BRANCH   7   8
HETATM    8  C   UNL     1     -44.651 -51.289  12.849  1.00  0.00     0.029 C 
HETATM    9  C   UNL     1     -45.716 -51.353  13.928  1.00  0.00     0.034 C 
HETATM   10  C   UNL     1     -46.365 -52.713  13.734  1.00  0.00     0.168 C 
HETATM   11  O   UNL     1     -45.601 -53.429  12.756  1.00  0.00    -0.391 OA
HETATM   12  C   UNL     1     -44.348 -52.753  12.606  1.00  0.00     0.173 C 
ENDBRANCH   7   8
ENDBRANCH   3   7
BRANCH   4  13
HETATM   13  C   UNL     1     -42.074 -48.002  10.108  1.00  0.00     0.152 A 
HETATM   14  N   UNL     1     -42.766 -48.174   9.006  1.00  0.00    -0.346 N 
HETATM   15  C   UNL     1     -43.455 -47.009   8.726  1.00  0.00     0.097 A 
ATOM     16  HN  UNL     1     -42.791 -49.027   8.447  1.00  0.00     0.167 HD
HETATM   17  C   UNL     1     -43.233 -45.963   9.598  1.00  0.00     0.070 A 
HETATM   18  S   UNL     1     -42.194 -46.481  10.864  1.00  0.00    -0.064 SA
ENDBRANCH   4  13
TORSDOF 3
ENDMDL
MODEL 4
REMARK VINA RESULT:      -4.9      3.177      4.558
REMARK  3 active torsions:
REMARK  status: ('A' for Active; 'I' for Inactive)
REMARK       I    between atoms: C_2  and  N_3 
REMARK       I    between atoms: C_2  and  N_10 
REMARK    1  A    between atoms: N_3  and  C_4 
REMARK    2  A    between atoms: C_4  and  C_5 
REMARK    3  A    between atoms: N_10  and  C_11 
ROOT
HETATM    1  O   UNL     1     -39.325 -51.383  12.390  1.00  0.00    -0.247 OA
HETATM    2  C   UNL     1     -40.316 -50.829  11.925  1.00  0.00     0.322 C 
HETATM    3  N   UNL     1     -41.500 -51.475  11.722  1.00  0.00    -0.342 N 
HETATM    4  N   UNL     1     -40.247 -49.528  11.536  1.00  0.00    -0.289 N 
HETATM    5  H   UNL     1     -42.303 -50.893  11.488  1.00  0.00     0.164 HD
HETATM    6  H   UNL     1     -39.331 -49.107  11.568  1.00  0.00     0.172 HD
ENDROOT
BRANCH   3   7
HETATM    7  C   UNL     1     -41.687 -52.862  12.073  1.00  0.00     0.131 C 
BRANCH   7   8
HETATM    8  C   UNL     1     -42.797 -53.057  13.095  1.00  0.00     0.029 C 
HETATM    9  C   UNL     1     -42.590 -54.227  14.039  1.00  0.00     0.034 C 
HETATM   10  C   UNL     1     -43.995 -54.734  14.320  1.00  0.00     0.168 C 
HETATM   11  O   UNL     1     -44.896 -54.032  13.456  1.00  0.00    -0.391 OA
HETATM   12  C   UNL     1     -44.116 -53.402  12.435  1.00  0.00     0.173 C 
ENDBRANCH   7   8
ENDBRANCH   3   7
BRANCH   4  13
HETATM   13  C   UNL     1     -41.290 -48.778  11.077  1.00  0.00     0.152 A 
HETATM   14  N   UNL     1     -41.619 -48.531   9.831  1.00  0.00    -0.346 N 
HETATM   15  C   UNL     1     -42.739 -47.724   9.816  1.00  0.00     0.097 A 
ATOM     16  HN  UNL     1     -41.127 -48.879   9.008  1.00  0.00     0.167 HD
HETATM   17  C   UNL     1     -43.210 -47.336  11.054  1.00  0.00     0.070 A 
HETATM   18  S   UNL     1     -42.270 -48.080  12.284  1.00  0.00    -0.064 SA
ENDBRANCH   4  13
TORSDOF 3
ENDMDL
MODEL 5
REMARK VINA RESULT:      -4.7      4.497      6.165
REMARK  3 active torsions:
REMARK  status: ('A' for Active; 'I' for Inactive)
REMARK       I    between atoms: C_2  and  N_3 
REMARK       I    between atoms: C_2  and  N_10 
REMARK    1  A    between atoms: N_3  and  C_4 
REMARK    2  A    between atoms: C_4  and  C_5 
REMARK    3  A    between atoms: N_10  and  C_11 
ROOT
HETATM    1  O   UNL     1     -40.196 -48.902  11.224  1.00  0.00    -0.247 OA
HETATM    2  C   UNL     1     -41.394 -48.841  10.964  1.00  0.00     0.322 C 
HETATM    3  N   UNL     1     -42.339 -49.542  11.651  1.00  0.00    -0.342 N 
HETATM    4  N   UNL     1     -41.823 -48.089   9.915  1.00  0.00    -0.289 N 
HETATM    5  H   UNL     1     -43.312 -49.299  11.466  1.00  0.00     0.164 HD
HETATM    6  H   UNL     1     -41.100 -47.687   9.337  1.00  0.00     0.172 HD
ENDROOT
BRANCH   3   7
HETATM    7  C   UNL     1     -42.003 -50.392  12.768  1.00  0.00     0.131 C 
BRANCH   7   8
HETATM    8  C   UNL     1     -41.729 -51.826  12.344  1.00  0.00     0.029 C 
HETATM    9  C   UNL     1     -42.561 -52.870  13.066  1.00  0.00     0.034 C 
HETATM   10  C   UNL     1     -41.644 -54.078  13.161  1.00  0.00     0.168 C 
HETATM   11  O   UNL     1     -40.345 -53.682  12.706  1.00  0.00    -0.391 OA
HETATM   12  C   UNL     1     -40.314 -52.251  12.679  1.00  0.00     0.173 C 
ENDBRANCH   7   8
ENDBRANCH   3   7
BRANCH   4  13
HETATM   13  C   UNL     1     -43.125 -47.878   9.567  1.00  0.00     0.152 A 
HETATM   14  N   UNL     1     -44.154 -47.704  10.362  1.00  0.00    -0.346 N 
HETATM   15  C   UNL     1     -45.288 -47.528   9.593  1.00  0.00     0.097 A 
ATOM     16  HN  UNL     1     -44.121 -47.699  11.382  1.00  0.00     0.167 HD
HETATM   17  C   UNL     1     -45.101 -47.619   8.229  1.00  0.00     0.070 A 
HETATM   18  S   UNL     1     -43.432 -47.845   7.891  1.00  0.00    -0.064 SA
ENDBRANCH   4  13
TORSDOF 3
ENDMDL
MODEL 6
REMARK VINA RESULT:      -4.5      4.019      5.920
REMARK  3 active torsions:
REMARK  status: ('A' for Active; 'I' for Inactive)
REMARK       I    between atoms: C_2  and  N_3 
REMARK       I    between atoms: C_2  and  N_10 
REMARK    1  A    between atoms: N_3  and  C_4 
REMARK    2  A    between atoms: C_4  and  C_5 
REMARK    3  A    between atoms: N_10  and  C_11 
ROOT
HETATM    1  O   UNL     1     -38.319 -49.073  12.179  1.00  0.00    -0.247 OA
HETATM    2  C   UNL     1     -39.483 -49.053  11.790  1.00  0.00     0.322 C 
HETATM    3  N   UNL     1     -40.323 -50.120  11.909  1.00  0.00    -0.342 N 
HETATM    4  N   UNL     1     -39.969 -47.950  11.160  1.00  0.00    -0.289 N 
HETATM    5  H   UNL     1     -41.308 -49.949  11.705  1.00  0.00     0.164 HD
HETATM    6  H   UNL     1     -39.297 -47.224  10.961  1.00  0.00     0.172 HD
ENDROOT
BRANCH   3   7
HETATM    7  C   UNL     1     -39.915 -51.352  12.537  1.00  0.00     0.131 C 
BRANCH   7   8
HETATM    8  C   UNL     1     -40.873 -52.497  12.245  1.00  0.00     0.029 C 
HETATM    9  C   UNL     1     -42.336 -52.175  12.486  1.00  0.00     0.034 C 
HETATM   10  C   UNL     1     -42.937 -53.490  12.954  1.00  0.00     0.168 C 
HETATM   11  O   UNL     1     -41.864 -54.420  13.145  1.00  0.00    -0.391 OA
HETATM   12  C   UNL     1     -40.643 -53.673  13.171  1.00  0.00     0.173 C 
ENDBRANCH   7   8
ENDBRANCH   3   7
BRANCH   4  13
HETATM   13  C   UNL     1     -41.257 -47.771  10.748  1.00  0.00     0.152 A 
HETATM   14  N   UNL     1     -41.799 -48.142   9.612  1.00  0.00    -0.346 N 
HETATM   15  C   UNL     1     -43.126 -47.758   9.605  1.00  0.00     0.097 A 
ATOM     16  HN  UNL     1     -41.319 -48.633   8.858  1.00  0.00     0.167 HD
HETATM   17  C   UNL     1     -43.550 -47.062  10.718  1.00  0.00     0.070 A 
HETATM   18  S   UNL     1     -42.267 -46.960  11.855  1.00  0.00    -0.064 SA
ENDBRANCH   4  13
TORSDOF 3
ENDMDL
MODEL 7
REMARK VINA RESULT:      -4.4      4.353      6.531
REMARK  3 active torsions:
REMARK  status: ('A' for Active; 'I' for Inactive)
REMARK       I    between atoms: C_2  and  N_3 
REMARK       I    between atoms: C_2  and  N_10 
REMARK    1  A    between atoms: N_3  and  C_4 
REMARK    2  A    between atoms: C_4  and  C_5 
REMARK    3  A    between atoms: N_10  and  C_11 
ROOT
HETATM    1  O   UNL     1     -41.488 -48.948  11.118  1.00  0.00    -0.247 OA
HETATM    2  C   UNL     1     -41.061 -49.978  11.630  1.00  0.00     0.322 C 
HETATM    3  N   UNL     1     -39.779 -50.109  12.073  1.00  0.00    -0.342 N 
HETATM    4  N   UNL     1     -41.863 -51.073  11.724  1.00  0.00    -0.289 N 
HETATM    5  H   UNL     1     -39.570 -50.940  12.626  1.00  0.00     0.164 HD
HETATM    6  H   UNL     1     -42.761 -51.001  11.270  1.00  0.00     0.172 HD
ENDROOT
BRANCH   3   7
HETATM    7  C   UNL     1     -38.828 -49.025  12.004  1.00  0.00     0.131 C 
BRANCH   7   8
HETATM    8  C   UNL     1     -37.687 -49.191  12.996  1.00  0.00     0.029 C 
HETATM    9  C   UNL     1     -37.670 -50.522  13.726  1.00  0.00     0.034 C 
HETATM   10  C   UNL     1     -37.112 -50.189  15.099  1.00  0.00     0.168 C 
HETATM   11  O   UNL     1     -37.008 -48.764  15.198  1.00  0.00    -0.391 OA
HETATM   12  C   UNL     1     -37.784 -48.198  14.137  1.00  0.00     0.173 C 
ENDBRANCH   7   8
ENDBRANCH   3   7
BRANCH   4  13
HETATM   13  C   UNL     1     -41.536 -52.248  12.334  1.00  0.00     0.152 A 
HETATM   14  N   UNL     1     -40.882 -53.266  11.826  1.00  0.00    -0.346 N 
HETATM   15  C   UNL     1     -40.776 -54.252  12.788  1.00  0.00     0.097 A 
ATOM     16  HN  UNL     1     -40.513 -53.319  10.877  1.00  0.00     0.167 HD
HETATM   17  C   UNL     1     -41.393 -53.979  13.991  1.00  0.00     0.070 A 
HETATM   18  S   UNL     1     -42.056 -52.396  13.950  1.00  0.00    -0.064 SA
ENDBRANCH   4  13
TORSDOF 3
ENDMDL
MODEL 8
REMARK VINA RESULT:      -4.4      2.375      3.128
REMARK  3 active torsions:
REMARK  status: ('A' for Active; 'I' for Inactive)
REMARK       I    between atoms: C_2  and  N_3 
REMARK       I    between atoms: C_2  and  N_10 
REMARK    1  A    between atoms: N_3  and  C_4 
REMARK    2  A    between atoms: C_4  and  C_5 
REMARK    3  A    between atoms: N_10  and  C_11 
ROOT
HETATM    1  O   UNL     1     -41.141 -54.235  12.701  1.00  0.00    -0.247 OA
HETATM    2  C   UNL     1     -41.226 -53.013  12.757  1.00  0.00     0.322 C 
HETATM    3  N   UNL     1     -41.853 -52.359  13.776  1.00  0.00    -0.342 N 
HETATM    4  N   UNL     1     -40.729 -52.250  11.746  1.00  0.00    -0.289 N 
HETATM    5  H   UNL     1     -41.728 -51.348  13.815  1.00  0.00     0.164 HD
HETATM    6  H   UNL     1     -40.391 -52.754  10.940  1.00  0.00     0.172 HD
ENDROOT
BRANCH   3   7
HETATM    7  C   UNL     1     -42.439 -53.061  14.893  1.00  0.00     0.131 C 
BRANCH   7   8
HETATM    8  C   UNL     1     -43.922 -53.334  14.691  1.00  0.00     0.029 C 
HETATM    9  C   UNL     1     -44.794 -53.006  15.889  1.00  0.00     0.034 C 
HETATM   10  C   UNL     1     -45.908 -54.039  15.834  1.00  0.00     0.168 C 
HETATM   11  O   UNL     1     -45.581 -54.983  14.808  1.00  0.00    -0.391 OA
HETATM   12  C   UNL     1     -44.199 -54.808  14.482  1.00  0.00     0.173 C 
ENDBRANCH   7   8
ENDBRANCH   3   7
BRANCH   4  13
HETATM   13  C   UNL     1     -40.693 -50.887  11.722  1.00  0.00     0.152 A 
HETATM   14  N   UNL     1     -41.648 -50.061  11.364  1.00  0.00    -0.346 N 
HETATM   15  C   UNL     1     -41.185 -48.765  11.485  1.00  0.00     0.097 A 
ATOM     16  HN  UNL     1     -42.579 -50.332  11.049  1.00  0.00     0.167 HD
HETATM   17  C   UNL     1     -39.872 -48.637  11.887  1.00  0.00     0.070 A 
HETATM   18  S   UNL     1     -39.217 -50.191  12.212  1.00  0.00    -0.064 SA
ENDBRANCH   4  13
TORSDOF 3
ENDMDL
MODEL 9
REMARK VINA RESULT:      -4.2      3.401      4.363
REMARK  3 active torsions:
REMARK  status: ('A' for Active; 'I' for Inactive)
REMARK       I    between atoms: C_2  and  N_3 
REMARK       I    between atoms: C_2  and  N_10 
REMARK    1  A    between atoms: N_3  and  C_4 
REMARK    2  A    between atoms: C_4  and  C_5 
REMARK    3  A    between atoms: N_10  and  C_11 
ROOT
HETATM    1  O   UNL     1     -42.982 -49.945  12.719  1.00  0.00    -0.247 OA
HETATM    2  C   UNL     1     -41.863 -50.406  12.517  1.00  0.00     0.322 C 
HETATM    3  N   UNL     1     -41.630 -51.739  12.347  1.00  0.00    -0.342 N 
HETATM    4  N   UNL     1     -40.781 -49.583  12.509  1.00  0.00    -0.289 N 
HETATM    5  H   UNL     1     -40.700 -52.001  12.025  1.00  0.00     0.164 HD
HETATM    6  H   UNL     1     -40.955 -48.624  12.770  1.00  0.00     0.172 HD
ENDROOT
BRANCH   3   7
HETATM    7  C   UNL     1     -42.695 -52.712  12.359  1.00  0.00     0.131 C 
BRANCH   7   8
HETATM    8  C   UNL     1     -42.338 -53.953  13.163  1.00  0.00     0.029 C 
HETATM    9  C   UNL     1     -43.404 -54.398  14.147  1.00  0.00     0.034 C 
HETATM   10  C   UNL     1     -42.619 -54.987  15.307  1.00  0.00     0.168 C 
HETATM   11  O   UNL     1     -41.231 -54.718  15.081  1.00  0.00    -0.391 OA
HETATM   12  C   UNL     1     -41.144 -53.714  14.065  1.00  0.00     0.173 C 
ENDBRANCH   7   8
ENDBRANCH   3   7
BRANCH   4  13
HETATM   13  C   UNL     1     -39.500 -49.956  12.224  1.00  0.00     0.152 A 
HETATM   14  N   UNL     1     -38.879 -49.888  11.070  1.00  0.00    -0.346 N 
HETATM   15  C   UNL     1     -37.595 -50.375  11.225  1.00  0.00     0.097 A 
ATOM     16  HN  UNL     1     -39.278 -49.533  10.201  1.00  0.00     0.167 HD
HETATM   17  C   UNL     1     -37.286 -50.846  12.485  1.00  0.00     0.070 A 
HETATM   18  S   UNL     1     -38.619 -50.590  13.537  1.00  0.00    -0.064 SA
ENDBRANCH   4  13
TORSDOF 3
ENDMDL
