MODEL 1
REMARK VINA RESULT:      -6.5      0.000      0.000
REMARK  4 active torsions:
REMARK  status: ('A' for Active; 'I' for Inactive)
REMARK       I    between atoms: N_2  and  C_3 
REMARK    1  A    between atoms: C_3  and  C_5 
REMARK    2  A    between atoms: C_5  and  N_6 
REMARK    3  A    between atoms: C_9  and  N_12 
REMARK       I    between atoms: N_12  and  C_13 
REMARK       I    between atoms: C_13  and  N_15 
REMARK    4  A    between atoms: N_15  and  C_16 
ROOT
HETATM    1  N   UNL     1     -43.409 -49.491  12.532  1.00  0.00    -0.338 N 
HETATM    2  C   UNL     1     -43.882 -50.491  13.356  1.00  0.00     0.321 C 
HETATM    3  O   UNL     1     -43.459 -50.674  14.488  1.00  0.00    -0.247 OA
HETATM    4  N   UNL     1     -44.804 -51.276  12.690  1.00  0.00    -0.309 N 
HETATM    5  H   UNL     1     -44.114 -49.074  11.932  1.00  0.00     0.164 HD
HETATM    6  H   UNL     1     -44.626 -51.335  11.697  1.00  0.00     0.170 HD
ENDROOT
BRANCH   1   7
HETATM    7  C   UNL     1     -42.308 -48.639  12.977  1.00  0.00     0.089 C 
HETATM    8  C   UNL     1     -42.677 -47.154  12.965  1.00  0.00     0.055 C 
HETATM    9  C   UNL     1     -42.689 -46.586  11.548  1.00  0.00     0.275 C 
HETATM   10  N   UNL     1     -41.453 -46.822  10.775  1.00  0.00     0.097 N 
HETATM   11  C   UNL     1     -41.123 -48.257  10.764  1.00  0.00     0.275 C 
HETATM   12  C   UNL     1     -41.046 -48.899  12.151  1.00  0.00     0.055 C 
BRANCH  10  13
HETATM   13  C   UNL     1     -40.299 -46.023  11.270  1.00  0.00     0.374 C 
BRANCH  13  14
HETATM   14  C   UNL     1     -39.874 -44.935  10.277  1.00  0.00     0.245 C 
HETATM   15  N   UNL     1     -38.841 -45.302   9.443  1.00  0.00    -0.364 N 
HETATM   16  C   UNL     1     -38.445 -44.460   8.347  1.00  0.00     0.149 C 
HETATM   17  H   UNL     1     -38.644 -46.299   9.417  1.00  0.00     0.161 HD
HETATM   18  O   UNL     1     -40.390 -43.821  10.269  1.00  0.00    -0.272 OA
ENDBRANCH  13  14
ENDBRANCH  10  13
ENDBRANCH   1   7
BRANCH   4  19
HETATM   19  C   UNL     1     -45.344 -52.423  13.305  1.00  0.00     0.038 A 
HETATM   20  C   UNL     1     -44.805 -53.688  13.090  1.00  0.00     0.046 A 
HETATM   21  C   UNL     1     -45.437 -54.774  13.671  1.00  0.00     0.090 A 
HETATM   22  N   UNL     1     -46.550 -54.674  14.429  1.00  0.00    -0.375 N 
HETATM   23  C   UNL     1     -47.041 -53.433  14.628  1.00  0.00     0.090 A 
ATOM     24  HN  UNL     1     -46.997 -55.497  14.832  1.00  0.00     0.164 HD
HETATM   25  C   UNL     1     -46.462 -52.281  14.121  1.00  0.00     0.046 A 
ENDBRANCH   4  19
TORSDOF 4
ENDMDL
MODEL 2
REMARK VINA RESULT:      -5.7      4.170      8.089
REMARK  4 active torsions:
REMARK  status: ('A' for Active; 'I' for Inactive)
REMARK       I    between atoms: N_2  and  C_3 
REMARK    1  A    between atoms: C_3  and  C_5 
REMARK    2  A    between atoms: C_5  and  N_6 
REMARK    3  A    between atoms: C_9  and  N_12 
REMARK       I    between atoms: N_12  and  C_13 
REMARK       I    between atoms: C_13  and  N_15 
REMARK    4  A    between atoms: N_15  and  C_16 
ROOT
HETATM    1  N   UNL     1     -41.868 -50.511  11.904  1.00  0.00    -0.338 N 
HETATM    2  C   UNL     1     -42.448 -49.268  11.759  1.00  0.00     0.321 C 
HETATM    3  O   UNL     1     -43.200 -48.784  12.593  1.00  0.00    -0.247 OA
HETATM    4  N   UNL     1     -42.131 -48.722  10.529  1.00  0.00    -0.309 N 
HETATM    5  H   UNL     1     -40.927 -50.581  11.528  1.00  0.00     0.164 HD
HETATM    6  H   UNL     1     -41.994 -49.421   9.812  1.00  0.00     0.170 HD
ENDROOT
BRANCH   1   7
HETATM    7  C   UNL     1     -42.199 -51.340  13.061  1.00  0.00     0.089 C 
HETATM    8  C   UNL     1     -41.223 -51.138  14.222  1.00  0.00     0.055 C 
HETATM    9  C   UNL     1     -39.889 -51.835  13.966  1.00  0.00     0.275 C 
HETATM   10  N   UNL     1     -39.994 -53.265  13.616  1.00  0.00     0.097 N 
HETATM   11  C   UNL     1     -40.910 -53.447  12.478  1.00  0.00     0.275 C 
HETATM   12  C   UNL     1     -42.290 -52.816  12.670  1.00  0.00     0.055 C 
BRANCH  10  13
HETATM   13  C   UNL     1     -40.413 -54.114  14.766  1.00  0.00     0.374 C 
BRANCH  13  14
HETATM   14  C   UNL     1     -39.217 -54.724  15.506  1.00  0.00     0.245 C 
HETATM   15  N   UNL     1     -38.839 -54.033  16.638  1.00  0.00    -0.364 N 
HETATM   16  C   UNL     1     -37.850 -54.570  17.532  1.00  0.00     0.149 C 
HETATM   17  H   UNL     1     -39.520 -53.358  16.975  1.00  0.00     0.161 HD
HETATM   18  O   UNL     1     -38.628 -55.718  15.090  1.00  0.00    -0.272 OA
ENDBRANCH  13  14
ENDBRANCH  10  13
ENDBRANCH   1   7
BRANCH   4  19
HETATM   19  C   UNL     1     -42.699 -47.499  10.122  1.00  0.00     0.038 A 
HETATM   20  C   UNL     1     -42.225 -46.280  10.600  1.00  0.00     0.046 A 
HETATM   21  C   UNL     1     -42.884 -45.127  10.210  1.00  0.00     0.090 A 
HETATM   22  N   UNL     1     -43.962 -45.119   9.398  1.00  0.00    -0.375 N 
HETATM   23  C   UNL     1     -44.390 -46.315   8.943  1.00  0.00     0.090 A 
ATOM     24  HN  UNL     1     -44.431 -44.250   9.141  1.00  0.00     0.164 HD
HETATM   25  C   UNL     1     -43.778 -47.521   9.245  1.00  0.00     0.046 A 
ENDBRANCH   4  19
TORSDOF 4
ENDMDL
MODEL 3
REMARK VINA RESULT:      -5.4      4.897      5.620
REMARK  4 active torsions:
REMARK  status: ('A' for Active; 'I' for Inactive)
REMARK       I    between atoms: N_2  and  C_3 
REMARK    1  A    between atoms: C_3  and  C_5 
REMARK    2  A    between atoms: C_5  and  N_6 
REMARK    3  A    between atoms: C_9  and  N_12 
REMARK       I    between atoms: N_12  and  C_13 
REMARK       I    between atoms: C_13  and  N_15 
REMARK    4  A    between atoms: N_15  and  C_16 
ROOT
HETATM    1  N   UNL     1     -39.871 -51.938  14.051  1.00  0.00    -0.338 N 
HETATM    2  C   UNL     1     -39.463 -53.197  14.441  1.00  0.00     0.321 C 
HETATM    3  O   UNL     1     -38.995 -54.015  13.662  1.00  0.00    -0.247 OA
HETATM    4  N   UNL     1     -39.745 -53.408  15.778  1.00  0.00    -0.309 N 
HETATM    5  H   UNL     1     -39.706 -51.212  14.741  1.00  0.00     0.164 HD
HETATM    6  H   UNL     1     -40.563 -52.906  16.091  1.00  0.00     0.170 HD
ENDROOT
BRANCH   1   7
HETATM    7  C   UNL     1     -39.816 -51.558  12.641  1.00  0.00     0.089 C 
HETATM    8  C   UNL     1     -39.080 -50.235  12.421  1.00  0.00     0.055 C 
HETATM    9  C   UNL     1     -39.937 -49.037  12.824  1.00  0.00     0.275 C 
HETATM   10  N   UNL     1     -41.276 -48.997  12.205  1.00  0.00     0.097 N 
HETATM   11  C   UNL     1     -41.990 -50.261  12.448  1.00  0.00     0.275 C 
HETATM   12  C   UNL     1     -41.218 -51.515  12.030  1.00  0.00     0.055 C 
BRANCH  10  13
HETATM   13  C   UNL     1     -41.232 -48.694  10.747  1.00  0.00     0.374 C 
BRANCH  13  14
HETATM   14  C   UNL     1     -42.470 -47.923  10.275  1.00  0.00     0.245 C 
HETATM   15  N   UNL     1     -42.749 -48.068   8.933  1.00  0.00    -0.364 N 
HETATM   16  C   UNL     1     -43.968 -47.549   8.375  1.00  0.00     0.149 C 
HETATM   17  H   UNL     1     -42.263 -48.833   8.474  1.00  0.00     0.161 HD
HETATM   18  O   UNL     1     -43.120 -47.205  11.030  1.00  0.00    -0.272 OA
ENDBRANCH  13  14
ENDBRANCH  10  13
ENDBRANCH   1   7
BRANCH   4  19
HETATM   19  C   UNL     1     -39.509 -54.666  16.368  1.00  0.00     0.038 A 
HETATM   20  C   UNL     1     -38.249 -55.024  16.840  1.00  0.00     0.046 A 
HETATM   21  C   UNL     1     -38.080 -56.304  17.338  1.00  0.00     0.090 A 
HETATM   22  N   UNL     1     -39.066 -57.224  17.387  1.00  0.00    -0.375 N 
HETATM   23  C   UNL     1     -40.278 -56.842  16.933  1.00  0.00     0.090 A 
ATOM     24  HN  UNL     1     -38.902 -58.164  17.750  1.00  0.00     0.164 HD
HETATM   25  C   UNL     1     -40.558 -55.575  16.449  1.00  0.00     0.046 A 
ENDBRANCH   4  19
TORSDOF 4
ENDMDL
MODEL 4
REMARK VINA RESULT:      -5.4      1.822      2.335
REMARK  4 active torsions:
REMARK  status: ('A' for Active; 'I' for Inactive)
REMARK       I    between atoms: N_2  and  C_3 
REMARK    1  A    between atoms: C_3  and  C_5 
REMARK    2  A    between atoms: C_5  and  N_6 
REMARK    3  A    between atoms: C_9  and  N_12 
REMARK       I    between atoms: N_12  and  C_13 
REMARK       I    between atoms: C_13  and  N_15 
REMARK    4  A    between atoms: N_15  and  C_16 
ROOT
HETATM    1  N   UNL     1     -42.708 -49.761  11.912  1.00  0.00    -0.338 N 
HETATM    2  C   UNL     1     -43.322 -50.755  12.645  1.00  0.00     0.321 C 
HETATM    3  O   UNL     1     -44.175 -50.526  13.491  1.00  0.00    -0.247 OA
HETATM    4  N   UNL     1     -42.772 -51.988  12.351  1.00  0.00    -0.309 N 
HETATM    5  H   UNL     1     -42.490 -50.021  10.954  1.00  0.00     0.164 HD
HETATM    6  H   UNL     1     -41.797 -51.933  12.091  1.00  0.00     0.170 HD
ENDROOT
BRANCH   1   7
HETATM    7  C   UNL     1     -43.020 -48.359  12.179  1.00  0.00     0.089 C 
HETATM    8  C   UNL     1     -43.745 -47.689  11.009  1.00  0.00     0.055 C 
HETATM    9  C   UNL     1     -42.791 -47.372   9.859  1.00  0.00     0.275 C 
HETATM   10  N   UNL     1     -41.595 -46.597  10.243  1.00  0.00     0.097 N 
HETATM   11  C   UNL     1     -40.885 -47.265  11.347  1.00  0.00     0.275 C 
HETATM   12  C   UNL     1     -41.760 -47.580  12.562  1.00  0.00     0.055 C 
BRANCH  10  13
HETATM   13  C   UNL     1     -41.908 -45.186  10.601  1.00  0.00     0.374 C 
BRANCH  13  14
HETATM   14  C   UNL     1     -40.650 -44.378  10.940  1.00  0.00     0.245 C 
HETATM   15  N   UNL     1     -40.598 -43.933  12.244  1.00  0.00    -0.364 N 
HETATM   16  C   UNL     1     -39.410 -43.312  12.763  1.00  0.00     0.149 C 
HETATM   17  H   UNL     1     -41.259 -44.377  12.875  1.00  0.00     0.161 HD
HETATM   18  O   UNL     1     -39.793 -44.119  10.101  1.00  0.00    -0.272 OA
ENDBRANCH  13  14
ENDBRANCH  10  13
ENDBRANCH   1   7
BRANCH   4  19
HETATM   19  C   UNL     1     -43.175 -53.138  13.059  1.00  0.00     0.038 A 
HETATM   20  C   UNL     1     -44.421 -53.724  12.851  1.00  0.00     0.046 A 
HETATM   21  C   UNL     1     -44.772 -54.806  13.639  1.00  0.00     0.090 A 
HETATM   22  N   UNL     1     -43.977 -55.321  14.600  1.00  0.00    -0.375 N 
HETATM   23  C   UNL     1     -42.772 -54.738  14.770  1.00  0.00     0.090 A 
ATOM     24  HN  UNL     1     -44.274 -56.113  15.171  1.00  0.00     0.164 HD
HETATM   25  C   UNL     1     -42.313 -53.675  14.010  1.00  0.00     0.046 A 
ENDBRANCH   4  19
TORSDOF 4
ENDMDL
MODEL 5
REMARK VINA RESULT:      -5.4      4.564      7.027
REMARK  4 active torsions:
REMARK  status: ('A' for Active; 'I' for Inactive)
REMARK       I    between atoms: N_2  and  C_3 
REMARK    1  A    between atoms: C_3  and  C_5 
REMARK    2  A    between atoms: C_5  and  N_6 
REMARK    3  A    between atoms: C_9  and  N_12 
REMARK       I    between atoms: N_12  and  C_13 
REMARK       I    between atoms: C_13  and  N_15 
REMARK    4  A    between atoms: N_15  and  C_16 
ROOT
HETATM    1  N   UNL     1     -39.726 -47.707  13.014  1.00  0.00    -0.338 N 
HETATM    2  C   UNL     1     -38.616 -48.319  13.558  1.00  0.00     0.321 C 
HETATM    3  O   UNL     1     -37.812 -48.953  12.890  1.00  0.00    -0.247 OA
HETATM    4  N   UNL     1     -38.612 -48.186  14.934  1.00  0.00    -0.309 N 
HETATM    5  H   UNL     1     -39.978 -46.827  13.454  1.00  0.00     0.164 HD
HETATM    6  H   UNL     1     -39.542 -48.142  15.328  1.00  0.00     0.170 HD
ENDROOT
BRANCH   1   7
HETATM    7  C   UNL     1     -40.018 -47.859  11.590  1.00  0.00     0.089 C 
HETATM    8  C   UNL     1     -40.453 -46.544  10.939  1.00  0.00     0.055 C 
HETATM    9  C   UNL     1     -41.889 -46.178  11.307  1.00  0.00     0.275 C 
HETATM   10  N   UNL     1     -42.883 -47.240  11.052  1.00  0.00     0.097 N 
HETATM   11  C   UNL     1     -42.474 -48.492  11.708  1.00  0.00     0.275 C 
HETATM   12  C   UNL     1     -41.058 -48.957  11.358  1.00  0.00     0.055 C 
BRANCH  10  13
HETATM   13  C   UNL     1     -43.130 -47.466   9.601  1.00  0.00     0.374 C 
BRANCH  13  14
HETATM   14  C   UNL     1     -44.531 -47.015   9.171  1.00  0.00     0.245 C 
HETATM   15  N   UNL     1     -45.482 -48.012   9.207  1.00  0.00    -0.364 N 
HETATM   16  C   UNL     1     -46.872 -47.711   8.999  1.00  0.00     0.149 C 
HETATM   17  H   UNL     1     -45.211 -48.844   9.724  1.00  0.00     0.161 HD
HETATM   18  O   UNL     1     -44.760 -45.872   8.786  1.00  0.00    -0.272 OA
ENDBRANCH  13  14
ENDBRANCH  10  13
ENDBRANCH   1   7
BRANCH   4  19
HETATM   19  C   UNL     1     -37.625 -48.824  15.711  1.00  0.00     0.038 A 
HETATM   20  C   UNL     1     -36.383 -48.237  15.936  1.00  0.00     0.046 A 
HETATM   21  C   UNL     1     -35.439 -48.958  16.646  1.00  0.00     0.090 A 
HETATM   22  N   UNL     1     -35.655 -50.200  17.128  1.00  0.00    -0.375 N 
HETATM   23  C   UNL     1     -36.873 -50.737  16.903  1.00  0.00     0.090 A 
ATOM     24  HN  UNL     1     -34.932 -50.709  17.638  1.00  0.00     0.164 HD
HETATM   25  C   UNL     1     -37.895 -50.084  16.235  1.00  0.00     0.046 A 
ENDBRANCH   4  19
TORSDOF 4
ENDMDL
MODEL 6
REMARK VINA RESULT:      -5.3      3.453      4.241
REMARK  4 active torsions:
REMARK  status: ('A' for Active; 'I' for Inactive)
REMARK       I    between atoms: N_2  and  C_3 
REMARK    1  A    between atoms: C_3  and  C_5 
REMARK    2  A    between atoms: C_5  and  N_6 
REMARK    3  A    between atoms: C_9  and  N_12 
REMARK       I    between atoms: N_12  and  C_13 
REMARK       I    between atoms: C_13  and  N_15 
REMARK    4  A    between atoms: N_15  and  C_16 
ROOT
HETATM    1  N   UNL     1     -42.290 -49.171  11.236  1.00  0.00    -0.338 N 
HETATM    2  C   UNL     1     -42.019 -50.133  12.188  1.00  0.00     0.321 C 
HETATM    3  O   UNL     1     -42.513 -50.119  13.306  1.00  0.00    -0.247 OA
HETATM    4  N   UNL     1     -41.066 -51.021  11.725  1.00  0.00    -0.309 N 
HETATM    5  H   UNL     1     -42.322 -49.521  10.284  1.00  0.00     0.164 HD
HETATM    6  H   UNL     1     -40.415 -50.598  11.079  1.00  0.00     0.170 HD
ENDROOT
BRANCH   1   7
HETATM    7  C   UNL     1     -43.150 -48.037  11.570  1.00  0.00     0.089 C 
HETATM    8  C   UNL     1     -43.855 -47.458  10.342  1.00  0.00     0.055 C 
HETATM    9  C   UNL     1     -42.905 -46.627   9.483  1.00  0.00     0.275 C 
HETATM   10  N   UNL     1     -42.177 -45.570  10.213  1.00  0.00     0.097 N 
HETATM   11  C   UNL     1     -41.474 -46.140  11.374  1.00  0.00     0.275 C 
HETATM   12  C   UNL     1     -42.365 -46.955  12.314  1.00  0.00     0.055 C 
BRANCH  10  13
HETATM   13  C   UNL     1     -43.056 -44.445  10.634  1.00  0.00     0.374 C 
BRANCH  13  14
HETATM   14  C   UNL     1     -42.269 -43.301  11.285  1.00  0.00     0.245 C 
HETATM   15  N   UNL     1     -42.700 -42.965  12.550  1.00  0.00    -0.364 N 
HETATM   16  C   UNL     1     -41.959 -42.033  13.357  1.00  0.00     0.149 C 
HETATM   17  H   UNL     1     -43.313 -43.646  12.989  1.00  0.00     0.161 HD
HETATM   18  O   UNL     1     -41.363 -42.715  10.698  1.00  0.00    -0.272 OA
ENDBRANCH  13  14
ENDBRANCH  10  13
ENDBRANCH   1   7
BRANCH   4  19
HETATM   19  C   UNL     1     -40.558 -52.028  12.569  1.00  0.00     0.038 A 
HETATM   20  C   UNL     1     -39.479 -51.794  13.416  1.00  0.00     0.046 A 
HETATM   21  C   UNL     1     -38.991 -52.855  14.159  1.00  0.00     0.090 A 
HETATM   22  N   UNL     1     -39.499 -54.104  14.103  1.00  0.00    -0.375 N 
HETATM   23  C   UNL     1     -40.552 -54.296  13.281  1.00  0.00     0.090 A 
ATOM     24  HN  UNL     1     -39.106 -54.866  14.656  1.00  0.00     0.164 HD
HETATM   25  C   UNL     1     -41.136 -53.293  12.524  1.00  0.00     0.046 A 
ENDBRANCH   4  19
TORSDOF 4
ENDMDL
MODEL 7
REMARK VINA RESULT:      -5.3      4.056      8.381
REMARK  4 active torsions:
REMARK  status: ('A' for Active; 'I' for Inactive)
REMARK       I    between atoms: N_2  and  C_3 
REMARK    1  A    between atoms: C_3  and  C_5 
REMARK    2  A    between atoms: C_5  and  N_6 
REMARK    3  A    between atoms: C_9  and  N_12 
REMARK       I    between atoms: N_12  and  C_13 
REMARK       I    between atoms: C_13  and  N_15 
REMARK    4  A    between atoms: N_15  and  C_16 
ROOT
HETATM    1  N   UNL     1     -41.668 -50.497  12.453  1.00  0.00    -0.338 N 
HETATM    2  C   UNL     1     -41.804 -49.463  11.551  1.00  0.00     0.321 C 
HETATM    3  O   UNL     1     -40.971 -49.218  10.691  1.00  0.00    -0.247 OA
HETATM    4  N   UNL     1     -42.938 -48.721  11.827  1.00  0.00    -0.309 N 
HETATM    5  H   UNL     1     -42.541 -50.952  12.705  1.00  0.00     0.164 HD
HETATM    6  H   UNL     1     -43.172 -48.711  12.810  1.00  0.00     0.170 HD
ENDROOT
BRANCH   1   7
HETATM    7  C   UNL     1     -40.456 -51.314  12.449  1.00  0.00     0.089 C 
HETATM    8  C   UNL     1     -40.738 -52.776  12.096  1.00  0.00     0.055 C 
HETATM    9  C   UNL     1     -41.373 -53.527  13.263  1.00  0.00     0.275 C 
HETATM   10  N   UNL     1     -40.632 -53.433  14.537  1.00  0.00     0.097 N 
HETATM   11  C   UNL     1     -40.393 -52.023  14.886  1.00  0.00     0.275 C 
HETATM   12  C   UNL     1     -39.717 -51.204  13.784  1.00  0.00     0.055 C 
BRANCH  10  13
HETATM   13  C   UNL     1     -39.350 -54.192  14.520  1.00  0.00     0.374 C 
BRANCH  13  14
HETATM   14  C   UNL     1     -39.328 -55.320  15.558  1.00  0.00     0.245 C 
HETATM   15  N   UNL     1     -40.511 -55.479  16.247  1.00  0.00    -0.364 N 
HETATM   16  C   UNL     1     -40.705 -56.598  17.128  1.00  0.00     0.149 C 
HETATM   17  H   UNL     1     -41.313 -55.006  15.837  1.00  0.00     0.161 HD
HETATM   18  O   UNL     1     -38.320 -55.986  15.777  1.00  0.00    -0.272 OA
ENDBRANCH  13  14
ENDBRANCH  10  13
ENDBRANCH   1   7
BRANCH   4  19
HETATM   19  C   UNL     1     -43.222 -47.551  11.096  1.00  0.00     0.038 A 
HETATM   20  C   UNL     1     -44.088 -47.564  10.006  1.00  0.00     0.046 A 
HETATM   21  C   UNL     1     -44.259 -46.391   9.294  1.00  0.00     0.090 A 
HETATM   22  N   UNL     1     -43.628 -45.236   9.594  1.00  0.00    -0.375 N 
HETATM   23  C   UNL     1     -42.803 -45.252  10.662  1.00  0.00     0.090 A 
ATOM     24  HN  UNL     1     -43.767 -44.391   9.039  1.00  0.00     0.164 HD
HETATM   25  C   UNL     1     -42.593 -46.365  11.460  1.00  0.00     0.046 A 
ENDBRANCH   4  19
TORSDOF 4
ENDMDL
MODEL 8
REMARK VINA RESULT:      -5.2      2.023      2.626
REMARK  4 active torsions:
REMARK  status: ('A' for Active; 'I' for Inactive)
REMARK       I    between atoms: N_2  and  C_3 
REMARK    1  A    between atoms: C_3  and  C_5 
REMARK    2  A    between atoms: C_5  and  N_6 
REMARK    3  A    between atoms: C_9  and  N_12 
REMARK       I    between atoms: N_12  and  C_13 
REMARK       I    between atoms: C_13  and  N_15 
REMARK    4  A    between atoms: N_15  and  C_16 
ROOT
HETATM    1  N   UNL     1     -41.028 -50.186  12.949  1.00  0.00    -0.338 N 
HETATM    2  C   UNL     1     -41.633 -51.416  12.795  1.00  0.00     0.321 C 
HETATM    3  O   UNL     1     -41.529 -52.086  11.777  1.00  0.00    -0.247 OA
HETATM    4  N   UNL     1     -42.421 -51.712  13.892  1.00  0.00    -0.309 N 
HETATM    5  H   UNL     1     -40.704 -49.994  13.892  1.00  0.00     0.164 HD
HETATM    6  H   UNL     1     -42.809 -50.890  14.331  1.00  0.00     0.170 HD
ENDROOT
BRANCH   1   7
HETATM    7  C   UNL     1     -40.276 -49.600  11.841  1.00  0.00     0.089 C 
HETATM    8  C   UNL     1     -39.117 -48.724  12.321  1.00  0.00     0.055 C 
HETATM    9  C   UNL     1     -39.606 -47.377  12.847  1.00  0.00     0.275 C 
HETATM   10  N   UNL     1     -40.475 -46.628  11.918  1.00  0.00     0.097 N 
HETATM   11  C   UNL     1     -41.605 -47.466  11.486  1.00  0.00     0.275 C 
HETATM   12  C   UNL     1     -41.200 -48.822  10.903  1.00  0.00     0.055 C 
BRANCH  10  13
HETATM   13  C   UNL     1     -39.738 -46.095  10.738  1.00  0.00     0.374 C 
BRANCH  13  14
HETATM   14  C   UNL     1     -39.955 -44.589  10.548  1.00  0.00     0.245 C 
HETATM   15  N   UNL     1     -40.481 -43.949  11.650  1.00  0.00    -0.364 N 
HETATM   16  C   UNL     1     -40.582 -42.516  11.690  1.00  0.00     0.149 C 
HETATM   17  H   UNL     1     -40.443 -44.483  12.514  1.00  0.00     0.161 HD
HETATM   18  O   UNL     1     -39.719 -44.024   9.484  1.00  0.00    -0.272 OA
ENDBRANCH  13  14
ENDBRANCH  10  13
ENDBRANCH   1   7
BRANCH   4  19
HETATM   19  C   UNL     1     -43.217 -52.875  13.908  1.00  0.00     0.038 A 
HETATM   20  C   UNL     1     -44.495 -52.891  13.356  1.00  0.00     0.046 A 
HETATM   21  C   UNL     1     -45.243 -54.049  13.477  1.00  0.00     0.090 A 
HETATM   22  N   UNL     1     -44.804 -55.160  14.105  1.00  0.00    -0.375 N 
HETATM   23  C   UNL     1     -43.557 -55.117  14.619  1.00  0.00     0.090 A 
ATOM     24  HN  UNL     1     -45.388 -55.994  14.187  1.00  0.00     0.164 HD
HETATM   25  C   UNL     1     -42.717 -54.020  14.519  1.00  0.00     0.046 A 
ENDBRANCH   4  19
TORSDOF 4
ENDMDL
MODEL 9
REMARK VINA RESULT:      -5.2      7.804      9.413
REMARK  4 active torsions:
REMARK  status: ('A' for Active; 'I' for Inactive)
REMARK       I    between atoms: N_2  and  C_3 
REMARK    1  A    between atoms: C_3  and  C_5 
REMARK    2  A    between atoms: C_5  and  N_6 
REMARK    3  A    between atoms: C_9  and  N_12 
REMARK       I    between atoms: N_12  and  C_13 
REMARK       I    between atoms: C_13  and  N_15 
REMARK    4  A    between atoms: N_15  and  C_16 
ROOT
HETATM    1  N   UNL     1     -40.876 -54.895  17.300  1.00  0.00    -0.338 N 
HETATM    2  C   UNL     1     -42.132 -55.260  16.864  1.00  0.00     0.321 C 
HETATM    3  O   UNL     1     -42.573 -56.394  16.983  1.00  0.00    -0.247 OA
HETATM    4  N   UNL     1     -42.747 -54.208  16.212  1.00  0.00    -0.309 N 
HETATM    5  H   UNL     1     -40.817 -53.949  17.665  1.00  0.00     0.164 HD
HETATM    6  H   UNL     1     -42.091 -53.596  15.746  1.00  0.00     0.170 HD
ENDROOT
BRANCH   1   7
HETATM    7  C   UNL     1     -39.983 -55.899  17.875  1.00  0.00     0.089 C 
HETATM    8  C   UNL     1     -39.079 -55.320  18.966  1.00  0.00     0.055 C 
HETATM    9  C   UNL     1     -37.943 -54.487  18.377  1.00  0.00     0.275 C 
HETATM   10  N   UNL     1     -37.141 -55.176  17.347  1.00  0.00     0.097 N 
HETATM   11  C   UNL     1     -38.014 -55.701  16.285  1.00  0.00     0.275 C 
HETATM   12  C   UNL     1     -39.157 -56.586  16.786  1.00  0.00     0.055 C 
BRANCH  10  13
HETATM   13  C   UNL     1     -36.287 -56.260  17.906  1.00  0.00     0.374 C 
BRANCH  13  14
HETATM   14  C   UNL     1     -34.816 -56.112  17.500  1.00  0.00     0.245 C 
HETATM   15  N   UNL     1     -34.223 -54.947  17.938  1.00  0.00    -0.364 N 
HETATM   16  C   UNL     1     -32.808 -54.740  17.786  1.00  0.00     0.149 C 
HETATM   17  H   UNL     1     -34.737 -54.448  18.658  1.00  0.00     0.161 HD
HETATM   18  O   UNL     1     -34.242 -56.946  16.805  1.00  0.00    -0.272 OA
ENDBRANCH  13  14
ENDBRANCH  10  13
ENDBRANCH   1   7
BRANCH   4  19
HETATM   19  C   UNL     1     -43.999 -54.385  15.591  1.00  0.00     0.038 A 
HETATM   20  C   UNL     1     -44.115 -54.985  14.341  1.00  0.00     0.046 A 
HETATM   21  C   UNL     1     -45.371 -55.055  13.764  1.00  0.00     0.090 A 
HETATM   22  N   UNL     1     -46.488 -54.569  14.344  1.00  0.00    -0.375 N 
HETATM   23  C   UNL     1     -46.345 -54.003  15.561  1.00  0.00     0.090 A 
ATOM     24  HN  UNL     1     -47.398 -54.626  13.885  1.00  0.00     0.164 HD
HETATM   25  C   UNL     1     -45.139 -53.916  16.237  1.00  0.00     0.046 A 
ENDBRANCH   4  19
TORSDOF 4
ENDMDL
