MODEL 1
REMARK VINA RESULT:      -6.0      0.000      0.000
REMARK  6 active torsions:
REMARK  status: ('A' for Active; 'I' for Inactive)
REMARK    1  A    between atoms: O_1  and  C_2 
REMARK    2  A    between atoms: C_2  and  C_3 
REMARK    3  A    between atoms: C_3  and  N_4 
REMARK    4  A    between atoms: C_6  and  N_7 
REMARK       I    between atoms: N_7  and  C_8 
REMARK       I    between atoms: C_8  and  N_10 
REMARK    5  A    between atoms: N_10  and  C_11 
REMARK    6  A    between atoms: C_11  and  C_12 
ROOT
HETATM    1  N   UNL     1     -40.863 -49.208  10.536  1.00  0.00    -0.306 N 
HETATM    2  C   UNL     1     -41.909 -48.341  10.761  1.00  0.00     0.320 C 
HETATM    3  O   UNL     1     -42.602 -48.289  11.770  1.00  0.00    -0.247 OA
HETATM    4  N   UNL     1     -42.108 -47.475   9.702  1.00  0.00    -0.342 N 
HETATM    5  H   UNL     1     -40.293 -49.067   9.717  1.00  0.00     0.171 HD
HETATM    6  H   UNL     1     -41.856 -47.818   8.787  1.00  0.00     0.164 HD
ENDROOT
BRANCH   1   7
HETATM    7  C   UNL     1     -40.452 -50.177  11.437  1.00  0.00     0.070 A 
HETATM    8  C   UNL     1     -41.123 -51.311  11.826  1.00  0.00     0.141 A 
HETATM    9  N   UNL     1     -40.333 -51.938  12.743  1.00  0.00    -0.299 N 
HETATM   10  N   UNL     1     -39.175 -51.292  12.978  1.00  0.00    -0.308 N 
HETATM   11  C   UNL     1     -39.246 -50.226  12.172  1.00  0.00     0.138 A 
ATOM     12  HN  UNL     1     -38.424 -51.553  13.618  1.00  0.00     0.186 HD
BRANCH   9  13
HETATM   13  C   UNL     1     -40.653 -53.160  13.446  1.00  0.00     0.174 C 
BRANCH  13  14
HETATM   14  C   UNL     1     -39.460 -53.697  14.223  1.00  0.00     0.185 C 
BRANCH  14  15
HETATM   15  O   UNL     1     -38.652 -54.504  13.368  1.00  0.00    -0.399 OA
HETATM   16  H   UNL     1     -37.849 -53.991  13.170  1.00  0.00     0.209 HD
ENDBRANCH  14  15
ENDBRANCH  13  14
ENDBRANCH   9  13
ENDBRANCH   1   7
BRANCH   4  17
HETATM   17  C   UNL     1     -43.231 -46.559   9.791  1.00  0.00     0.129 C 
BRANCH  17  18
HETATM   18  C   UNL     1     -44.358 -46.886   8.819  1.00  0.00     0.003 C 
HETATM   19  C   UNL     1     -45.642 -47.374   9.494  1.00  0.00     0.006 C 
HETATM   20  C   UNL     1     -46.250 -48.416   8.552  1.00  0.00     0.000 C 
HETATM   21  C   UNL     1     -45.321 -48.494   7.346  1.00  0.00     0.000 C 
HETATM   22  C   UNL     1     -43.978 -48.028   7.877  1.00  0.00     0.006 C 
ENDBRANCH  17  18
ENDBRANCH   4  17
TORSDOF 6
ENDMDL
MODEL 2
REMARK VINA RESULT:      -5.8      2.984      6.730
REMARK  6 active torsions:
REMARK  status: ('A' for Active; 'I' for Inactive)
REMARK    1  A    between atoms: O_1  and  C_2 
REMARK    2  A    between atoms: C_2  and  C_3 
REMARK    3  A    between atoms: C_3  and  N_4 
REMARK    4  A    between atoms: C_6  and  N_7 
REMARK       I    between atoms: N_7  and  C_8 
REMARK       I    between atoms: C_8  and  N_10 
REMARK    5  A    between atoms: N_10  and  C_11 
REMARK    6  A    between atoms: C_11  and  C_12 
ROOT
HETATM    1  N   UNL     1     -40.803 -50.738  11.002  1.00  0.00    -0.306 N 
HETATM    2  C   UNL     1     -41.034 -51.518  12.112  1.00  0.00     0.320 C 
HETATM    3  O   UNL     1     -41.114 -51.124  13.271  1.00  0.00    -0.247 OA
HETATM    4  N   UNL     1     -41.196 -52.853  11.791  1.00  0.00    -0.342 N 
HETATM    5  H   UNL     1     -40.884 -51.164  10.093  1.00  0.00     0.171 HD
HETATM    6  H   UNL     1     -40.705 -53.181  10.972  1.00  0.00     0.164 HD
ENDROOT
BRANCH   1   7
HETATM    7  C   UNL     1     -40.608 -49.367  11.045  1.00  0.00     0.070 A 
HETATM    8  C   UNL     1     -41.479 -48.374  10.663  1.00  0.00     0.141 A 
HETATM    9  N   UNL     1     -40.837 -47.190  10.871  1.00  0.00    -0.299 N 
HETATM   10  N   UNL     1     -39.597 -47.337  11.376  1.00  0.00    -0.308 N 
HETATM   11  C   UNL     1     -39.466 -48.664  11.492  1.00  0.00     0.138 A 
ATOM     12  HN  UNL     1     -38.921 -46.611  11.612  1.00  0.00     0.186 HD
BRANCH   9  13
HETATM   13  C   UNL     1     -41.365 -45.876  10.580  1.00  0.00     0.174 C 
BRANCH  13  14
HETATM   14  C   UNL     1     -40.271 -44.818  10.552  1.00  0.00     0.185 C 
BRANCH  14  15
HETATM   15  O   UNL     1     -39.543 -44.911   9.329  1.00  0.00    -0.399 OA
HETATM   16  H   UNL     1     -39.788 -45.757   8.916  1.00  0.00     0.209 HD
ENDBRANCH  14  15
ENDBRANCH  13  14
ENDBRANCH   9  13
ENDBRANCH   1   7
BRANCH   4  17
HETATM   17  C   UNL     1     -41.373 -53.787  12.888  1.00  0.00     0.129 C 
BRANCH  17  18
HETATM   18  C   UNL     1     -42.746 -53.701  13.541  1.00  0.00     0.003 C 
HETATM   19  C   UNL     1     -43.030 -54.817  14.550  1.00  0.00     0.006 C 
HETATM   20  C   UNL     1     -44.522 -55.134  14.427  1.00  0.00     0.000 C 
HETATM   21  C   UNL     1     -45.074 -54.186  13.369  1.00  0.00     0.000 C 
HETATM   22  C   UNL     1     -43.870 -53.836  12.514  1.00  0.00     0.006 C 
ENDBRANCH  17  18
ENDBRANCH   4  17
TORSDOF 6
ENDMDL
MODEL 3
REMARK VINA RESULT:      -5.6      3.533      6.303
REMARK  6 active torsions:
REMARK  status: ('A' for Active; 'I' for Inactive)
REMARK    1  A    between atoms: O_1  and  C_2 
REMARK    2  A    between atoms: C_2  and  C_3 
REMARK    3  A    between atoms: C_3  and  N_4 
REMARK    4  A    between atoms: C_6  and  N_7 
REMARK       I    between atoms: N_7  and  C_8 
REMARK       I    between atoms: C_8  and  N_10 
REMARK    5  A    between atoms: N_10  and  C_11 
REMARK    6  A    between atoms: C_11  and  C_12 
ROOT
HETATM    1  N   UNL     1     -41.821 -50.008  11.501  1.00  0.00    -0.306 N 
HETATM    2  C   UNL     1     -42.353 -50.342  12.726  1.00  0.00     0.320 C 
HETATM    3  O   UNL     1     -42.595 -49.567  13.646  1.00  0.00    -0.247 OA
HETATM    4  N   UNL     1     -42.623 -51.694  12.831  1.00  0.00    -0.342 N 
HETATM    5  H   UNL     1     -41.785 -50.717  10.786  1.00  0.00     0.171 HD
HETATM    6  H   UNL     1     -42.035 -52.312  12.291  1.00  0.00     0.164 HD
ENDROOT
BRANCH   1   7
HETATM    7  C   UNL     1     -41.462 -48.721  11.137  1.00  0.00     0.070 A 
HETATM    8  C   UNL     1     -40.424 -47.961  11.621  1.00  0.00     0.141 A 
HETATM    9  N   UNL     1     -40.485 -46.761  10.978  1.00  0.00    -0.299 N 
HETATM   10  N   UNL     1     -41.495 -46.682  10.092  1.00  0.00    -0.308 N 
HETATM   11  C   UNL     1     -42.081 -47.882  10.183  1.00  0.00     0.138 A 
ATOM     12  HN  UNL     1     -41.753 -45.895   9.495  1.00  0.00     0.186 HD
BRANCH   9  13
HETATM   13  C   UNL     1     -39.602 -45.636  11.194  1.00  0.00     0.174 C 
BRANCH  13  14
HETATM   14  C   UNL     1     -39.912 -44.482  10.252  1.00  0.00     0.185 C 
BRANCH  14  15
HETATM   15  O   UNL     1     -39.364 -44.752   8.964  1.00  0.00    -0.399 OA
HETATM   16  H   UNL     1     -39.179 -45.706   8.928  1.00  0.00     0.209 HD
ENDBRANCH  14  15
ENDBRANCH  13  14
ENDBRANCH   9  13
ENDBRANCH   1   7
BRANCH   4  17
HETATM   17  C   UNL     1     -43.120 -52.180  14.105  1.00  0.00     0.129 C 
BRANCH  17  18
HETATM   18  C   UNL     1     -44.625 -52.411  14.119  1.00  0.00     0.003 C 
HETATM   19  C   UNL     1     -45.256 -52.504  12.728  1.00  0.00     0.006 C 
HETATM   20  C   UNL     1     -46.642 -51.866  12.844  1.00  0.00     0.000 C 
HETATM   21  C   UNL     1     -46.794 -51.437  14.299  1.00  0.00     0.000 C 
HETATM   22  C   UNL     1     -45.368 -51.254  14.785  1.00  0.00     0.006 C 
ENDBRANCH  17  18
ENDBRANCH   4  17
TORSDOF 6
ENDMDL
MODEL 4
REMARK VINA RESULT:      -5.6      2.567      7.219
REMARK  6 active torsions:
REMARK  status: ('A' for Active; 'I' for Inactive)
REMARK    1  A    between atoms: O_1  and  C_2 
REMARK    2  A    between atoms: C_2  and  C_3 
REMARK    3  A    between atoms: C_3  and  N_4 
REMARK    4  A    between atoms: C_6  and  N_7 
REMARK       I    between atoms: N_7  and  C_8 
REMARK       I    between atoms: C_8  and  N_10 
REMARK    5  A    between atoms: N_10  and  C_11 
REMARK    6  A    between atoms: C_11  and  C_12 
ROOT
HETATM    1  N   UNL     1     -41.615 -49.424  10.771  1.00  0.00    -0.306 N 
HETATM    2  C   UNL     1     -41.337 -50.192  11.879  1.00  0.00     0.320 C 
HETATM    3  O   UNL     1     -41.392 -49.824  13.048  1.00  0.00    -0.247 OA
HETATM    4  N   UNL     1     -40.990 -51.488  11.545  1.00  0.00    -0.342 N 
HETATM    5  H   UNL     1     -41.654 -49.878   9.872  1.00  0.00     0.171 HD
HETATM    6  H   UNL     1     -40.540 -51.617  10.651  1.00  0.00     0.164 HD
ENDROOT
BRANCH   1   7
HETATM    7  C   UNL     1     -41.989 -48.091  10.827  1.00  0.00     0.070 A 
HETATM    8  C   UNL     1     -41.179 -46.982  10.800  1.00  0.00     0.141 A 
HETATM    9  N   UNL     1     -41.997 -45.897  10.900  1.00  0.00    -0.299 N 
HETATM   10  N   UNL     1     -43.302 -46.219  10.983  1.00  0.00    -0.308 N 
HETATM   11  C   UNL     1     -43.294 -47.557  10.926  1.00  0.00     0.138 A 
ATOM     12  HN  UNL     1     -44.104 -45.594  11.069  1.00  0.00     0.186 HD
BRANCH   9  13
HETATM   13  C   UNL     1     -41.574 -44.515  10.943  1.00  0.00     0.174 C 
BRANCH  13  14
HETATM   14  C   UNL     1     -42.731 -43.576  11.254  1.00  0.00     0.185 C 
BRANCH  14  15
HETATM   15  O   UNL     1     -43.580 -43.464  10.113  1.00  0.00    -0.399 OA
HETATM   16  H   UNL     1     -44.484 -43.327  10.445  1.00  0.00     0.209 HD
ENDBRANCH  14  15
ENDBRANCH  13  14
ENDBRANCH   9  13
ENDBRANCH   1   7
BRANCH   4  17
HETATM   17  C   UNL     1     -40.603 -52.376  12.627  1.00  0.00     0.129 C 
BRANCH  17  18
HETATM   18  C   UNL     1     -41.582 -53.520  12.851  1.00  0.00     0.003 C 
HETATM   19  C   UNL     1     -43.039 -53.164  12.543  1.00  0.00     0.006 C 
HETATM   20  C   UNL     1     -43.890 -53.934  13.557  1.00  0.00     0.000 C 
HETATM   21  C   UNL     1     -42.914 -54.732  14.413  1.00  0.00     0.000 C 
HETATM   22  C   UNL     1     -41.611 -53.962  14.314  1.00  0.00     0.006 C 
ENDBRANCH  17  18
ENDBRANCH   4  17
TORSDOF 6
ENDMDL
MODEL 5
REMARK VINA RESULT:      -5.5      2.875      6.964
REMARK  6 active torsions:
REMARK  status: ('A' for Active; 'I' for Inactive)
REMARK    1  A    between atoms: O_1  and  C_2 
REMARK    2  A    between atoms: C_2  and  C_3 
REMARK    3  A    between atoms: C_3  and  N_4 
REMARK    4  A    between atoms: C_6  and  N_7 
REMARK       I    between atoms: N_7  and  C_8 
REMARK       I    between atoms: C_8  and  N_10 
REMARK    5  A    between atoms: N_10  and  C_11 
REMARK    6  A    between atoms: C_11  and  C_12 
ROOT
HETATM    1  N   UNL     1     -42.875 -49.200  11.787  1.00  0.00    -0.306 N 
HETATM    2  C   UNL     1     -42.024 -50.260  12.007  1.00  0.00     0.320 C 
HETATM    3  O   UNL     1     -40.831 -50.301  11.728  1.00  0.00    -0.247 OA
HETATM    4  N   UNL     1     -42.660 -51.325  12.618  1.00  0.00    -0.342 N 
HETATM    5  H   UNL     1     -43.804 -49.245  12.174  1.00  0.00     0.171 HD
HETATM    6  H   UNL     1     -43.645 -51.431  12.425  1.00  0.00     0.164 HD
ENDROOT
BRANCH   1   7
HETATM    7  C   UNL     1     -42.491 -48.010  11.191  1.00  0.00     0.070 A 
HETATM    8  C   UNL     1     -41.999 -46.879  11.797  1.00  0.00     0.141 A 
HETATM    9  N   UNL     1     -41.786 -45.966  10.807  1.00  0.00    -0.299 N 
HETATM   10  N   UNL     1     -42.099 -46.427   9.581  1.00  0.00    -0.308 N 
HETATM   11  C   UNL     1     -42.517 -47.677   9.818  1.00  0.00     0.138 A 
ATOM     12  HN  UNL     1     -42.034 -45.940   8.687  1.00  0.00     0.186 HD
BRANCH   9  13
HETATM   13  C   UNL     1     -41.298 -44.617  10.987  1.00  0.00     0.174 C 
BRANCH  13  14
HETATM   14  C   UNL     1     -39.817 -44.501  10.659  1.00  0.00     0.185 C 
BRANCH  14  15
HETATM   15  O   UNL     1     -39.600 -44.824   9.287  1.00  0.00    -0.399 OA
HETATM   16  H   UNL     1     -38.942 -45.540   9.265  1.00  0.00     0.209 HD
ENDBRANCH  14  15
ENDBRANCH  13  14
ENDBRANCH   9  13
ENDBRANCH   1   7
BRANCH   4  17
HETATM   17  C   UNL     1     -41.883 -52.532  12.836  1.00  0.00     0.129 C 
BRANCH  17  18
HETATM   18  C   UNL     1     -42.739 -53.779  13.012  1.00  0.00     0.003 C 
HETATM   19  C   UNL     1     -44.187 -53.614  12.544  1.00  0.00     0.006 C 
HETATM   20  C   UNL     1     -45.042 -54.449  13.501  1.00  0.00     0.000 C 
HETATM   21  C   UNL     1     -44.074 -55.094  14.486  1.00  0.00     0.000 C 
HETATM   22  C   UNL     1     -42.868 -54.173  14.483  1.00  0.00     0.006 C 
ENDBRANCH  17  18
ENDBRANCH   4  17
TORSDOF 6
ENDMDL
MODEL 6
REMARK VINA RESULT:      -5.5      3.774      6.105
REMARK  6 active torsions:
REMARK  status: ('A' for Active; 'I' for Inactive)
REMARK    1  A    between atoms: O_1  and  C_2 
REMARK    2  A    between atoms: C_2  and  C_3 
REMARK    3  A    between atoms: C_3  and  N_4 
REMARK    4  A    between atoms: C_6  and  N_7 
REMARK       I    between atoms: N_7  and  C_8 
REMARK       I    between atoms: C_8  and  N_10 
REMARK    5  A    between atoms: N_10  and  C_11 
REMARK    6  A    between atoms: C_11  and  C_12 
ROOT
HETATM    1  N   UNL     1     -41.962 -52.556  11.810  1.00  0.00    -0.306 N 
HETATM    2  C   UNL     1     -41.656 -51.243  12.091  1.00  0.00     0.320 C 
HETATM    3  O   UNL     1     -41.988 -50.620  13.093  1.00  0.00    -0.247 OA
HETATM    4  N   UNL     1     -40.884 -50.662  11.102  1.00  0.00    -0.342 N 
HETATM    5  H   UNL     1     -41.526 -52.989  11.011  1.00  0.00     0.171 HD
HETATM    6  H   UNL     1     -41.012 -51.016  10.165  1.00  0.00     0.164 HD
ENDROOT
BRANCH   1   7
HETATM    7  C   UNL     1     -42.722 -53.368  12.636  1.00  0.00     0.070 A 
HETATM    8  C   UNL     1     -44.047 -53.708  12.504  1.00  0.00     0.141 A 
HETATM    9  N   UNL     1     -44.353 -54.507  13.566  1.00  0.00    -0.299 N 
HETATM   10  N   UNL     1     -43.309 -54.723  14.389  1.00  0.00    -0.308 N 
HETATM   11  C   UNL     1     -42.314 -54.037  13.812  1.00  0.00     0.138 A 
ATOM     12  HN  UNL     1     -43.283 -55.276  15.246  1.00  0.00     0.186 HD
BRANCH   9  13
HETATM   13  C   UNL     1     -45.650 -55.077  13.853  1.00  0.00     0.174 C 
BRANCH  13  14
HETATM   14  C   UNL     1     -46.387 -54.297  14.932  1.00  0.00     0.185 C 
BRANCH  14  15
HETATM   15  O   UNL     1     -45.792 -54.553  16.203  1.00  0.00    -0.399 OA
HETATM   16  H   UNL     1     -46.055 -55.453  16.463  1.00  0.00     0.209 HD
ENDBRANCH  14  15
ENDBRANCH  13  14
ENDBRANCH   9  13
ENDBRANCH   1   7
BRANCH   4  17
HETATM   17  C   UNL     1     -40.557 -49.255  11.250  1.00  0.00     0.129 C 
BRANCH  17  18
HETATM   18  C   UNL     1     -39.156 -49.014  11.796  1.00  0.00     0.003 C 
HETATM   19  C   UNL     1     -38.297 -50.277  11.892  1.00  0.00     0.006 C 
HETATM   20  C   UNL     1     -37.427 -50.108  13.140  1.00  0.00     0.000 C 
HETATM   21  C   UNL     1     -37.784 -48.747  13.727  1.00  0.00     0.000 C 
HETATM   22  C   UNL     1     -39.191 -48.481  13.228  1.00  0.00     0.006 C 
ENDBRANCH  17  18
ENDBRANCH   4  17
TORSDOF 6
ENDMDL
MODEL 7
REMARK VINA RESULT:      -5.4      3.773      6.766
REMARK  6 active torsions:
REMARK  status: ('A' for Active; 'I' for Inactive)
REMARK    1  A    between atoms: O_1  and  C_2 
REMARK    2  A    between atoms: C_2  and  C_3 
REMARK    3  A    between atoms: C_3  and  N_4 
REMARK    4  A    between atoms: C_6  and  N_7 
REMARK       I    between atoms: N_7  and  C_8 
REMARK       I    between atoms: C_8  and  N_10 
REMARK    5  A    between atoms: N_10  and  C_11 
REMARK    6  A    between atoms: C_11  and  C_12 
ROOT
HETATM    1  N   UNL     1     -42.812 -49.179  13.100  1.00  0.00    -0.306 N 
HETATM    2  C   UNL     1     -42.950 -50.513  13.413  1.00  0.00     0.320 C 
HETATM    3  O   UNL     1     -42.892 -51.452  12.626  1.00  0.00    -0.247 OA
HETATM    4  N   UNL     1     -43.154 -50.715  14.765  1.00  0.00    -0.342 N 
HETATM    5  H   UNL     1     -42.757 -48.514  13.854  1.00  0.00     0.171 HD
HETATM    6  H   UNL     1     -43.622 -49.974  15.265  1.00  0.00     0.164 HD
ENDROOT
BRANCH   1   7
HETATM    7  C   UNL     1     -42.598 -48.703  11.816  1.00  0.00     0.070 A 
HETATM    8  C   UNL     1     -43.461 -47.983  11.025  1.00  0.00     0.141 A 
HETATM    9  N   UNL     1     -42.816 -47.763   9.844  1.00  0.00    -0.299 N 
HETATM   10  N   UNL     1     -41.576 -48.286   9.808  1.00  0.00    -0.308 N 
HETATM   11  C   UNL     1     -41.442 -48.848  11.016  1.00  0.00     0.138 A 
ATOM     12  HN  UNL     1     -40.900 -48.260   9.044  1.00  0.00     0.186 HD
BRANCH   9  13
HETATM   13  C   UNL     1     -43.358 -47.067   8.698  1.00  0.00     0.174 C 
BRANCH  13  14
HETATM   14  C   UNL     1     -43.836 -48.032   7.623  1.00  0.00     0.185 C 
BRANCH  14  15
HETATM   15  O   UNL     1     -42.714 -48.663   7.008  1.00  0.00    -0.399 OA
HETATM   16  H   UNL     1     -42.559 -49.495   7.489  1.00  0.00     0.209 HD
ENDBRANCH  14  15
ENDBRANCH  13  14
ENDBRANCH   9  13
ENDBRANCH   1   7
BRANCH   4  17
HETATM   17  C   UNL     1     -43.387 -52.078  15.209  1.00  0.00     0.129 C 
BRANCH  17  18
HETATM   18  C   UNL     1     -44.822 -52.334  15.650  1.00  0.00     0.003 C 
HETATM   19  C   UNL     1     -45.542 -53.414  14.839  1.00  0.00     0.006 C 
HETATM   20  C   UNL     1     -47.004 -52.971  14.740  1.00  0.00     0.000 C 
HETATM   21  C   UNL     1     -47.105 -51.660  15.511  1.00  0.00     0.000 C 
HETATM   22  C   UNL     1     -45.698 -51.094  15.473  1.00  0.00     0.006 C 
ENDBRANCH  17  18
ENDBRANCH   4  17
TORSDOF 6
ENDMDL
MODEL 8
REMARK VINA RESULT:      -5.3      2.771      7.574
REMARK  6 active torsions:
REMARK  status: ('A' for Active; 'I' for Inactive)
REMARK    1  A    between atoms: O_1  and  C_2 
REMARK    2  A    between atoms: C_2  and  C_3 
REMARK    3  A    between atoms: C_3  and  N_4 
REMARK    4  A    between atoms: C_6  and  N_7 
REMARK       I    between atoms: N_7  and  C_8 
REMARK       I    between atoms: C_8  and  N_10 
REMARK    5  A    between atoms: N_10  and  C_11 
REMARK    6  A    between atoms: C_11  and  C_12 
ROOT
HETATM    1  N   UNL     1     -40.584 -50.431  11.062  1.00  0.00    -0.306 N 
HETATM    2  C   UNL     1     -41.231 -51.302  11.909  1.00  0.00     0.320 C 
HETATM    3  O   UNL     1     -42.101 -51.009  12.723  1.00  0.00    -0.247 OA
HETATM    4  N   UNL     1     -40.808 -52.607  11.743  1.00  0.00    -0.342 N 
HETATM    5  H   UNL     1     -39.977 -50.814  10.355  1.00  0.00     0.171 HD
HETATM    6  H   UNL     1     -39.855 -52.735  11.435  1.00  0.00     0.164 HD
ENDROOT
BRANCH   1   7
HETATM    7  C   UNL     1     -40.822 -49.067  11.024  1.00  0.00     0.070 A 
HETATM    8  C   UNL     1     -40.104 -48.064  11.631  1.00  0.00     0.141 A 
HETATM    9  N   UNL     1     -40.732 -46.893  11.324  1.00  0.00    -0.299 N 
HETATM   10  N   UNL     1     -41.816 -47.059  10.543  1.00  0.00    -0.308 N 
HETATM   11  C   UNL     1     -41.861 -48.383  10.353  1.00  0.00     0.138 A 
ATOM     12  HN  UNL     1     -42.452 -46.346  10.184  1.00  0.00     0.186 HD
BRANCH   9  13
HETATM   13  C   UNL     1     -40.340 -45.576  11.775  1.00  0.00     0.174 C 
BRANCH  13  14
HETATM   14  C   UNL     1     -39.592 -44.806  10.697  1.00  0.00     0.185 C 
BRANCH  14  15
HETATM   15  O   UNL     1     -40.127 -45.128   9.415  1.00  0.00    -0.399 OA
HETATM   16  H   UNL     1     -40.106 -44.312   8.886  1.00  0.00     0.209 HD
ENDBRANCH  14  15
ENDBRANCH  13  14
ENDBRANCH   9  13
ENDBRANCH   1   7
BRANCH   4  17
HETATM   17  C   UNL     1     -41.367 -53.609  12.633  1.00  0.00     0.129 C 
BRANCH  17  18
HETATM   18  C   UNL     1     -40.654 -53.692  13.976  1.00  0.00     0.003 C 
HETATM   19  C   UNL     1     -39.295 -54.394  13.921  1.00  0.00     0.006 C 
HETATM   20  C   UNL     1     -39.152 -55.151  15.243  1.00  0.00     0.000 C 
HETATM   21  C   UNL     1     -40.416 -54.857  16.042  1.00  0.00     0.000 C 
HETATM   22  C   UNL     1     -41.452 -54.511  14.990  1.00  0.00     0.006 C 
ENDBRANCH  17  18
ENDBRANCH   4  17
TORSDOF 6
ENDMDL
MODEL 9
REMARK VINA RESULT:      -5.3      1.624      2.551
REMARK  6 active torsions:
REMARK  status: ('A' for Active; 'I' for Inactive)
REMARK    1  A    between atoms: O_1  and  C_2 
REMARK    2  A    between atoms: C_2  and  C_3 
REMARK    3  A    between atoms: C_3  and  N_4 
REMARK    4  A    between atoms: C_6  and  N_7 
REMARK       I    between atoms: N_7  and  C_8 
REMARK       I    between atoms: C_8  and  N_10 
REMARK    5  A    between atoms: N_10  and  C_11 
REMARK    6  A    between atoms: C_11  and  C_12 
ROOT
HETATM    1  N   UNL     1     -40.806 -51.046  11.361  1.00  0.00    -0.306 N 
HETATM    2  C   UNL     1     -41.021 -49.724  11.677  1.00  0.00     0.320 C 
HETATM    3  O   UNL     1     -41.280 -49.278  12.790  1.00  0.00    -0.247 OA
HETATM    4  N   UNL     1     -40.894 -48.895  10.578  1.00  0.00    -0.342 N 
HETATM    5  H   UNL     1     -40.479 -51.269  10.434  1.00  0.00     0.171 HD
HETATM    6  H   UNL     1     -41.125 -49.298   9.682  1.00  0.00     0.164 HD
ENDROOT
BRANCH   1   7
HETATM    7  C   UNL     1     -40.871 -52.083  12.278  1.00  0.00     0.070 A 
HETATM    8  C   UNL     1     -40.093 -52.276  13.395  1.00  0.00     0.141 A 
HETATM    9  N   UNL     1     -40.514 -53.438  13.968  1.00  0.00    -0.299 N 
HETATM   10  N   UNL     1     -41.529 -54.024  13.303  1.00  0.00    -0.308 N 
HETATM   11  C   UNL     1     -41.751 -53.188  12.281  1.00  0.00     0.138 A 
ATOM     12  HN  UNL     1     -42.012 -54.895  13.525  1.00  0.00     0.186 HD
BRANCH   9  13
HETATM   13  C   UNL     1     -39.958 -54.051  15.154  1.00  0.00     0.174 C 
BRANCH  13  14
HETATM   14  C   UNL     1     -38.833 -55.019  14.818  1.00  0.00     0.185 C 
BRANCH  14  15
HETATM   15  O   UNL     1     -38.801 -55.250  13.411  1.00  0.00    -0.399 OA
HETATM   16  H   UNL     1     -38.563 -54.405  12.990  1.00  0.00     0.209 HD
ENDBRANCH  14  15
ENDBRANCH  13  14
ENDBRANCH   9  13
ENDBRANCH   1   7
BRANCH   4  17
HETATM   17  C   UNL     1     -41.170 -47.482  10.771  1.00  0.00     0.129 C 
BRANCH  17  18
HETATM   18  C   UNL     1     -42.583 -47.081  10.369  1.00  0.00     0.003 C 
HETATM   19  C   UNL     1     -43.090 -47.769   9.099  1.00  0.00     0.006 C 
HETATM   20  C   UNL     1     -43.967 -46.741   8.378  1.00  0.00     0.000 C 
HETATM   21  C   UNL     1     -43.967 -45.493   9.253  1.00  0.00     0.000 C 
HETATM   22  C   UNL     1     -42.677 -45.590  10.045  1.00  0.00     0.006 C 
ENDBRANCH  17  18
ENDBRANCH   4  17
TORSDOF 6
ENDMDL
