MODEL 1
REMARK VINA RESULT:      -5.5      0.000      0.000
REMARK  5 active torsions:
REMARK  status: ('A' for Active; 'I' for Inactive)
REMARK    1  A    between atoms: C_8  and  C_9 
REMARK    2  A    between atoms: C_9  and  N_10 
REMARK    3  A    between atoms: N_10  and  C_11 
REMARK    4  A    between atoms: C_11  and  C_12 
REMARK    5  A    between atoms: C_12  and  N_13 
ROOT
HETATM    1  N   UNL     1     -42.716 -51.693  12.295  1.00  0.00     0.085 N 
HETATM    2  H   UNL     1     -42.529 -50.713  12.518  1.00  0.00     0.315 HD
ENDROOT
BRANCH   1   3
HETATM    3  C   UNL     1     -43.672 -52.218  13.274  1.00  0.00     0.279 C 
BRANCH   3   4
HETATM    4  C   UNL     1     -44.608 -51.119  13.858  1.00  0.00     0.045 C 
HETATM    5  C   UNL     1     -44.209 -50.582  15.277  1.00  0.00    -0.009 C 
HETATM    6  C   UNL     1     -42.844 -51.050  15.814  1.00  0.00     0.011 C 
HETATM    7  C   UNL     1     -45.244 -50.679  16.414  1.00  0.00     0.009 C 
HETATM    8  C   UNL     1     -46.654 -51.152  16.103  1.00  0.00     0.028 C 
HETATM    9  C   UNL     1     -46.960 -51.478  14.693  1.00  0.00    -0.024 C 
HETATM   10  C   UNL     1     -46.083 -51.469  13.679  1.00  0.00    -0.081 C 
HETATM   11  C   UNL     1     -46.554 -51.810  12.285  1.00  0.00     0.043 C 
ENDBRANCH   3   4
ENDBRANCH   1   3
BRANCH   1  12
HETATM   12  C   UNL     1     -41.465 -52.460  12.316  1.00  0.00     0.290 C 
BRANCH  12  13
HETATM   13  C   UNL     1     -40.434 -51.773  13.212  1.00  0.00     0.175 C 
BRANCH  13  14
HETATM   14  N   UNL     1     -39.487 -51.012  12.430  1.00  0.00    -0.284 N 
HETATM   15  C   UNL     1     -38.146 -50.887  12.626  1.00  0.00     0.126 A 
HETATM   16  C   UNL     1     -37.750 -50.035  11.623  1.00  0.00     0.123 A 
HETATM   17  N   UNL     1     -38.834 -49.681  10.871  1.00  0.00    -0.294 N 
HETATM   18  N   UNL     1     -39.900 -50.287  11.376  1.00  0.00    -0.021 NA
ATOM     19  HN  UNL     1     -38.825 -49.058  10.063  1.00  0.00     0.183 HD
ENDBRANCH  13  14
ENDBRANCH  12  13
ENDBRANCH   1  12
TORSDOF 5
ENDMDL
MODEL 2
REMARK VINA RESULT:      -5.4      3.252      4.655
REMARK  5 active torsions:
REMARK  status: ('A' for Active; 'I' for Inactive)
REMARK    1  A    between atoms: C_8  and  C_9 
REMARK    2  A    between atoms: C_9  and  N_10 
REMARK    3  A    between atoms: N_10  and  C_11 
REMARK    4  A    between atoms: C_11  and  C_12 
REMARK    5  A    between atoms: C_12  and  N_13 
ROOT
HETATM    1  N   UNL     1     -43.066 -50.071  12.207  1.00  0.00     0.085 N 
HETATM    2  H   UNL     1     -43.900 -49.784  11.689  1.00  0.00     0.315 HD
ENDROOT
BRANCH   1   3
HETATM    3  C   UNL     1     -43.480 -50.968  13.290  1.00  0.00     0.279 C 
BRANCH   3   4
HETATM    4  C   UNL     1     -43.613 -52.451  12.834  1.00  0.00     0.045 C 
HETATM    5  C   UNL     1     -45.081 -52.997  12.747  1.00  0.00    -0.009 C 
HETATM    6  C   UNL     1     -46.199 -51.952  12.917  1.00  0.00     0.011 C 
HETATM    7  C   UNL     1     -45.446 -54.246  13.570  1.00  0.00     0.009 C 
HETATM    8  C   UNL     1     -44.357 -54.993  14.322  1.00  0.00     0.028 C 
HETATM    9  C   UNL     1     -42.977 -54.474  14.197  1.00  0.00    -0.024 C 
HETATM   10  C   UNL     1     -42.615 -53.360  13.545  1.00  0.00    -0.081 C 
HETATM   11  C   UNL     1     -41.157 -52.970  13.492  1.00  0.00     0.043 C 
ENDBRANCH   3   4
ENDBRANCH   1   3
BRANCH   1  12
HETATM   12  C   UNL     1     -42.373 -48.891  12.735  1.00  0.00     0.290 C 
BRANCH  12  13
HETATM   13  C   UNL     1     -43.034 -47.611  12.223  1.00  0.00     0.175 C 
BRANCH  13  14
HETATM   14  N   UNL     1     -43.199 -47.646  10.788  1.00  0.00    -0.284 N 
HETATM   15  C   UNL     1     -44.319 -47.366  10.066  1.00  0.00     0.126 A 
HETATM   16  C   UNL     1     -43.929 -47.584   8.767  1.00  0.00     0.123 A 
HETATM   17  N   UNL     1     -42.621 -47.978   8.743  1.00  0.00    -0.294 N 
HETATM   18  N   UNL     1     -42.179 -48.012   9.993  1.00  0.00    -0.021 NA
ATOM     19  HN  UNL     1     -42.078 -48.205   7.909  1.00  0.00     0.183 HD
ENDBRANCH  13  14
ENDBRANCH  12  13
ENDBRANCH   1  12
TORSDOF 5
ENDMDL
MODEL 3
REMARK VINA RESULT:      -5.3      2.145      2.921
REMARK  5 active torsions:
REMARK  status: ('A' for Active; 'I' for Inactive)
REMARK    1  A    between atoms: C_8  and  C_9 
REMARK    2  A    between atoms: C_9  and  N_10 
REMARK    3  A    between atoms: N_10  and  C_11 
REMARK    4  A    between atoms: C_11  and  C_12 
REMARK    5  A    between atoms: C_12  and  N_13 
ROOT
HETATM    1  N   UNL     1     -42.686 -51.710  12.140  1.00  0.00     0.085 N 
HETATM    2  H   UNL     1     -42.510 -50.734  12.387  1.00  0.00     0.315 HD
ENDROOT
BRANCH   1   3
HETATM    3  C   UNL     1     -43.711 -52.240  13.044  1.00  0.00     0.279 C 
BRANCH   3   4
HETATM    4  C   UNL     1     -44.603 -51.127  13.669  1.00  0.00     0.045 C 
HETATM    5  C   UNL     1     -44.115 -50.575  15.054  1.00  0.00    -0.009 C 
HETATM    6  C   UNL     1     -42.723 -51.045  15.513  1.00  0.00     0.011 C 
HETATM    7  C   UNL     1     -45.080 -50.650  16.252  1.00  0.00     0.009 C 
HETATM    8  C   UNL     1     -46.509 -51.118  16.035  1.00  0.00     0.028 C 
HETATM    9  C   UNL     1     -46.902 -51.460  14.650  1.00  0.00    -0.024 C 
HETATM   10  C   UNL     1     -46.088 -51.470  13.585  1.00  0.00    -0.081 C 
HETATM   11  C   UNL     1     -46.645 -51.826  12.227  1.00  0.00     0.043 C 
ENDBRANCH   3   4
ENDBRANCH   1   3
BRANCH   1  12
HETATM   12  C   UNL     1     -41.444 -52.484  12.239  1.00  0.00     0.290 C 
BRANCH  12  13
HETATM   13  C   UNL     1     -41.716 -53.847  12.876  1.00  0.00     0.175 C 
BRANCH  13  14
HETATM   14  N   UNL     1     -40.685 -54.195  13.827  1.00  0.00    -0.284 N 
HETATM   15  C   UNL     1     -40.782 -54.257  15.183  1.00  0.00     0.126 A 
HETATM   16  C   UNL     1     -39.513 -54.602  15.582  1.00  0.00     0.123 A 
HETATM   17  N   UNL     1     -38.710 -54.735  14.486  1.00  0.00    -0.294 N 
HETATM   18  N   UNL     1     -39.441 -54.482  13.408  1.00  0.00    -0.021 NA
ATOM     19  HN  UNL     1     -37.720 -54.985  14.494  1.00  0.00     0.183 HD
ENDBRANCH  13  14
ENDBRANCH  12  13
ENDBRANCH   1  12
TORSDOF 5
ENDMDL
MODEL 4
REMARK VINA RESULT:      -5.3      2.321      2.715
REMARK  5 active torsions:
REMARK  status: ('A' for Active; 'I' for Inactive)
REMARK    1  A    between atoms: C_8  and  C_9 
REMARK    2  A    between atoms: C_9  and  N_10 
REMARK    3  A    between atoms: N_10  and  C_11 
REMARK    4  A    between atoms: C_11  and  C_12 
REMARK    5  A    between atoms: C_12  and  N_13 
ROOT
HETATM    1  N   UNL     1     -42.919 -51.167  12.521  1.00  0.00     0.085 N 
HETATM    2  H   UNL     1     -43.543 -50.501  12.059  1.00  0.00     0.315 HD
ENDROOT
BRANCH   1   3
HETATM    3  C   UNL     1     -43.644 -51.783  13.636  1.00  0.00     0.279 C 
BRANCH   3   4
HETATM    4  C   UNL     1     -44.726 -50.846  14.250  1.00  0.00     0.045 C 
HETATM    5  C   UNL     1     -44.443 -50.368  15.717  1.00  0.00    -0.009 C 
HETATM    6  C   UNL     1     -43.052 -50.709  16.281  1.00  0.00     0.011 C 
HETATM    7  C   UNL     1     -45.498 -50.666  16.800  1.00  0.00     0.009 C 
HETATM    8  C   UNL     1     -46.829 -51.279  16.398  1.00  0.00     0.028 C 
HETATM    9  C   UNL     1     -47.044 -51.538  14.958  1.00  0.00    -0.024 C 
HETATM   10  C   UNL     1     -46.140 -51.354  13.985  1.00  0.00    -0.081 C 
HETATM   11  C   UNL     1     -46.517 -51.649  12.553  1.00  0.00     0.043 C 
ENDBRANCH   3   4
ENDBRANCH   1   3
BRANCH   1  12
HETATM   12  C   UNL     1     -41.712 -50.480  12.992  1.00  0.00     0.290 C 
BRANCH  12  13
HETATM   13  C   UNL     1     -41.923 -48.966  12.984  1.00  0.00     0.175 C 
BRANCH  13  14
HETATM   14  N   UNL     1     -42.217 -48.486  11.653  1.00  0.00    -0.284 N 
HETATM   15  C   UNL     1     -43.284 -47.745  11.246  1.00  0.00     0.126 A 
HETATM   16  C   UNL     1     -43.081 -47.601   9.895  1.00  0.00     0.123 A 
HETATM   17  N   UNL     1     -41.929 -48.242   9.536  1.00  0.00    -0.294 N 
HETATM   18  N   UNL     1     -41.404 -48.785  10.626  1.00  0.00    -0.021 NA
ATOM     19  HN  UNL     1     -41.542 -48.294   8.593  1.00  0.00     0.183 HD
ENDBRANCH  13  14
ENDBRANCH  12  13
ENDBRANCH   1  12
TORSDOF 5
ENDMDL
MODEL 5
REMARK VINA RESULT:      -5.3      1.310      2.403
REMARK  5 active torsions:
REMARK  status: ('A' for Active; 'I' for Inactive)
REMARK    1  A    between atoms: C_8  and  C_9 
REMARK    2  A    between atoms: C_9  and  N_10 
REMARK    3  A    between atoms: N_10  and  C_11 
REMARK    4  A    between atoms: C_11  and  C_12 
REMARK    5  A    between atoms: C_12  and  N_13 
ROOT
HETATM    1  N   UNL     1     -43.273 -52.260  12.529  1.00  0.00     0.085 N 
HETATM    2  H   UNL     1     -43.315 -51.895  13.483  1.00  0.00     0.315 HD
ENDROOT
BRANCH   1   3
HETATM    3  C   UNL     1     -44.269 -53.329  12.398  1.00  0.00     0.279 C 
BRANCH   3   4
HETATM    4  C   UNL     1     -45.277 -53.368  13.584  1.00  0.00     0.045 C 
HETATM    5  C   UNL     1     -46.504 -52.398  13.453  1.00  0.00    -0.009 C 
HETATM    6  C   UNL     1     -46.665 -51.696  12.093  1.00  0.00     0.011 C 
HETATM    7  C   UNL     1     -46.743 -51.366  14.571  1.00  0.00     0.009 C 
HETATM    8  C   UNL     1     -45.883 -51.407  15.823  1.00  0.00     0.028 C 
HETATM    9  C   UNL     1     -44.860 -52.472  15.903  1.00  0.00    -0.024 C 
HETATM   10  C   UNL     1     -44.571 -53.355  14.936  1.00  0.00    -0.081 C 
HETATM   11  C   UNL     1     -43.507 -54.400  15.177  1.00  0.00     0.043 C 
ENDBRANCH   3   4
ENDBRANCH   1   3
BRANCH   1  12
HETATM   12  C   UNL     1     -41.924 -52.757  12.239  1.00  0.00     0.290 C 
BRANCH  12  13
HETATM   13  C   UNL     1     -40.898 -52.067  13.137  1.00  0.00     0.175 C 
BRANCH  13  14
HETATM   14  N   UNL     1     -40.088 -51.136  12.386  1.00  0.00    -0.284 N 
HETATM   15  C   UNL     1     -38.796 -50.773  12.616  1.00  0.00     0.126 A 
HETATM   16  C   UNL     1     -38.540 -49.849  11.632  1.00  0.00     0.123 A 
HETATM   17  N   UNL     1     -39.653 -49.686  10.857  1.00  0.00    -0.294 N 
HETATM   18  N   UNL     1     -40.602 -50.484  11.330  1.00  0.00    -0.021 NA
ATOM     19  HN  UNL     1     -39.740 -49.061  10.056  1.00  0.00     0.183 HD
ENDBRANCH  13  14
ENDBRANCH  12  13
ENDBRANCH   1  12
TORSDOF 5
ENDMDL
MODEL 6
REMARK VINA RESULT:      -5.2      2.858      3.633
REMARK  5 active torsions:
REMARK  status: ('A' for Active; 'I' for Inactive)
REMARK    1  A    between atoms: C_8  and  C_9 
REMARK    2  A    between atoms: C_9  and  N_10 
REMARK    3  A    between atoms: N_10  and  C_11 
REMARK    4  A    between atoms: C_11  and  C_12 
REMARK    5  A    between atoms: C_12  and  N_13 
ROOT
HETATM    1  N   UNL     1     -41.272 -52.667  11.420  1.00  0.00     0.085 N 
HETATM    2  H   UNL     1     -42.058 -52.779  10.776  1.00  0.00     0.315 HD
ENDROOT
BRANCH   1   3
HETATM    3  C   UNL     1     -41.182 -53.870  12.253  1.00  0.00     0.279 C 
BRANCH   3   4
HETATM    4  C   UNL     1     -41.734 -53.654  13.693  1.00  0.00     0.045 C 
HETATM    5  C   UNL     1     -40.709 -53.922  14.851  1.00  0.00    -0.009 C 
HETATM    6  C   UNL     1     -39.250 -54.156  14.419  1.00  0.00     0.011 C 
HETATM    7  C   UNL     1     -41.077 -54.963  15.926  1.00  0.00     0.009 C 
HETATM    8  C   UNL     1     -42.460 -55.590  15.919  1.00  0.00     0.028 C 
HETATM    9  C   UNL     1     -43.399 -55.136  14.870  1.00  0.00    -0.024 C 
HETATM   10  C   UNL     1     -43.113 -54.282  13.878  1.00  0.00    -0.081 C 
HETATM   11  C   UNL     1     -44.189 -53.901  12.889  1.00  0.00     0.043 C 
ENDBRANCH   3   4
ENDBRANCH   1   3
BRANCH   1  12
HETATM   12  C   UNL     1     -41.463 -51.468  12.243  1.00  0.00     0.290 C 
BRANCH  12  13
HETATM   13  C   UNL     1     -40.781 -50.263  11.595  1.00  0.00     0.175 C 
BRANCH  13  14
HETATM   14  N   UNL     1     -39.362 -50.257  11.867  1.00  0.00    -0.284 N 
HETATM   15  C   UNL     1     -38.445 -49.313  11.517  1.00  0.00     0.126 A 
HETATM   16  C   UNL     1     -37.261 -49.820  11.995  1.00  0.00     0.123 A 
HETATM   17  N   UNL     1     -37.491 -51.021  12.603  1.00  0.00    -0.294 N 
HETATM   18  N   UNL     1     -38.788 -51.282  12.520  1.00  0.00    -0.021 NA
ATOM     19  HN  UNL     1     -36.787 -51.614  13.045  1.00  0.00     0.183 HD
ENDBRANCH  13  14
ENDBRANCH  12  13
ENDBRANCH   1  12
TORSDOF 5
ENDMDL
MODEL 7
REMARK VINA RESULT:      -5.2      1.419      2.174
REMARK  5 active torsions:
REMARK  status: ('A' for Active; 'I' for Inactive)
REMARK    1  A    between atoms: C_8  and  C_9 
REMARK    2  A    between atoms: C_9  and  N_10 
REMARK    3  A    between atoms: N_10  and  C_11 
REMARK    4  A    between atoms: C_11  and  C_12 
REMARK    5  A    between atoms: C_12  and  N_13 
ROOT
HETATM    1  N   UNL     1     -42.272 -53.606  12.584  1.00  0.00     0.085 N 
HETATM    2  H   UNL     1     -42.205 -54.501  12.093  1.00  0.00     0.315 HD
ENDROOT
BRANCH   1   3
HETATM    3  C   UNL     1     -43.674 -53.176  12.572  1.00  0.00     0.279 C 
BRANCH   3   4
HETATM    4  C   UNL     1     -44.230 -52.876  13.995  1.00  0.00     0.045 C 
HETATM    5  C   UNL     1     -45.202 -53.961  14.578  1.00  0.00    -0.009 C 
HETATM    6  C   UNL     1     -45.317 -55.266  13.769  1.00  0.00     0.011 C 
HETATM    7  C   UNL     1     -46.615 -53.522  15.006  1.00  0.00     0.009 C 
HETATM    8  C   UNL     1     -46.978 -52.047  14.988  1.00  0.00     0.028 C 
HETATM    9  C   UNL     1     -45.922 -51.099  14.572  1.00  0.00    -0.024 C 
HETATM   10  C   UNL     1     -44.699 -51.431  14.134  1.00  0.00    -0.081 C 
HETATM   11  C   UNL     1     -43.721 -50.342  13.761  1.00  0.00     0.043 C 
ENDBRANCH   3   4
ENDBRANCH   1   3
BRANCH   1  12
HETATM   12  C   UNL     1     -41.410 -52.612  11.937  1.00  0.00     0.290 C 
BRANCH  12  13
HETATM   13  C   UNL     1     -40.481 -51.964  12.964  1.00  0.00     0.175 C 
BRANCH  13  14
HETATM   14  N   UNL     1     -39.629 -50.974  12.346  1.00  0.00    -0.284 N 
HETATM   15  C   UNL     1     -38.292 -50.788  12.526  1.00  0.00     0.126 A 
HETATM   16  C   UNL     1     -38.007 -49.705  11.730  1.00  0.00     0.123 A 
HETATM   17  N   UNL     1     -39.147 -49.280  11.110  1.00  0.00    -0.294 N 
HETATM   18  N   UNL     1     -40.142 -50.068  11.496  1.00  0.00    -0.021 NA
ATOM     19  HN  UNL     1     -39.221 -48.494  10.464  1.00  0.00     0.183 HD
ENDBRANCH  13  14
ENDBRANCH  12  13
ENDBRANCH   1  12
TORSDOF 5
ENDMDL
MODEL 8
REMARK VINA RESULT:      -5.0      2.076      3.415
REMARK  5 active torsions:
REMARK  status: ('A' for Active; 'I' for Inactive)
REMARK    1  A    between atoms: C_8  and  C_9 
REMARK    2  A    between atoms: C_9  and  N_10 
REMARK    3  A    between atoms: N_10  and  C_11 
REMARK    4  A    between atoms: C_11  and  C_12 
REMARK    5  A    between atoms: C_12  and  N_13 
ROOT
HETATM    1  N   UNL     1     -43.141 -49.996  12.292  1.00  0.00     0.085 N 
HETATM    2  H   UNL     1     -43.973 -49.889  11.708  1.00  0.00     0.315 HD
ENDROOT
BRANCH   1   3
HETATM    3  C   UNL     1     -43.450 -50.940  13.370  1.00  0.00     0.279 C 
BRANCH   3   4
HETATM    4  C   UNL     1     -43.802 -52.364  12.849  1.00  0.00     0.045 C 
HETATM    5  C   UNL     1     -45.319 -52.755  12.939  1.00  0.00    -0.009 C 
HETATM    6  C   UNL     1     -46.284 -51.622  13.329  1.00  0.00     0.011 C 
HETATM    7  C   UNL     1     -45.702 -54.021  13.729  1.00  0.00     0.009 C 
HETATM    8  C   UNL     1     -44.607 -54.925  14.271  1.00  0.00     0.028 C 
HETATM    9  C   UNL     1     -43.209 -54.537  13.982  1.00  0.00    -0.024 C 
HETATM   10  C   UNL     1     -42.821 -53.418  13.354  1.00  0.00    -0.081 C 
HETATM   11  C   UNL     1     -41.350 -53.170  13.118  1.00  0.00     0.043 C 
ENDBRANCH   3   4
ENDBRANCH   1   3
BRANCH   1  12
HETATM   12  C   UNL     1     -42.736 -48.694  12.831  1.00  0.00     0.290 C 
BRANCH  12  13
HETATM   13  C   UNL     1     -41.819 -47.971  11.844  1.00  0.00     0.175 C 
BRANCH  13  14
HETATM   14  N   UNL     1     -40.551 -48.652  11.713  1.00  0.00    -0.284 N 
HETATM   15  C   UNL     1     -39.352 -48.305  12.257  1.00  0.00     0.126 A 
HETATM   16  C   UNL     1     -38.494 -49.270  11.789  1.00  0.00     0.123 A 
HETATM   17  N   UNL     1     -39.180 -50.148  11.000  1.00  0.00    -0.294 N 
HETATM   18  N   UNL     1     -40.448 -49.759  10.958  1.00  0.00    -0.021 NA
ATOM     19  HN  UNL     1     -38.787 -50.961  10.525  1.00  0.00     0.183 HD
ENDBRANCH  13  14
ENDBRANCH  12  13
ENDBRANCH   1  12
TORSDOF 5
ENDMDL
MODEL 9
REMARK VINA RESULT:      -5.0      2.343      3.435
REMARK  5 active torsions:
REMARK  status: ('A' for Active; 'I' for Inactive)
REMARK    1  A    between atoms: C_8  and  C_9 
REMARK    2  A    between atoms: C_9  and  N_10 
REMARK    3  A    between atoms: N_10  and  C_11 
REMARK    4  A    between atoms: C_11  and  C_12 
REMARK    5  A    between atoms: C_12  and  N_13 
ROOT
HETATM    1  N   UNL     1     -43.025 -53.382  15.447  1.00  0.00     0.085 N 
HETATM    2  H   UNL     1     -43.439 -52.988  16.295  1.00  0.00     0.315 HD
ENDROOT
BRANCH   1   3
HETATM    3  C   UNL     1     -43.862 -54.499  14.999  1.00  0.00     0.279 C 
BRANCH   3   4
HETATM    4  C   UNL     1     -45.335 -54.081  14.718  1.00  0.00     0.045 C 
HETATM    5  C   UNL     1     -45.588 -53.414  13.320  1.00  0.00    -0.009 C 
HETATM    6  C   UNL     1     -44.406 -53.450  12.334  1.00  0.00     0.011 C 
HETATM    7  C   UNL     1     -46.217 -52.009  13.283  1.00  0.00     0.009 C 
HETATM    8  C   UNL     1     -46.702 -51.372  14.574  1.00  0.00     0.028 C 
HETATM    9  C   UNL     1     -46.557 -52.167  15.813  1.00  0.00    -0.024 C 
HETATM   10  C   UNL     1     -45.964 -53.365  15.910  1.00  0.00    -0.081 C 
HETATM   11  C   UNL     1     -45.910 -54.063  17.248  1.00  0.00     0.043 C 
ENDBRANCH   3   4
ENDBRANCH   1   3
BRANCH   1  12
HETATM   12  C   UNL     1     -41.654 -53.825  15.717  1.00  0.00     0.290 C 
BRANCH  12  13
HETATM   13  C   UNL     1     -40.649 -52.801  15.191  1.00  0.00     0.175 C 
BRANCH  13  14
HETATM   14  N   UNL     1     -40.765 -52.642  13.760  1.00  0.00    -0.284 N 
HETATM   15  C   UNL     1     -40.945 -51.491  13.055  1.00  0.00     0.126 A 
HETATM   16  C   UNL     1     -41.018 -51.917  11.751  1.00  0.00     0.123 A 
HETATM   17  N   UNL     1     -40.883 -53.276  11.707  1.00  0.00    -0.294 N 
HETATM   18  N   UNL     1     -40.728 -53.714  12.950  1.00  0.00    -0.021 NA
ATOM     19  HN  UNL     1     -40.899 -53.853  10.866  1.00  0.00     0.183 HD
ENDBRANCH  13  14
ENDBRANCH  12  13
ENDBRANCH   1  12
TORSDOF 5
ENDMDL
