MODEL 1
REMARK VINA RESULT:      -6.5      0.000      0.000
REMARK  5 active torsions:
REMARK  status: ('A' for Active; 'I' for Inactive)
REMARK    1  A    between atoms: C_2  and  O_3 
REMARK    2  A    between atoms: O_3  and  C_4 
REMARK    3  A    between atoms: C_10  and  N_11 
REMARK       I    between atoms: N_11  and  C_12 
REMARK       I    between atoms: C_12  and  N_14 
REMARK    4  A    between atoms: N_14  and  C_15 
REMARK       I    between atoms: N_18  and  C_21 
REMARK    5  A    between atoms: C_21  and  C_23 
ROOT
HETATM    1  N   UNL     1     -42.355 -49.030  11.290  1.00  0.00    -0.305 N 
HETATM    2  C   UNL     1     -43.023 -49.223  12.481  1.00  0.00     0.321 C 
HETATM    3  O   UNL     1     -43.176 -48.363  13.340  1.00  0.00    -0.247 OA
HETATM    4  N   UNL     1     -43.539 -50.495  12.606  1.00  0.00    -0.338 N 
HETATM    5  H   UNL     1     -42.780 -49.465  10.482  1.00  0.00     0.171 HD
HETATM    6  H   UNL     1     -43.320 -51.179  11.897  1.00  0.00     0.164 HD
ENDROOT
BRANCH   1   7
HETATM    7  C   UNL     1     -41.658 -47.825  11.012  1.00  0.00     0.087 A 
HETATM    8  C   UNL     1     -42.241 -46.816  10.239  1.00  0.00     0.169 A 
HETATM    9  N   UNL     1     -41.611 -45.667   9.889  1.00  0.00    -0.345 N 
HETATM   10  C   UNL     1     -40.362 -45.489  10.357  1.00  0.00     0.090 A 
ATOM     11  HN  UNL     1     -42.064 -44.970   9.298  1.00  0.00     0.167 HD
HETATM   12  C   UNL     1     -39.707 -46.406  11.162  1.00  0.00     0.019 A 
HETATM   13  C   UNL     1     -40.367 -47.591  11.490  1.00  0.00     0.035 A 
BRANCH   8  14
HETATM   14  O   UNL     1     -43.570 -46.969   9.871  1.00  0.00    -0.334 OA
BRANCH  14  15
HETATM   15  C   UNL     1     -43.734 -46.666   8.477  1.00  0.00     0.173 C 
HETATM   16  C   UNL     1     -43.489 -47.915   7.654  1.00  0.00     0.034 C 
ENDBRANCH  14  15
ENDBRANCH   8  14
ENDBRANCH   1   7
BRANCH   4  17
HETATM   17  C   UNL     1     -44.462 -50.820  13.698  1.00  0.00     0.089 C 
HETATM   18  C   UNL     1     -43.787 -50.962  15.062  1.00  0.00     0.045 C 
HETATM   19  C   UNL     1     -43.077 -52.294  15.291  1.00  0.00     0.127 C 
HETATM   20  N   UNL     1     -43.823 -53.458  14.822  1.00  0.00    -0.352 N 
HETATM   21  C   UNL     1     -44.471 -53.341  13.520  1.00  0.00     0.127 C 
HETATM   22  C   UNL     1     -43.554 -54.762  15.267  1.00  0.00     0.224 C 
HETATM   23  C   UNL     1     -45.287 -52.065  13.376  1.00  0.00     0.045 C 
HETATM   24  O   UNL     1     -44.095 -55.752  14.785  1.00  0.00    -0.273 OA
BRANCH  22  25
HETATM   25  C   UNL     1     -42.553 -54.944  16.369  1.00  0.00     0.078 A 
HETATM   26  C   UNL     1     -41.120 -55.307  16.043  1.00  0.00     0.015 A 
HETATM   27  C   UNL     1     -42.015 -56.319  16.691  1.00  0.00     0.015 A 
ENDBRANCH  22  25
ENDBRANCH   4  17
TORSDOF 5
ENDMDL
MODEL 2
REMARK VINA RESULT:      -6.3      2.432      8.586
REMARK  5 active torsions:
REMARK  status: ('A' for Active; 'I' for Inactive)
REMARK    1  A    between atoms: C_2  and  O_3 
REMARK    2  A    between atoms: O_3  and  C_4 
REMARK    3  A    between atoms: C_10  and  N_11 
REMARK       I    between atoms: N_11  and  C_12 
REMARK       I    between atoms: C_12  and  N_14 
REMARK    4  A    between atoms: N_14  and  C_15 
REMARK       I    between atoms: N_18  and  C_21 
REMARK    5  A    between atoms: C_21  and  C_23 
ROOT
HETATM    1  N   UNL     1     -44.820 -50.784  12.771  1.00  0.00    -0.305 N 
HETATM    2  C   UNL     1     -43.595 -50.333  13.217  1.00  0.00     0.321 C 
HETATM    3  O   UNL     1     -43.041 -50.721  14.238  1.00  0.00    -0.247 OA
HETATM    4  N   UNL     1     -43.028 -49.403  12.372  1.00  0.00    -0.338 N 
HETATM    5  H   UNL     1     -44.890 -50.927  11.772  1.00  0.00     0.171 HD
HETATM    6  H   UNL     1     -43.564 -49.072  11.584  1.00  0.00     0.164 HD
ENDROOT
BRANCH   1   7
HETATM    7  C   UNL     1     -45.620 -51.662  13.549  1.00  0.00     0.087 A 
HETATM    8  C   UNL     1     -45.668 -53.032  13.270  1.00  0.00     0.169 A 
HETATM    9  N   UNL     1     -46.452 -53.915  13.935  1.00  0.00    -0.345 N 
HETATM   10  C   UNL     1     -47.194 -53.431  14.948  1.00  0.00     0.090 A 
ATOM     11  HN  UNL     1     -46.479 -54.903  13.679  1.00  0.00     0.167 HD
HETATM   12  C   UNL     1     -47.191 -52.100  15.332  1.00  0.00     0.019 A 
HETATM   13  C   UNL     1     -46.393 -51.206  14.618  1.00  0.00     0.035 A 
BRANCH   8  14
HETATM   14  O   UNL     1     -44.804 -53.526  12.302  1.00  0.00    -0.334 OA
BRANCH  14  15
HETATM   15  C   UNL     1     -43.936 -54.516  12.875  1.00  0.00     0.173 C 
HETATM   16  C   UNL     1     -42.581 -53.898  13.160  1.00  0.00     0.034 C 
ENDBRANCH  14  15
ENDBRANCH   8  14
ENDBRANCH   1   7
BRANCH   4  17
HETATM   17  C   UNL     1     -41.639 -48.974  12.564  1.00  0.00     0.089 C 
HETATM   18  C   UNL     1     -41.477 -47.792  13.519  1.00  0.00     0.045 C 
HETATM   19  C   UNL     1     -41.795 -46.428  12.911  1.00  0.00     0.127 C 
HETATM   20  N   UNL     1     -41.269 -46.237  11.562  1.00  0.00    -0.352 N 
HETATM   21  C   UNL     1     -41.417 -47.355  10.636  1.00  0.00     0.127 C 
HETATM   22  C   UNL     1     -41.104 -44.969  10.983  1.00  0.00     0.224 C 
HETATM   23  C   UNL     1     -40.959 -48.680  11.227  1.00  0.00     0.045 C 
HETATM   24  O   UNL     1     -40.780 -44.812   9.811  1.00  0.00    -0.273 OA
BRANCH  22  25
HETATM   25  C   UNL     1     -41.351 -43.762  11.838  1.00  0.00     0.078 A 
HETATM   26  C   UNL     1     -42.652 -42.995  11.716  1.00  0.00     0.015 A 
HETATM   27  C   UNL     1     -41.378 -42.382  11.220  1.00  0.00     0.015 A 
ENDBRANCH  22  25
ENDBRANCH   4  17
TORSDOF 5
ENDMDL
MODEL 3
REMARK VINA RESULT:      -6.2      2.410      8.232
REMARK  5 active torsions:
REMARK  status: ('A' for Active; 'I' for Inactive)
REMARK    1  A    between atoms: C_2  and  O_3 
REMARK    2  A    between atoms: O_3  and  C_4 
REMARK    3  A    between atoms: C_10  and  N_11 
REMARK       I    between atoms: N_11  and  C_12 
REMARK       I    between atoms: C_12  and  N_14 
REMARK    4  A    between atoms: N_14  and  C_15 
REMARK       I    between atoms: N_18  and  C_21 
REMARK    5  A    between atoms: C_21  and  C_23 
ROOT
HETATM    1  N   UNL     1     -42.913 -51.576  13.571  1.00  0.00    -0.305 N 
HETATM    2  C   UNL     1     -41.886 -51.454  12.657  1.00  0.00     0.321 C 
HETATM    3  O   UNL     1     -41.585 -52.309  11.833  1.00  0.00    -0.247 OA
HETATM    4  N   UNL     1     -41.234 -50.243  12.743  1.00  0.00    -0.338 N 
HETATM    5  H   UNL     1     -43.459 -50.737  13.720  1.00  0.00     0.171 HD
HETATM    6  H   UNL     1     -41.482 -49.610  13.487  1.00  0.00     0.164 HD
ENDROOT
BRANCH   1   7
HETATM    7  C   UNL     1     -43.639 -52.787  13.722  1.00  0.00     0.087 A 
HETATM    8  C   UNL     1     -44.897 -52.951  13.133  1.00  0.00     0.169 A 
HETATM    9  N   UNL     1     -45.667 -54.057  13.284  1.00  0.00    -0.345 N 
HETATM   10  C   UNL     1     -45.153 -55.063  14.017  1.00  0.00     0.090 A 
ATOM     11  HN  UNL     1     -46.593 -54.124  12.861  1.00  0.00     0.167 HD
HETATM   12  C   UNL     1     -43.903 -55.018  14.609  1.00  0.00     0.019 A 
HETATM   13  C   UNL     1     -43.138 -53.861  14.460  1.00  0.00     0.035 A 
BRANCH   8  14
HETATM   14  O   UNL     1     -45.350 -51.951  12.285  1.00  0.00    -0.334 OA
BRANCH  14  15
HETATM   15  C   UNL     1     -46.762 -51.759  12.460  1.00  0.00     0.173 C 
HETATM   16  C   UNL     1     -47.420 -51.572  11.106  1.00  0.00     0.034 C 
ENDBRANCH  14  15
ENDBRANCH   8  14
ENDBRANCH   1   7
BRANCH   4  17
HETATM   17  C   UNL     1     -40.265 -49.846  11.716  1.00  0.00     0.089 C 
HETATM   18  C   UNL     1     -39.224 -48.837  12.199  1.00  0.00     0.045 C 
HETATM   19  C   UNL     1     -39.714 -47.392  12.269  1.00  0.00     0.127 C 
HETATM   20  N   UNL     1     -40.524 -46.979  11.125  1.00  0.00    -0.352 N 
HETATM   21  C   UNL     1     -41.525 -47.930  10.653  1.00  0.00     0.127 C 
HETATM   22  C   UNL     1     -40.742 -45.633  10.796  1.00  0.00     0.224 C 
HETATM   23  C   UNL     1     -40.967 -49.332  10.460  1.00  0.00     0.045 C 
HETATM   24  O   UNL     1     -41.518 -45.282   9.914  1.00  0.00    -0.273 OA
BRANCH  22  25
HETATM   25  C   UNL     1     -40.001 -44.584  11.572  1.00  0.00     0.078 A 
HETATM   26  C   UNL     1     -40.676 -43.869  12.723  1.00  0.00     0.015 A 
HETATM   27  C   UNL     1     -40.392 -43.128  11.452  1.00  0.00     0.015 A 
ENDBRANCH  22  25
ENDBRANCH   4  17
TORSDOF 5
ENDMDL
MODEL 4
REMARK VINA RESULT:      -6.1      2.693      8.528
REMARK  5 active torsions:
REMARK  status: ('A' for Active; 'I' for Inactive)
REMARK    1  A    between atoms: C_2  and  O_3 
REMARK    2  A    between atoms: O_3  and  C_4 
REMARK    3  A    between atoms: C_10  and  N_11 
REMARK       I    between atoms: N_11  and  C_12 
REMARK       I    between atoms: C_12  and  N_14 
REMARK    4  A    between atoms: N_14  and  C_15 
REMARK       I    between atoms: N_18  and  C_21 
REMARK    5  A    between atoms: C_21  and  C_23 
ROOT
HETATM    1  N   UNL     1     -44.525 -51.603  12.675  1.00  0.00    -0.305 N 
HETATM    2  C   UNL     1     -43.249 -51.219  13.030  1.00  0.00     0.321 C 
HETATM    3  O   UNL     1     -42.499 -51.874  13.743  1.00  0.00    -0.247 OA
HETATM    4  N   UNL     1     -42.878 -50.013  12.473  1.00  0.00    -0.338 N 
HETATM    5  H   UNL     1     -44.783 -51.410  11.716  1.00  0.00     0.171 HD
HETATM    6  H   UNL     1     -43.564 -49.488  11.953  1.00  0.00     0.164 HD
ENDROOT
BRANCH   1   7
HETATM    7  C   UNL     1     -45.138 -52.759  13.228  1.00  0.00     0.087 A 
HETATM    8  C   UNL     1     -46.243 -52.651  14.079  1.00  0.00     0.169 A 
HETATM    9  N   UNL     1     -46.839 -53.708  14.685  1.00  0.00    -0.345 N 
HETATM   10  C   UNL     1     -46.346 -54.930  14.407  1.00  0.00     0.090 A 
ATOM     11  HN  UNL     1     -47.625 -53.583  15.323  1.00  0.00     0.167 HD
HETATM   12  C   UNL     1     -45.282 -55.149  13.549  1.00  0.00     0.019 A 
HETATM   13  C   UNL     1     -44.670 -54.045  12.955  1.00  0.00     0.035 A 
BRANCH   8  14
HETATM   14  O   UNL     1     -46.807 -51.396  14.253  1.00  0.00    -0.334 OA
BRANCH  14  15
HETATM   15  C   UNL     1     -47.063 -51.160  15.646  1.00  0.00     0.173 C 
HETATM   16  C   UNL     1     -45.771 -50.780  16.342  1.00  0.00     0.034 C 
ENDBRANCH  14  15
ENDBRANCH   8  14
ENDBRANCH   1   7
BRANCH   4  17
HETATM   17  C   UNL     1     -41.490 -49.551  12.557  1.00  0.00     0.089 C 
HETATM   18  C   UNL     1     -41.274 -48.401  13.541  1.00  0.00     0.045 C 
HETATM   19  C   UNL     1     -41.681 -47.025  13.017  1.00  0.00     0.127 C 
HETATM   20  N   UNL     1     -41.284 -46.769  11.635  1.00  0.00    -0.352 N 
HETATM   21  C   UNL     1     -41.485 -47.856  10.683  1.00  0.00     0.127 C 
HETATM   22  C   UNL     1     -41.205 -45.476  11.095  1.00  0.00     0.224 C 
HETATM   23  C   UNL     1     -40.940 -49.187  11.178  1.00  0.00     0.045 C 
HETATM   24  O   UNL     1     -40.992 -45.266   9.905  1.00  0.00    -0.273 OA
BRANCH  22  25
HETATM   25  C   UNL     1     -41.406 -44.309  12.015  1.00  0.00     0.078 A 
HETATM   26  C   UNL     1     -42.666 -43.474  11.923  1.00  0.00     0.015 A 
HETATM   27  C   UNL     1     -41.357 -42.897  11.477  1.00  0.00     0.015 A 
ENDBRANCH  22  25
ENDBRANCH   4  17
TORSDOF 5
ENDMDL
MODEL 5
REMARK VINA RESULT:      -6.0      1.335      2.436
REMARK  5 active torsions:
REMARK  status: ('A' for Active; 'I' for Inactive)
REMARK    1  A    between atoms: C_2  and  O_3 
REMARK    2  A    between atoms: O_3  and  C_4 
REMARK    3  A    between atoms: C_10  and  N_11 
REMARK       I    between atoms: N_11  and  C_12 
REMARK       I    between atoms: C_12  and  N_14 
REMARK    4  A    between atoms: N_14  and  C_15 
REMARK       I    between atoms: N_18  and  C_21 
REMARK    5  A    between atoms: C_21  and  C_23 
ROOT
HETATM    1  N   UNL     1     -42.557 -49.074  11.287  1.00  0.00    -0.305 N 
HETATM    2  C   UNL     1     -43.122 -49.300  12.525  1.00  0.00     0.321 C 
HETATM    3  O   UNL     1     -43.117 -48.495  13.448  1.00  0.00    -0.247 OA
HETATM    4  N   UNL     1     -43.729 -50.534  12.619  1.00  0.00    -0.338 N 
HETATM    5  H   UNL     1     -43.093 -49.415  10.499  1.00  0.00     0.171 HD
HETATM    6  H   UNL     1     -43.638 -51.180  11.849  1.00  0.00     0.164 HD
ENDROOT
BRANCH   1   7
HETATM    7  C   UNL     1     -41.790 -47.910  11.017  1.00  0.00     0.087 A 
HETATM    8  C   UNL     1     -40.408 -47.892  11.232  1.00  0.00     0.169 A 
HETATM    9  N   UNL     1     -39.626 -46.799  11.050  1.00  0.00    -0.345 N 
HETATM   10  C   UNL     1     -40.231 -45.684  10.598  1.00  0.00     0.090 A 
ATOM     11  HN  UNL     1     -38.625 -46.820  11.247  1.00  0.00     0.167 HD
HETATM   12  C   UNL     1     -41.584 -45.606  10.317  1.00  0.00     0.019 A 
HETATM   13  C   UNL     1     -42.372 -46.737  10.533  1.00  0.00     0.035 A 
BRANCH   8  14
HETATM   14  O   UNL     1     -39.791 -49.084  11.581  1.00  0.00    -0.334 OA
BRANCH  14  15
HETATM   15  C   UNL     1     -38.425 -48.842  11.953  1.00  0.00     0.173 C 
HETATM   16  C   UNL     1     -37.529 -49.871  11.290  1.00  0.00     0.034 C 
ENDBRANCH  14  15
ENDBRANCH   8  14
ENDBRANCH   1   7
BRANCH   4  17
HETATM   17  C   UNL     1     -44.567 -50.864  13.776  1.00  0.00     0.089 C 
HETATM   18  C   UNL     1     -43.797 -50.973  15.092  1.00  0.00     0.045 C 
HETATM   19  C   UNL     1     -43.042 -52.286  15.287  1.00  0.00     0.127 C 
HETATM   20  N   UNL     1     -43.792 -53.472  14.885  1.00  0.00    -0.352 N 
HETATM   21  C   UNL     1     -44.530 -53.387  13.630  1.00  0.00     0.127 C 
HETATM   22  C   UNL     1     -43.463 -54.764  15.326  1.00  0.00     0.224 C 
HETATM   23  C   UNL     1     -45.383 -52.132  13.527  1.00  0.00     0.045 C 
HETATM   24  O   UNL     1     -44.013 -55.772  14.894  1.00  0.00    -0.273 OA
BRANCH  22  25
HETATM   25  C   UNL     1     -42.385 -54.908  16.358  1.00  0.00     0.078 A 
HETATM   26  C   UNL     1     -40.965 -55.226  15.937  1.00  0.00     0.015 A 
HETATM   27  C   UNL     1     -41.780 -56.264  16.645  1.00  0.00     0.015 A 
ENDBRANCH  22  25
ENDBRANCH   4  17
TORSDOF 5
ENDMDL
MODEL 6
REMARK VINA RESULT:      -5.8      2.990      4.373
REMARK  5 active torsions:
REMARK  status: ('A' for Active; 'I' for Inactive)
REMARK    1  A    between atoms: C_2  and  O_3 
REMARK    2  A    between atoms: O_3  and  C_4 
REMARK    3  A    between atoms: C_10  and  N_11 
REMARK       I    between atoms: N_11  and  C_12 
REMARK       I    between atoms: C_12  and  N_14 
REMARK    4  A    between atoms: N_14  and  C_15 
REMARK       I    between atoms: N_18  and  C_21 
REMARK    5  A    between atoms: C_21  and  C_23 
ROOT
HETATM    1  N   UNL     1     -41.609 -50.456  13.192  1.00  0.00    -0.305 N 
HETATM    2  C   UNL     1     -41.921 -51.782  12.971  1.00  0.00     0.321 C 
HETATM    3  O   UNL     1     -42.356 -52.227  11.916  1.00  0.00    -0.247 OA
HETATM    4  N   UNL     1     -41.668 -52.581  14.065  1.00  0.00    -0.338 N 
HETATM    5  H   UNL     1     -40.766 -50.295  13.728  1.00  0.00     0.171 HD
HETATM    6  H   UNL     1     -41.377 -52.146  14.927  1.00  0.00     0.164 HD
ENDROOT
BRANCH   1   7
HETATM    7  C   UNL     1     -41.897 -49.451  12.231  1.00  0.00     0.087 A 
HETATM    8  C   UNL     1     -40.973 -49.122  11.234  1.00  0.00     0.169 A 
HETATM    9  N   UNL     1     -41.160 -48.136  10.322  1.00  0.00    -0.345 N 
HETATM   10  C   UNL     1     -42.330 -47.471  10.372  1.00  0.00     0.090 A 
ATOM     11  HN  UNL     1     -40.447 -47.909   9.629  1.00  0.00     0.167 HD
HETATM   12  C   UNL     1     -43.327 -47.744  11.293  1.00  0.00     0.019 A 
HETATM   13  C   UNL     1     -43.103 -48.748  12.236  1.00  0.00     0.035 A 
BRANCH   8  14
HETATM   14  O   UNL     1     -39.830 -49.901  11.127  1.00  0.00    -0.334 OA
BRANCH  14  15
HETATM   15  C   UNL     1     -38.701 -49.197  11.666  1.00  0.00     0.173 C 
HETATM   16  C   UNL     1     -37.482 -50.098  11.642  1.00  0.00     0.034 C 
ENDBRANCH  14  15
ENDBRANCH   8  14
ENDBRANCH   1   7
BRANCH   4  17
HETATM   17  C   UNL     1     -41.730 -54.041  13.950  1.00  0.00     0.089 C 
HETATM   18  C   UNL     1     -42.132 -54.752  15.242  1.00  0.00     0.045 C 
HETATM   19  C   UNL     1     -41.012 -54.899  16.268  1.00  0.00     0.127 C 
HETATM   20  N   UNL     1     -39.725 -55.288  15.698  1.00  0.00    -0.352 N 
HETATM   21  C   UNL     1     -39.324 -54.617  14.466  1.00  0.00     0.127 C 
HETATM   22  C   UNL     1     -38.691 -55.846  16.466  1.00  0.00     0.224 C 
HETATM   23  C   UNL     1     -40.419 -54.612  13.410  1.00  0.00     0.045 C 
HETATM   24  O   UNL     1     -37.570 -56.058  16.016  1.00  0.00    -0.273 OA
BRANCH  22  25
HETATM   25  C   UNL     1     -38.974 -56.179  17.901  1.00  0.00     0.078 A 
HETATM   26  C   UNL     1     -38.124 -57.201  18.628  1.00  0.00     0.015 A 
HETATM   27  C   UNL     1     -39.542 -57.530  18.272  1.00  0.00     0.015 A 
ENDBRANCH  22  25
ENDBRANCH   4  17
TORSDOF 5
ENDMDL
MODEL 7
REMARK VINA RESULT:      -5.7      2.455      3.387
REMARK  5 active torsions:
REMARK  status: ('A' for Active; 'I' for Inactive)
REMARK    1  A    between atoms: C_2  and  O_3 
REMARK    2  A    between atoms: O_3  and  C_4 
REMARK    3  A    between atoms: C_10  and  N_11 
REMARK       I    between atoms: N_11  and  C_12 
REMARK       I    between atoms: C_12  and  N_14 
REMARK    4  A    between atoms: N_14  and  C_15 
REMARK       I    between atoms: N_18  and  C_21 
REMARK    5  A    between atoms: C_21  and  C_23 
ROOT
HETATM    1  N   UNL     1     -40.506 -47.661  13.746  1.00  0.00    -0.305 N 
HETATM    2  C   UNL     1     -40.259 -48.756  12.945  1.00  0.00     0.321 C 
HETATM    3  O   UNL     1     -39.715 -48.706  11.848  1.00  0.00    -0.247 OA
HETATM    4  N   UNL     1     -40.666 -49.942  13.518  1.00  0.00    -0.338 N 
HETATM    5  H   UNL     1     -40.345 -47.805  14.735  1.00  0.00     0.171 HD
HETATM    6  H   UNL     1     -41.170 -49.910  14.391  1.00  0.00     0.164 HD
ENDROOT
BRANCH   1   7
HETATM    7  C   UNL     1     -40.262 -46.336  13.297  1.00  0.00     0.087 A 
HETATM    8  C   UNL     1     -41.241 -45.619  12.602  1.00  0.00     0.169 A 
HETATM    9  N   UNL     1     -41.054 -44.375  12.095  1.00  0.00    -0.345 N 
HETATM   10  C   UNL     1     -39.859 -43.797  12.321  1.00  0.00     0.090 A 
ATOM     11  HN  UNL     1     -41.786 -43.898  11.568  1.00  0.00     0.167 HD
HETATM   12  C   UNL     1     -38.836 -44.403  13.030  1.00  0.00     0.019 A 
HETATM   13  C   UNL     1     -39.043 -45.693  13.521  1.00  0.00     0.035 A 
BRANCH   8  14
HETATM   14  O   UNL     1     -42.501 -46.187  12.488  1.00  0.00    -0.334 OA
BRANCH  14  15
HETATM   15  C   UNL     1     -42.771 -46.520  11.118  1.00  0.00     0.173 C 
HETATM   16  C   UNL     1     -43.502 -47.847  11.053  1.00  0.00     0.034 C 
ENDBRANCH  14  15
ENDBRANCH   8  14
ENDBRANCH   1   7
BRANCH   4  17
HETATM   17  C   UNL     1     -40.291 -51.225  12.916  1.00  0.00     0.089 C 
HETATM   18  C   UNL     1     -41.296 -51.749  11.890  1.00  0.00     0.045 C 
HETATM   19  C   UNL     1     -42.536 -52.412  12.487  1.00  0.00     0.127 C 
HETATM   20  N   UNL     1     -42.258 -53.292  13.618  1.00  0.00    -0.352 N 
HETATM   21  C   UNL     1     -41.304 -52.806  14.609  1.00  0.00     0.127 C 
HETATM   22  C   UNL     1     -43.160 -54.275  14.055  1.00  0.00     0.224 C 
HETATM   23  C   UNL     1     -40.018 -52.281  13.987  1.00  0.00     0.045 C 
HETATM   24  O   UNL     1     -42.984 -54.931  15.076  1.00  0.00    -0.273 OA
BRANCH  22  25
HETATM   25  C   UNL     1     -44.395 -54.517  13.239  1.00  0.00     0.078 A 
HETATM   26  C   UNL     1     -45.687 -53.804  13.583  1.00  0.00     0.015 A 
HETATM   27  C   UNL     1     -45.562 -55.277  13.828  1.00  0.00     0.015 A 
ENDBRANCH  22  25
ENDBRANCH   4  17
TORSDOF 5
ENDMDL
MODEL 8
REMARK VINA RESULT:      -5.5      4.750      9.866
REMARK  5 active torsions:
REMARK  status: ('A' for Active; 'I' for Inactive)
REMARK    1  A    between atoms: C_2  and  O_3 
REMARK    2  A    between atoms: O_3  and  C_4 
REMARK    3  A    between atoms: C_10  and  N_11 
REMARK       I    between atoms: N_11  and  C_12 
REMARK       I    between atoms: C_12  and  N_14 
REMARK    4  A    between atoms: N_14  and  C_15 
REMARK       I    between atoms: N_18  and  C_21 
REMARK    5  A    between atoms: C_21  and  C_23 
ROOT
HETATM    1  N   UNL     1     -40.169 -56.136  17.371  1.00  0.00    -0.305 N 
HETATM    2  C   UNL     1     -39.736 -55.423  16.273  1.00  0.00     0.321 C 
HETATM    3  O   UNL     1     -38.753 -55.710  15.601  1.00  0.00    -0.247 OA
HETATM    4  N   UNL     1     -40.548 -54.348  15.979  1.00  0.00    -0.338 N 
HETATM    5  H   UNL     1     -41.171 -56.248  17.445  1.00  0.00     0.171 HD
HETATM    6  H   UNL     1     -41.301 -54.122  16.610  1.00  0.00     0.164 HD
ENDROOT
BRANCH   1   7
HETATM    7  C   UNL     1     -39.415 -57.215  17.905  1.00  0.00     0.087 A 
HETATM    8  C   UNL     1     -38.345 -56.985  18.775  1.00  0.00     0.169 A 
HETATM    9  N   UNL     1     -37.549 -57.962  19.275  1.00  0.00    -0.345 N 
HETATM   10  C   UNL     1     -37.849 -59.229  18.931  1.00  0.00     0.090 A 
ATOM     11  HN  UNL     1     -36.759 -57.748  19.884  1.00  0.00     0.167 HD
HETATM   12  C   UNL     1     -38.909 -59.569  18.108  1.00  0.00     0.019 A 
HETATM   13  C   UNL     1     -39.700 -58.544  17.588  1.00  0.00     0.035 A 
BRANCH   8  14
HETATM   14  O   UNL     1     -38.131 -55.685  19.210  1.00  0.00    -0.334 OA
BRANCH  14  15
HETATM   15  C   UNL     1     -36.805 -55.259  18.863  1.00  0.00     0.173 C 
HETATM   16  C   UNL     1     -36.852 -53.845  18.319  1.00  0.00     0.034 C 
ENDBRANCH  14  15
ENDBRANCH   8  14
ENDBRANCH   1   7
BRANCH   4  17
HETATM   17  C   UNL     1     -40.375 -53.606  14.727  1.00  0.00     0.089 C 
HETATM   18  C   UNL     1     -40.944 -52.187  14.759  1.00  0.00     0.045 C 
HETATM   19  C   UNL     1     -42.457 -52.099  14.581  1.00  0.00     0.127 C 
HETATM   20  N   UNL     1     -42.990 -52.979  13.544  1.00  0.00    -0.352 N 
HETATM   21  C   UNL     1     -42.460 -54.337  13.500  1.00  0.00     0.127 C 
HETATM   22  C   UNL     1     -44.250 -52.785  12.957  1.00  0.00     0.224 C 
HETATM   23  C   UNL     1     -40.940 -54.383  13.538  1.00  0.00     0.045 C 
HETATM   24  O   UNL     1     -44.750 -53.589  12.177  1.00  0.00    -0.273 OA
BRANCH  22  25
HETATM   25  C   UNL     1     -45.016 -51.546  13.315  1.00  0.00     0.078 A 
HETATM   26  C   UNL     1     -46.046 -51.582  14.425  1.00  0.00     0.015 A 
HETATM   27  C   UNL     1     -46.492 -51.445  13.001  1.00  0.00     0.015 A 
ENDBRANCH  22  25
ENDBRANCH   4  17
TORSDOF 5
ENDMDL
MODEL 9
REMARK VINA RESULT:      -5.5      2.218      8.686
REMARK  5 active torsions:
REMARK  status: ('A' for Active; 'I' for Inactive)
REMARK    1  A    between atoms: C_2  and  O_3 
REMARK    2  A    between atoms: O_3  and  C_4 
REMARK    3  A    between atoms: C_10  and  N_11 
REMARK       I    between atoms: N_11  and  C_12 
REMARK       I    between atoms: C_12  and  N_14 
REMARK    4  A    between atoms: N_14  and  C_15 
REMARK       I    between atoms: N_18  and  C_21 
REMARK    5  A    between atoms: C_21  and  C_23 
ROOT
HETATM    1  N   UNL     1     -43.145 -51.116  13.449  1.00  0.00    -0.305 N 
HETATM    2  C   UNL     1     -42.162 -50.883  12.509  1.00  0.00     0.321 C 
HETATM    3  O   UNL     1     -41.658 -51.746  11.801  1.00  0.00    -0.247 OA
HETATM    4  N   UNL     1     -41.811 -49.553  12.421  1.00  0.00    -0.338 N 
HETATM    5  H   UNL     1     -43.873 -50.415  13.494  1.00  0.00     0.171 HD
HETATM    6  H   UNL     1     -42.210 -48.900  13.078  1.00  0.00     0.164 HD
ENDROOT
BRANCH   1   7
HETATM    7  C   UNL     1     -43.571 -52.431  13.772  1.00  0.00     0.087 A 
HETATM    8  C   UNL     1     -42.883 -53.200  14.715  1.00  0.00     0.169 A 
HETATM    9  N   UNL     1     -43.201 -54.481  15.029  1.00  0.00    -0.345 N 
HETATM   10  C   UNL     1     -44.273 -55.012  14.411  1.00  0.00     0.090 A 
ATOM     11  HN  UNL     1     -42.653 -55.017  15.702  1.00  0.00     0.167 HD
HETATM   12  C   UNL     1     -45.047 -54.324  13.492  1.00  0.00     0.019 A 
HETATM   13  C   UNL     1     -44.686 -53.016  13.168  1.00  0.00     0.035 A 
BRANCH   8  14
HETATM   14  O   UNL     1     -41.858 -52.591  15.425  1.00  0.00    -0.334 OA
BRANCH  14  15
HETATM   15  C   UNL     1     -40.597 -53.184  15.079  1.00  0.00     0.173 C 
HETATM   16  C   UNL     1     -39.534 -52.106  14.999  1.00  0.00     0.034 C 
ENDBRANCH  14  15
ENDBRANCH   8  14
ENDBRANCH   1   7
BRANCH   4  17
HETATM   17  C   UNL     1     -40.947 -49.083  11.334  1.00  0.00     0.089 C 
HETATM   18  C   UNL     1     -39.704 -48.329  11.807  1.00  0.00     0.045 C 
HETATM   19  C   UNL     1     -39.950 -46.878  12.214  1.00  0.00     0.127 C 
HETATM   20  N   UNL     1     -40.838 -46.146  11.315  1.00  0.00    -0.352 N 
HETATM   21  C   UNL     1     -42.031 -46.850  10.855  1.00  0.00     0.127 C 
HETATM   22  C   UNL     1     -40.890 -44.744  11.272  1.00  0.00     0.224 C 
HETATM   23  C   UNL     1     -41.730 -48.244  10.324  1.00  0.00     0.045 C 
HETATM   24  O   UNL     1     -41.719 -44.131  10.608  1.00  0.00    -0.273 OA
BRANCH  22  25
HETATM   25  C   UNL     1     -39.894 -43.973  12.086  1.00  0.00     0.078 A 
HETATM   26  C   UNL     1     -40.265 -43.468  13.465  1.00  0.00     0.015 A 
HETATM   27  C   UNL     1     -40.095 -42.496  12.338  1.00  0.00     0.015 A 
ENDBRANCH  22  25
ENDBRANCH   4  17
TORSDOF 5
ENDMDL
