MODEL 1
REMARK VINA RESULT:      -6.8      0.000      0.000
REMARK  4 active torsions:
REMARK  status: ('A' for Active; 'I' for Inactive)
REMARK    1  A    between atoms: O_1  and  C_2 
REMARK    2  A    between atoms: C_7  and  N_8 
REMARK       I    between atoms: N_8  and  C_9 
REMARK       I    between atoms: C_9  and  N_11 
REMARK    3  A    between atoms: N_11  and  C_12 
REMARK    4  A    between atoms: C_17  and  C_19 
ROOT
HETATM    1  N   UNL     1     -41.759 -50.182  12.346  1.00  0.00    -0.336 N 
HETATM    2  C   UNL     1     -41.033 -49.060  12.604  1.00  0.00     0.322 C 
HETATM    3  O   UNL     1     -40.266 -48.963  13.559  1.00  0.00    -0.247 OA
HETATM    4  N   UNL     1     -41.177 -48.013  11.739  1.00  0.00    -0.288 N 
HETATM    5  H   UNL     1     -42.112 -50.281  11.399  1.00  0.00     0.164 HD
HETATM    6  H   UNL     1     -40.584 -47.213  11.897  1.00  0.00     0.172 HD
ENDROOT
BRANCH   1   7
HETATM    7  C   UNL     1     -41.622 -51.426  13.084  1.00  0.00     0.114 C 
HETATM    8  C   UNL     1     -40.750 -52.448  12.322  1.00  0.00     0.140 C 
HETATM    9  C   UNL     1     -40.645 -53.752  13.117  1.00  0.00     0.034 C 
HETATM   10  C   UNL     1     -42.020 -54.327  13.469  1.00  0.00     0.003 C 
HETATM   11  C   UNL     1     -42.914 -53.302  14.163  1.00  0.00     0.002 C 
HETATM   12  C   UNL     1     -43.015 -52.005  13.369  1.00  0.00     0.028 C 
BRANCH   8  13
HETATM   13  O   UNL     1     -41.328 -52.725  11.039  1.00  0.00    -0.394 OA
HETATM   14  H   UNL     1     -41.094 -51.986  10.451  1.00  0.00     0.210 HD
ENDBRANCH   8  13
ENDBRANCH   1   7
BRANCH   4  15
HETATM   15  C   UNL     1     -42.035 -48.009  10.677  1.00  0.00     0.169 A 
HETATM   16  N   UNL     1     -41.770 -48.313   9.429  1.00  0.00    -0.279 N 
HETATM   17  N   UNL     1     -42.854 -48.116   8.614  1.00  0.00    -0.296 N 
ATOM     18  HN  UNL     1     -40.866 -48.656   9.104  1.00  0.00     0.189 HD
HETATM   19  C   UNL     1     -43.884 -47.647   9.283  1.00  0.00     0.074 A 
ATOM     20  HN  UNL     1     -42.861 -48.309   7.612  1.00  0.00     0.187 HD
HETATM   21  S   UNL     1     -43.630 -47.496  10.974  1.00  0.00    -0.037 SA
BRANCH  19  22
HETATM   22  C   UNL     1     -45.175 -47.249   8.577  1.00  0.00     0.044 A 
HETATM   23  C   UNL     1     -46.434 -47.124   9.412  1.00  0.00     0.012 A 
HETATM   24  C   UNL     1     -46.277 -48.292   8.506  1.00  0.00     0.012 A 
ENDBRANCH  19  22
ENDBRANCH   4  15
TORSDOF 4
ENDMDL
MODEL 2
REMARK VINA RESULT:      -6.3      2.476      6.002
REMARK  4 active torsions:
REMARK  status: ('A' for Active; 'I' for Inactive)
REMARK    1  A    between atoms: O_1  and  C_2 
REMARK    2  A    between atoms: C_7  and  N_8 
REMARK       I    between atoms: N_8  and  C_9 
REMARK       I    between atoms: C_9  and  N_11 
REMARK    3  A    between atoms: N_11  and  C_12 
REMARK    4  A    between atoms: C_17  and  C_19 
ROOT
HETATM    1  N   UNL     1     -42.112 -49.016  10.968  1.00  0.00    -0.336 N 
HETATM    2  C   UNL     1     -40.987 -49.486  11.573  1.00  0.00     0.322 C 
HETATM    3  O   UNL     1     -39.902 -48.914  11.506  1.00  0.00    -0.247 OA
HETATM    4  N   UNL     1     -41.103 -50.644  12.289  1.00  0.00    -0.288 N 
HETATM    5  H   UNL     1     -42.995 -49.370  11.323  1.00  0.00     0.164 HD
HETATM    6  H   UNL     1     -40.283 -50.947  12.790  1.00  0.00     0.172 HD
ENDROOT
BRANCH   1   7
HETATM    7  C   UNL     1     -42.193 -47.735  10.286  1.00  0.00     0.114 C 
HETATM    8  C   UNL     1     -42.376 -46.569  11.283  1.00  0.00     0.140 C 
HETATM    9  C   UNL     1     -42.479 -45.240  10.530  1.00  0.00     0.034 C 
HETATM   10  C   UNL     1     -43.583 -45.260   9.470  1.00  0.00     0.003 C 
HETATM   11  C   UNL     1     -43.450 -46.449   8.520  1.00  0.00     0.002 C 
HETATM   12  C   UNL     1     -43.346 -47.770   9.274  1.00  0.00     0.028 C 
BRANCH   8  13
HETATM   13  O   UNL     1     -43.568 -46.766  12.055  1.00  0.00    -0.394 OA
HETATM   14  H   UNL     1     -43.786 -45.915  12.472  1.00  0.00     0.210 HD
ENDBRANCH   8  13
ENDBRANCH   1   7
BRANCH   4  15
HETATM   15  C   UNL     1     -42.253 -51.372  12.385  1.00  0.00     0.169 A 
HETATM   16  N   UNL     1     -42.553 -52.485  11.757  1.00  0.00    -0.279 N 
HETATM   17  N   UNL     1     -43.832 -52.896  12.030  1.00  0.00    -0.296 N 
ATOM     18  HN  UNL     1     -41.912 -52.985  11.141  1.00  0.00     0.189 HD
HETATM   19  C   UNL     1     -44.448 -52.058  12.835  1.00  0.00     0.074 A 
ATOM     20  HN  UNL     1     -44.254 -53.746  11.655  1.00  0.00     0.187 HD
HETATM   21  S   UNL     1     -43.480 -50.753  13.388  1.00  0.00    -0.037 SA
BRANCH  19  22
HETATM   22  C   UNL     1     -45.916 -52.245  13.202  1.00  0.00     0.044 A 
HETATM   23  C   UNL     1     -46.470 -51.435  14.358  1.00  0.00     0.012 A 
HETATM   24  C   UNL     1     -46.220 -52.890  14.543  1.00  0.00     0.012 A 
ENDBRANCH  19  22
ENDBRANCH   4  15
TORSDOF 4
ENDMDL
MODEL 3
REMARK VINA RESULT:      -6.3      2.988      3.781
REMARK  4 active torsions:
REMARK  status: ('A' for Active; 'I' for Inactive)
REMARK    1  A    between atoms: O_1  and  C_2 
REMARK    2  A    between atoms: C_7  and  N_8 
REMARK       I    between atoms: N_8  and  C_9 
REMARK       I    between atoms: C_9  and  N_11 
REMARK    3  A    between atoms: N_11  and  C_12 
REMARK    4  A    between atoms: C_17  and  C_19 
ROOT
HETATM    1  N   UNL     1     -41.720 -52.313  12.749  1.00  0.00    -0.336 N 
HETATM    2  C   UNL     1     -40.365 -52.435  12.688  1.00  0.00     0.322 C 
HETATM    3  O   UNL     1     -39.762 -53.420  13.108  1.00  0.00    -0.247 OA
HETATM    4  N   UNL     1     -39.672 -51.404  12.121  1.00  0.00    -0.288 N 
HETATM    5  H   UNL     1     -42.139 -51.635  12.120  1.00  0.00     0.164 HD
HETATM    6  H   UNL     1     -38.678 -51.533  12.017  1.00  0.00     0.172 HD
ENDROOT
BRANCH   1   7
HETATM    7  C   UNL     1     -42.611 -53.371  13.195  1.00  0.00     0.114 C 
HETATM    8  C   UNL     1     -43.966 -53.324  12.455  1.00  0.00     0.140 C 
HETATM    9  C   UNL     1     -44.886 -54.437  12.965  1.00  0.00     0.034 C 
HETATM   10  C   UNL     1     -45.066 -54.388  14.485  1.00  0.00     0.003 C 
HETATM   11  C   UNL     1     -43.729 -54.365  15.223  1.00  0.00     0.002 C 
HETATM   12  C   UNL     1     -42.816 -53.257  14.712  1.00  0.00     0.028 C 
BRANCH   8  13
HETATM   13  O   UNL     1     -44.599 -52.055  12.670  1.00  0.00    -0.394 OA
HETATM   14  H   UNL     1     -43.894 -51.391  12.750  1.00  0.00     0.210 HD
ENDBRANCH   8  13
ENDBRANCH   1   7
BRANCH   4  15
HETATM   15  C   UNL     1     -40.249 -50.252  11.668  1.00  0.00     0.169 A 
HETATM   16  N   UNL     1     -40.617 -49.967  10.441  1.00  0.00    -0.279 N 
HETATM   17  N   UNL     1     -41.083 -48.683  10.333  1.00  0.00    -0.296 N 
ATOM     18  HN  UNL     1     -40.564 -50.623   9.661  1.00  0.00     0.189 HD
HETATM   19  C   UNL     1     -41.021 -48.048  11.482  1.00  0.00     0.074 A 
ATOM     20  HN  UNL     1     -41.434 -48.271   9.468  1.00  0.00     0.187 HD
HETATM   21  S   UNL     1     -40.472 -49.002  12.800  1.00  0.00    -0.037 SA
BRANCH  19  22
HETATM   22  C   UNL     1     -41.387 -46.572  11.594  1.00  0.00     0.044 A 
HETATM   23  C   UNL     1     -41.228 -45.703  10.362  1.00  0.00     0.012 A 
HETATM   24  C   UNL     1     -40.256 -45.565  11.479  1.00  0.00     0.012 A 
ENDBRANCH  19  22
ENDBRANCH   4  15
TORSDOF 4
ENDMDL
MODEL 4
REMARK VINA RESULT:      -6.2      4.283      5.722
REMARK  4 active torsions:
REMARK  status: ('A' for Active; 'I' for Inactive)
REMARK    1  A    between atoms: O_1  and  C_2 
REMARK    2  A    between atoms: C_7  and  N_8 
REMARK       I    between atoms: N_8  and  C_9 
REMARK       I    between atoms: C_9  and  N_11 
REMARK    3  A    between atoms: N_11  and  C_12 
REMARK    4  A    between atoms: C_17  and  C_19 
ROOT
HETATM    1  N   UNL     1     -43.188 -52.630  13.981  1.00  0.00    -0.336 N 
HETATM    2  C   UNL     1     -42.462 -53.768  13.805  1.00  0.00     0.322 C 
HETATM    3  O   UNL     1     -42.766 -54.843  14.318  1.00  0.00    -0.247 OA
HETATM    4  N   UNL     1     -41.355 -53.684  13.010  1.00  0.00    -0.288 N 
HETATM    5  H   UNL     1     -43.045 -51.895  13.295  1.00  0.00     0.164 HD
HETATM    6  H   UNL     1     -40.863 -54.545  12.829  1.00  0.00     0.172 HD
ENDROOT
BRANCH   1   7
HETATM    7  C   UNL     1     -44.460 -52.579  14.682  1.00  0.00     0.114 C 
HETATM    8  C   UNL     1     -45.645 -52.869  13.734  1.00  0.00     0.140 C 
HETATM    9  C   UNL     1     -46.968 -52.785  14.499  1.00  0.00     0.034 C 
HETATM   10  C   UNL     1     -47.133 -51.445  15.223  1.00  0.00     0.003 C 
HETATM   11  C   UNL     1     -45.935 -51.117  16.111  1.00  0.00     0.002 C 
HETATM   12  C   UNL     1     -44.619 -51.204  15.346  1.00  0.00     0.028 C 
BRANCH   8  13
HETATM   13  O   UNL     1     -45.660 -51.916  12.662  1.00  0.00    -0.394 OA
HETATM   14  H   UNL     1     -44.775 -51.922  12.257  1.00  0.00     0.210 HD
ENDBRANCH   8  13
ENDBRANCH   1   7
BRANCH   4  15
HETATM   15  C   UNL     1     -40.913 -52.528  12.434  1.00  0.00     0.169 A 
HETATM   16  N   UNL     1     -41.236 -52.040  11.259  1.00  0.00    -0.279 N 
HETATM   17  N   UNL     1     -40.534 -50.900  10.968  1.00  0.00    -0.296 N 
ATOM     18  HN  UNL     1     -41.928 -52.459  10.637  1.00  0.00     0.189 HD
HETATM   19  C   UNL     1     -39.691 -50.592  11.929  1.00  0.00     0.074 A 
ATOM     20  HN  UNL     1     -40.650 -50.358  10.111  1.00  0.00     0.187 HD
HETATM   21  S   UNL     1     -39.759 -51.624  13.299  1.00  0.00    -0.037 SA
BRANCH  19  22
HETATM   22  C   UNL     1     -38.723 -49.423  11.791  1.00  0.00     0.044 A 
HETATM   23  C   UNL     1     -37.944 -48.994  13.020  1.00  0.00     0.012 A 
HETATM   24  C   UNL     1     -39.067 -48.145  12.537  1.00  0.00     0.012 A 
ENDBRANCH  19  22
ENDBRANCH   4  15
TORSDOF 4
ENDMDL
MODEL 5
REMARK VINA RESULT:      -6.0      4.296      5.724
REMARK  4 active torsions:
REMARK  status: ('A' for Active; 'I' for Inactive)
REMARK    1  A    between atoms: O_1  and  C_2 
REMARK    2  A    between atoms: C_7  and  N_8 
REMARK       I    between atoms: N_8  and  C_9 
REMARK       I    between atoms: C_9  and  N_11 
REMARK    3  A    between atoms: N_11  and  C_12 
REMARK    4  A    between atoms: C_17  and  C_19 
ROOT
HETATM    1  N   UNL     1     -40.292 -52.296  13.135  1.00  0.00    -0.336 N 
HETATM    2  C   UNL     1     -40.285 -53.638  13.361  1.00  0.00     0.322 C 
HETATM    3  O   UNL     1     -39.251 -54.287  13.507  1.00  0.00    -0.247 OA
HETATM    4  N   UNL     1     -41.497 -54.264  13.433  1.00  0.00    -0.288 N 
HETATM    5  H   UNL     1     -41.162 -51.811  13.333  1.00  0.00     0.164 HD
HETATM    6  H   UNL     1     -41.484 -55.244  13.669  1.00  0.00     0.172 HD
ENDROOT
BRANCH   1   7
HETATM    7  C   UNL     1     -39.103 -51.461  13.166  1.00  0.00     0.114 C 
HETATM    8  C   UNL     1     -38.874 -50.846  14.564  1.00  0.00     0.140 C 
HETATM    9  C   UNL     1     -37.628 -49.956  14.554  1.00  0.00     0.034 C 
HETATM   10  C   UNL     1     -37.693 -48.882  13.464  1.00  0.00     0.003 C 
HETATM   11  C   UNL     1     -37.987 -49.474  12.088  1.00  0.00     0.002 C 
HETATM   12  C   UNL     1     -39.227 -50.360  12.103  1.00  0.00     0.028 C 
BRANCH   8  13
HETATM   13  O   UNL     1     -40.010 -50.059  14.947  1.00  0.00    -0.394 OA
HETATM   14  H   UNL     1     -40.613 -50.642  15.440  1.00  0.00     0.210 HD
ENDBRANCH   8  13
ENDBRANCH   1   7
BRANCH   4  15
HETATM   15  C   UNL     1     -42.694 -53.638  13.240  1.00  0.00     0.169 A 
HETATM   16  N   UNL     1     -43.357 -53.500  12.116  1.00  0.00    -0.279 N 
HETATM   17  N   UNL     1     -44.484 -52.738  12.278  1.00  0.00    -0.296 N 
ATOM     18  HN  UNL     1     -43.068 -53.910  11.228  1.00  0.00     0.189 HD
HETATM   19  C   UNL     1     -44.608 -52.314  13.516  1.00  0.00     0.074 A 
ATOM     20  HN  UNL     1     -45.146 -52.525  11.530  1.00  0.00     0.187 HD
HETATM   21  S   UNL     1     -43.402 -52.889  14.594  1.00  0.00    -0.037 SA
BRANCH  19  22
HETATM   22  C   UNL     1     -45.728 -51.363  13.921  1.00  0.00     0.044 A 
HETATM   23  C   UNL     1     -45.995 -51.164  15.401  1.00  0.00     0.012 A 
HETATM   24  C   UNL     1     -46.948 -51.971  14.592  1.00  0.00     0.012 A 
ENDBRANCH  19  22
ENDBRANCH   4  15
TORSDOF 4
ENDMDL
MODEL 6
REMARK VINA RESULT:      -5.8      3.919      6.741
REMARK  4 active torsions:
REMARK  status: ('A' for Active; 'I' for Inactive)
REMARK    1  A    between atoms: O_1  and  C_2 
REMARK    2  A    between atoms: C_7  and  N_8 
REMARK       I    between atoms: N_8  and  C_9 
REMARK       I    between atoms: C_9  and  N_11 
REMARK    3  A    between atoms: N_11  and  C_12 
REMARK    4  A    between atoms: C_17  and  C_19 
ROOT
HETATM    1  N   UNL     1     -41.760 -45.199  11.594  1.00  0.00    -0.336 N 
HETATM    2  C   UNL     1     -41.154 -46.275  12.168  1.00  0.00     0.322 C 
HETATM    3  O   UNL     1     -40.376 -46.179  13.114  1.00  0.00    -0.247 OA
HETATM    4  N   UNL     1     -41.451 -47.505  11.653  1.00  0.00    -0.288 N 
HETATM    5  H   UNL     1     -42.593 -45.391  11.047  1.00  0.00     0.164 HD
HETATM    6  H   UNL     1     -41.053 -48.299  12.128  1.00  0.00     0.172 HD
ENDROOT
BRANCH   1   7
HETATM    7  C   UNL     1     -41.659 -43.842  12.105  1.00  0.00     0.114 C 
HETATM    8  C   UNL     1     -42.915 -43.010  11.763  1.00  0.00     0.140 C 
HETATM    9  C   UNL     1     -42.766 -41.582  12.296  1.00  0.00     0.034 C 
HETATM   10  C   UNL     1     -41.484 -40.910  11.796  1.00  0.00     0.003 C 
HETATM   11  C   UNL     1     -40.243 -41.757  12.068  1.00  0.00     0.002 C 
HETATM   12  C   UNL     1     -40.397 -43.178  11.538  1.00  0.00     0.028 C 
BRANCH   8  13
HETATM   13  O   UNL     1     -43.102 -42.964  10.342  1.00  0.00    -0.394 OA
HETATM   14  H   UNL     1     -42.370 -43.462   9.938  1.00  0.00     0.210 HD
ENDBRANCH   8  13
ENDBRANCH   1   7
BRANCH   4  15
HETATM   15  C   UNL     1     -42.267 -47.707  10.578  1.00  0.00     0.169 A 
HETATM   16  N   UNL     1     -41.922 -48.074   9.366  1.00  0.00    -0.279 N 
HETATM   17  N   UNL     1     -42.996 -48.097   8.514  1.00  0.00    -0.296 N 
ATOM     18  HN  UNL     1     -40.969 -48.313   9.090  1.00  0.00     0.189 HD
HETATM   19  C   UNL     1     -44.101 -47.722   9.119  1.00  0.00     0.074 A 
ATOM     20  HN  UNL     1     -42.943 -48.370   7.532  1.00  0.00     0.187 HD
HETATM   21  S   UNL     1     -43.926 -47.399  10.796  1.00  0.00    -0.037 SA
BRANCH  19  22
HETATM   22  C   UNL     1     -45.411 -47.567   8.355  1.00  0.00     0.044 A 
HETATM   23  C   UNL     1     -46.674 -47.300   9.151  1.00  0.00     0.012 A 
HETATM   24  C   UNL     1     -46.462 -48.645   8.553  1.00  0.00     0.012 A 
ENDBRANCH  19  22
ENDBRANCH   4  15
TORSDOF 4
ENDMDL
MODEL 7
REMARK VINA RESULT:      -5.4      3.917      7.220
REMARK  4 active torsions:
REMARK  status: ('A' for Active; 'I' for Inactive)
REMARK    1  A    between atoms: O_1  and  C_2 
REMARK    2  A    between atoms: C_7  and  N_8 
REMARK       I    between atoms: N_8  and  C_9 
REMARK       I    between atoms: C_9  and  N_11 
REMARK    3  A    between atoms: N_11  and  C_12 
REMARK    4  A    between atoms: C_17  and  C_19 
ROOT
HETATM    1  N   UNL     1     -42.323 -45.209  10.968  1.00  0.00    -0.336 N 
HETATM    2  C   UNL     1     -43.065 -45.555   9.880  1.00  0.00     0.322 C 
HETATM    3  O   UNL     1     -43.735 -44.747   9.241  1.00  0.00    -0.247 OA
HETATM    4  N   UNL     1     -43.038 -46.867   9.500  1.00  0.00    -0.288 N 
HETATM    5  H   UNL     1     -41.584 -45.854  11.232  1.00  0.00     0.164 HD
HETATM    6  H   UNL     1     -43.534 -47.101   8.655  1.00  0.00     0.172 HD
ENDROOT
BRANCH   1   7
HETATM    7  C   UNL     1     -42.134 -43.841  11.419  1.00  0.00     0.114 C 
HETATM    8  C   UNL     1     -40.655 -43.405  11.318  1.00  0.00     0.140 C 
HETATM    9  C   UNL     1     -40.491 -41.969  11.822  1.00  0.00     0.034 C 
HETATM   10  C   UNL     1     -41.041 -41.787  13.239  1.00  0.00     0.003 C 
HETATM   11  C   UNL     1     -42.481 -42.278  13.367  1.00  0.00     0.002 C 
HETATM   12  C   UNL     1     -42.642 -43.708  12.862  1.00  0.00     0.028 C 
BRANCH   8  13
HETATM   13  O   UNL     1     -39.832 -44.277  12.104  1.00  0.00    -0.394 OA
HETATM   14  H   UNL     1     -39.580 -45.026  11.537  1.00  0.00     0.210 HD
ENDBRANCH   8  13
ENDBRANCH   1   7
BRANCH   4  15
HETATM   15  C   UNL     1     -42.361 -47.844  10.171  1.00  0.00     0.169 A 
HETATM   16  N   UNL     1     -41.280 -48.481   9.788  1.00  0.00    -0.279 N 
HETATM   17  N   UNL     1     -40.923 -49.462  10.675  1.00  0.00    -0.296 N 
ATOM     18  HN  UNL     1     -40.767 -48.271   8.931  1.00  0.00     0.189 HD
HETATM   19  C   UNL     1     -41.768 -49.537  11.680  1.00  0.00     0.074 A 
ATOM     20  HN  UNL     1     -40.102 -50.060  10.570  1.00  0.00     0.187 HD
HETATM   21  S   UNL     1     -43.012 -48.355  11.659  1.00  0.00    -0.037 SA
BRANCH  19  22
HETATM   22  C   UNL     1     -41.641 -50.620  12.745  1.00  0.00     0.044 A 
HETATM   23  C   UNL     1     -40.952 -51.916  12.365  1.00  0.00     0.012 A 
HETATM   24  C   UNL     1     -42.429 -51.900  12.531  1.00  0.00     0.012 A 
ENDBRANCH  19  22
ENDBRANCH   4  15
TORSDOF 4
ENDMDL
MODEL 8
REMARK VINA RESULT:      -5.4      4.251      7.344
REMARK  4 active torsions:
REMARK  status: ('A' for Active; 'I' for Inactive)
REMARK    1  A    between atoms: O_1  and  C_2 
REMARK    2  A    between atoms: C_7  and  N_8 
REMARK       I    between atoms: N_8  and  C_9 
REMARK       I    between atoms: C_9  and  N_11 
REMARK    3  A    between atoms: N_11  and  C_12 
REMARK    4  A    between atoms: C_17  and  C_19 
ROOT
HETATM    1  N   UNL     1     -41.595 -44.762  11.338  1.00  0.00    -0.336 N 
HETATM    2  C   UNL     1     -40.538 -45.044  10.528  1.00  0.00     0.322 C 
HETATM    3  O   UNL     1     -39.838 -44.175  10.013  1.00  0.00    -0.247 OA
HETATM    4  N   UNL     1     -40.260 -46.362  10.301  1.00  0.00    -0.288 N 
HETATM    5  H   UNL     1     -41.909 -45.514  11.945  1.00  0.00     0.164 HD
HETATM    6  H   UNL     1     -39.436 -46.562   9.758  1.00  0.00     0.172 HD
ENDROOT
BRANCH   1   7
HETATM    7  C   UNL     1     -41.940 -43.424  11.787  1.00  0.00     0.114 C 
HETATM    8  C   UNL     1     -42.243 -43.392  13.302  1.00  0.00     0.140 C 
HETATM    9  C   UNL     1     -42.624 -41.973  13.735  1.00  0.00     0.034 C 
HETATM   10  C   UNL     1     -43.783 -41.408  12.910  1.00  0.00     0.003 C 
HETATM   11  C   UNL     1     -43.521 -41.498  11.408  1.00  0.00     0.002 C 
HETATM   12  C   UNL     1     -43.141 -42.911  10.981  1.00  0.00     0.028 C 
BRANCH   8  13
HETATM   13  O   UNL     1     -43.326 -44.282  13.604  1.00  0.00    -0.394 OA
HETATM   14  H   UNL     1     -44.054 -43.743  13.958  1.00  0.00     0.210 HD
ENDBRANCH   8  13
ENDBRANCH   1   7
BRANCH   4  15
HETATM   15  C   UNL     1     -41.005 -47.396  10.791  1.00  0.00     0.169 A 
HETATM   16  N   UNL     1     -42.099 -47.911  10.280  1.00  0.00    -0.279 N 
HETATM   17  N   UNL     1     -42.630 -48.884  11.086  1.00  0.00    -0.296 N 
ATOM     18  HN  UNL     1     -42.505 -47.621   9.391  1.00  0.00     0.189 HD
HETATM   19  C   UNL     1     -41.923 -49.043  12.183  1.00  0.00     0.074 A 
ATOM     20  HN  UNL     1     -43.469 -49.419  10.862  1.00  0.00     0.187 HD
HETATM   21  S   UNL     1     -40.507 -48.076  12.270  1.00  0.00    -0.037 SA
BRANCH  19  22
HETATM   22  C   UNL     1     -42.371 -49.997  13.285  1.00  0.00     0.044 A 
HETATM   23  C   UNL     1     -43.844 -50.347  13.369  1.00  0.00     0.012 A 
HETATM   24  C   UNL     1     -43.256 -49.428  14.379  1.00  0.00     0.012 A 
ENDBRANCH  19  22
ENDBRANCH   4  15
TORSDOF 4
ENDMDL
MODEL 9
REMARK VINA RESULT:      -5.4      4.969      6.897
REMARK  4 active torsions:
REMARK  status: ('A' for Active; 'I' for Inactive)
REMARK    1  A    between atoms: O_1  and  C_2 
REMARK    2  A    between atoms: C_7  and  N_8 
REMARK       I    between atoms: N_8  and  C_9 
REMARK       I    between atoms: C_9  and  N_11 
REMARK    3  A    between atoms: N_11  and  C_12 
REMARK    4  A    between atoms: C_17  and  C_19 
ROOT
HETATM    1  N   UNL     1     -43.139 -53.445  14.744  1.00  0.00    -0.336 N 
HETATM    2  C   UNL     1     -42.738 -54.652  15.228  1.00  0.00     0.322 C 
HETATM    3  O   UNL     1     -43.516 -55.577  15.452  1.00  0.00    -0.247 OA
HETATM    4  N   UNL     1     -41.402 -54.818  15.459  1.00  0.00    -0.288 N 
HETATM    5  H   UNL     1     -42.420 -52.873  14.311  1.00  0.00     0.164 HD
HETATM    6  H   UNL     1     -41.105 -55.736  15.752  1.00  0.00     0.172 HD
ENDROOT
BRANCH   1   7
HETATM    7  C   UNL     1     -44.497 -53.152  14.318  1.00  0.00     0.114 C 
HETATM    8  C   UNL     1     -44.586 -52.956  12.788  1.00  0.00     0.140 C 
HETATM    9  C   UNL     1     -46.025 -52.628  12.379  1.00  0.00     0.034 C 
HETATM   10  C   UNL     1     -46.581 -51.421  13.141  1.00  0.00     0.003 C 
HETATM   11  C   UNL     1     -46.436 -51.575  14.653  1.00  0.00     0.002 C 
HETATM   12  C   UNL     1     -45.003 -51.905  15.056  1.00  0.00     0.028 C 
BRANCH   8  13
HETATM   13  O   UNL     1     -43.725 -51.885  12.380  1.00  0.00    -0.394 OA
HETATM   14  H   UNL     1     -42.841 -52.264  12.233  1.00  0.00     0.210 HD
ENDBRANCH   8  13
ENDBRANCH   1   7
BRANCH   4  15
HETATM   15  C   UNL     1     -40.468 -53.838  15.284  1.00  0.00     0.169 A 
HETATM   16  N   UNL     1     -40.120 -52.899  16.133  1.00  0.00    -0.279 N 
HETATM   17  N   UNL     1     -39.209 -52.031  15.590  1.00  0.00    -0.296 N 
ATOM     18  HN  UNL     1     -40.483 -52.825  17.084  1.00  0.00     0.189 HD
HETATM   19  C   UNL     1     -38.929 -52.342  14.343  1.00  0.00     0.074 A 
ATOM     20  HN  UNL     1     -38.799 -51.242  16.091  1.00  0.00     0.187 HD
HETATM   21  S   UNL     1     -39.691 -53.770  13.772  1.00  0.00    -0.037 SA
BRANCH  19  22
HETATM   22  C   UNL     1     -38.019 -51.463  13.492  1.00  0.00     0.044 A 
HETATM   23  C   UNL     1     -38.040 -49.967  13.737  1.00  0.00     0.012 A 
HETATM   24  C   UNL     1     -38.687 -50.513  12.514  1.00  0.00     0.012 A 
ENDBRANCH  19  22
ENDBRANCH   4  15
TORSDOF 4
ENDMDL
