MODEL 1
REMARK VINA RESULT:      -4.8      0.000      0.000
REMARK  7 active torsions:
REMARK  status: ('A' for Active; 'I' for Inactive)
REMARK    1  A    between atoms: O_2  and  C_3 
REMARK    2  A    between atoms: C_3  and  C_4 
REMARK    3  A    between atoms: C_4  and  N_5 
REMARK    4  A    between atoms: C_6  and  C_7 
REMARK    5  A    between atoms: C_7  and  C_8 
REMARK    6  A    between atoms: C_8  and  C_9 
REMARK    7  A    between atoms: C_9  and  O_10 
ROOT
HETATM    1  N   UNL     1     -41.065 -47.657  11.785  1.00  0.00    -0.333 N 
HETATM    2  C   UNL     1     -42.248 -48.256  11.389  1.00  0.00     0.084 A 
HETATM    3  N   UNL     1     -42.162 -49.566  11.498  1.00  0.00    -0.344 N 
ATOM      4  HN  UNL     1     -42.897 -50.245  11.302  1.00  0.00     0.167 HD
HETATM    5  C   UNL     1     -40.890 -49.834  11.926  1.00  0.00     0.060 A 
HETATM    6  C   UNL     1     -40.290 -51.068  12.206  1.00  0.00     0.032 A 
HETATM    7  C   UNL     1     -38.959 -51.092  12.636  1.00  0.00     0.002 A 
HETATM    8  C   UNL     1     -38.232 -49.907  12.758  1.00  0.00     0.002 A 
HETATM    9  C   UNL     1     -38.814 -48.667  12.466  1.00  0.00     0.032 A 
HETATM   10  C   UNL     1     -40.161 -48.661  12.076  1.00  0.00     0.062 A 
ENDROOT
BRANCH   2  11
HETATM   11  C   UNL     1     -43.488 -47.558  10.931  1.00  0.00     0.079 C 
BRANCH  11  12
HETATM   12  C   UNL     1     -43.689 -47.597   9.417  1.00  0.00     0.033 C 
BRANCH  12  13
HETATM   13  C   UNL     1     -43.854 -46.226   8.765  1.00  0.00     0.164 C 
BRANCH  13  14
HETATM   14  O   UNL     1     -42.712 -45.955   7.954  1.00  0.00    -0.401 OA
HETATM   15  H   UNL     1     -42.097 -46.702   8.051  1.00  0.00     0.209 HD
ENDBRANCH  13  14
ENDBRANCH  12  13
ENDBRANCH  11  12
ENDBRANCH   2  11
BRANCH   1  16
HETATM   16  C   UNL     1     -40.781 -46.238  11.893  1.00  0.00     0.156 C 
BRANCH  16  17
HETATM   17  C   UNL     1     -40.225 -45.621  10.607  1.00  0.00     0.187 C 
BRANCH  17  18
HETATM   18  O   UNL     1     -41.132 -44.618  10.138  1.00  0.00    -0.394 OA
HETATM   19  C   UNL     1     -41.941 -44.107  11.192  1.00  0.00     0.201 C 
ENDBRANCH  17  18
ENDBRANCH  16  17
ENDBRANCH   1  16
TORSDOF 7
ENDMDL
MODEL 2
REMARK VINA RESULT:      -4.8      4.852      7.106
REMARK  7 active torsions:
REMARK  status: ('A' for Active; 'I' for Inactive)
REMARK    1  A    between atoms: O_2  and  C_3 
REMARK    2  A    between atoms: C_3  and  C_4 
REMARK    3  A    between atoms: C_4  and  N_5 
REMARK    4  A    between atoms: C_6  and  C_7 
REMARK    5  A    between atoms: C_7  and  C_8 
REMARK    6  A    between atoms: C_8  and  C_9 
REMARK    7  A    between atoms: C_9  and  O_10 
ROOT
HETATM    1  N   UNL     1     -41.222 -53.090  13.687  1.00  0.00    -0.333 N 
HETATM    2  C   UNL     1     -41.163 -52.157  12.667  1.00  0.00     0.084 A 
HETATM    3  N   UNL     1     -42.334 -52.042  12.076  1.00  0.00    -0.344 N 
ATOM      4  HN  UNL     1     -42.576 -51.407  11.316  1.00  0.00     0.167 HD
HETATM    5  C   UNL     1     -43.163 -52.945  12.685  1.00  0.00     0.060 A 
HETATM    6  C   UNL     1     -44.514 -53.217  12.438  1.00  0.00     0.032 A 
HETATM    7  C   UNL     1     -45.158 -54.199  13.199  1.00  0.00     0.002 A 
HETATM    8  C   UNL     1     -44.458 -54.915  14.171  1.00  0.00     0.002 A 
HETATM    9  C   UNL     1     -43.102 -54.666  14.417  1.00  0.00     0.032 A 
HETATM   10  C   UNL     1     -42.485 -53.651  13.672  1.00  0.00     0.062 A 
ENDROOT
BRANCH   2  11
HETATM   11  C   UNL     1     -39.972 -51.342  12.277  1.00  0.00     0.079 C 
BRANCH  11  12
HETATM   12  C   UNL     1     -40.155 -49.842  12.502  1.00  0.00     0.033 C 
BRANCH  12  13
HETATM   13  C   UNL     1     -40.658 -49.075  11.281  1.00  0.00     0.164 C 
BRANCH  13  14
HETATM   14  O   UNL     1     -40.550 -49.911  10.129  1.00  0.00    -0.401 OA
HETATM   15  H   UNL     1     -40.207 -50.773  10.422  1.00  0.00     0.209 HD
ENDBRANCH  13  14
ENDBRANCH  12  13
ENDBRANCH  11  12
ENDBRANCH   2  11
BRANCH   1  16
HETATM   16  C   UNL     1     -40.176 -53.446  14.627  1.00  0.00     0.156 C 
BRANCH  16  17
HETATM   17  C   UNL     1     -39.150 -54.432  14.063  1.00  0.00     0.187 C 
BRANCH  17  18
HETATM   18  O   UNL     1     -38.960 -55.497  15.000  1.00  0.00    -0.394 OA
HETATM   19  C   UNL     1     -39.736 -55.306  16.178  1.00  0.00     0.201 C 
ENDBRANCH  17  18
ENDBRANCH  16  17
ENDBRANCH   1  16
TORSDOF 7
ENDMDL
MODEL 3
REMARK VINA RESULT:      -4.7      6.771      8.695
REMARK  7 active torsions:
REMARK  status: ('A' for Active; 'I' for Inactive)
REMARK    1  A    between atoms: O_2  and  C_3 
REMARK    2  A    between atoms: C_3  and  C_4 
REMARK    3  A    between atoms: C_4  and  N_5 
REMARK    4  A    between atoms: C_6  and  C_7 
REMARK    5  A    between atoms: C_7  and  C_8 
REMARK    6  A    between atoms: C_8  and  C_9 
REMARK    7  A    between atoms: C_9  and  O_10 
ROOT
HETATM    1  N   UNL     1     -43.421 -53.196  14.540  1.00  0.00    -0.333 N 
HETATM    2  C   UNL     1     -42.909 -53.717  13.364  1.00  0.00     0.084 A 
HETATM    3  N   UNL     1     -43.701 -53.437  12.350  1.00  0.00    -0.344 N 
ATOM      4  HN  UNL     1     -43.548 -53.675  11.370  1.00  0.00     0.167 HD
HETATM    5  C   UNL     1     -44.772 -52.764  12.873  1.00  0.00     0.060 A 
HETATM    6  C   UNL     1     -45.894 -52.236  12.220  1.00  0.00     0.032 A 
HETATM    7  C   UNL     1     -46.872 -51.581  12.976  1.00  0.00     0.002 A 
HETATM    8  C   UNL     1     -46.746 -51.478  14.361  1.00  0.00     0.002 A 
HETATM    9  C   UNL     1     -45.639 -52.015  15.029  1.00  0.00     0.032 A 
HETATM   10  C   UNL     1     -44.650 -52.633  14.251  1.00  0.00     0.062 A 
ENDROOT
BRANCH   2  11
HETATM   11  C   UNL     1     -41.624 -54.465  13.210  1.00  0.00     0.079 C 
BRANCH  11  12
HETATM   12  C   UNL     1     -40.383 -53.577  13.294  1.00  0.00     0.033 C 
BRANCH  12  13
HETATM   13  C   UNL     1     -39.230 -54.177  14.094  1.00  0.00     0.164 C 
BRANCH  13  14
HETATM   14  O   UNL     1     -38.693 -55.288  13.377  1.00  0.00    -0.401 OA
HETATM   15  H   UNL     1     -38.446 -54.975  12.489  1.00  0.00     0.209 HD
ENDBRANCH  13  14
ENDBRANCH  12  13
ENDBRANCH  11  12
ENDBRANCH   2  11
BRANCH   1  16
HETATM   16  C   UNL     1     -42.814 -53.213  15.857  1.00  0.00     0.156 C 
BRANCH  16  17
HETATM   17  C   UNL     1     -43.384 -54.287  16.786  1.00  0.00     0.187 C 
BRANCH  17  18
HETATM   18  O   UNL     1     -43.012 -55.578  16.293  1.00  0.00    -0.394 OA
HETATM   19  C   UNL     1     -41.676 -55.913  16.651  1.00  0.00     0.201 C 
ENDBRANCH  17  18
ENDBRANCH  16  17
ENDBRANCH   1  16
TORSDOF 7
ENDMDL
MODEL 4
REMARK VINA RESULT:      -4.7      4.542      7.066
REMARK  7 active torsions:
REMARK  status: ('A' for Active; 'I' for Inactive)
REMARK    1  A    between atoms: O_2  and  C_3 
REMARK    2  A    between atoms: C_3  and  C_4 
REMARK    3  A    between atoms: C_4  and  N_5 
REMARK    4  A    between atoms: C_6  and  C_7 
REMARK    5  A    between atoms: C_7  and  C_8 
REMARK    6  A    between atoms: C_8  and  C_9 
REMARK    7  A    between atoms: C_9  and  O_10 
ROOT
HETATM    1  N   UNL     1     -42.404 -51.879  12.869  1.00  0.00    -0.333 N 
HETATM    2  C   UNL     1     -41.301 -52.664  12.586  1.00  0.00     0.084 A 
HETATM    3  N   UNL     1     -40.350 -51.942  12.031  1.00  0.00    -0.344 N 
ATOM      4  HN  UNL     1     -39.423 -52.263  11.750  1.00  0.00     0.167 HD
HETATM    5  C   UNL     1     -40.852 -50.675  11.904  1.00  0.00     0.060 A 
HETATM    6  C   UNL     1     -40.242 -49.527  11.383  1.00  0.00     0.032 A 
HETATM    7  C   UNL     1     -40.964 -48.328  11.358  1.00  0.00     0.002 A 
HETATM    8  C   UNL     1     -42.280 -48.284  11.819  1.00  0.00     0.002 A 
HETATM    9  C   UNL     1     -42.908 -49.428  12.327  1.00  0.00     0.032 A 
HETATM   10  C   UNL     1     -42.155 -50.609  12.382  1.00  0.00     0.062 A 
ENDROOT
BRANCH   2  11
HETATM   11  C   UNL     1     -41.148 -54.121  12.883  1.00  0.00     0.079 C 
BRANCH  11  12
HETATM   12  C   UNL     1     -40.742 -54.413  14.327  1.00  0.00     0.033 C 
BRANCH  12  13
HETATM   13  C   UNL     1     -39.235 -54.447  14.565  1.00  0.00     0.164 C 
BRANCH  13  14
HETATM   14  O   UNL     1     -38.563 -54.450  13.306  1.00  0.00    -0.401 OA
HETATM   15  H   UNL     1     -37.766 -55.000  13.399  1.00  0.00     0.209 HD
ENDBRANCH  13  14
ENDBRANCH  12  13
ENDBRANCH  11  12
ENDBRANCH   2  11
BRANCH   1  16
HETATM   16  C   UNL     1     -43.622 -52.271  13.554  1.00  0.00     0.156 C 
BRANCH  16  17
HETATM   17  C   UNL     1     -44.720 -52.778  12.616  1.00  0.00     0.187 C 
BRANCH  17  18
HETATM   18  O   UNL     1     -44.692 -54.209  12.591  1.00  0.00    -0.394 OA
HETATM   19  C   UNL     1     -44.843 -54.760  13.895  1.00  0.00     0.201 C 
ENDBRANCH  17  18
ENDBRANCH  16  17
ENDBRANCH   1  16
TORSDOF 7
ENDMDL
MODEL 5
REMARK VINA RESULT:      -4.6      5.435      7.679
REMARK  7 active torsions:
REMARK  status: ('A' for Active; 'I' for Inactive)
REMARK    1  A    between atoms: O_2  and  C_3 
REMARK    2  A    between atoms: C_3  and  C_4 
REMARK    3  A    between atoms: C_4  and  N_5 
REMARK    4  A    between atoms: C_6  and  C_7 
REMARK    5  A    between atoms: C_7  and  C_8 
REMARK    6  A    between atoms: C_8  and  C_9 
REMARK    7  A    between atoms: C_9  and  O_10 
ROOT
HETATM    1  N   UNL     1     -43.098 -52.866  13.321  1.00  0.00    -0.333 N 
HETATM    2  C   UNL     1     -42.714 -53.926  14.124  1.00  0.00     0.084 A 
HETATM    3  N   UNL     1     -43.689 -54.263  14.943  1.00  0.00    -0.344 N 
ATOM      4  HN  UNL     1     -43.683 -55.028  15.618  1.00  0.00     0.167 HD
HETATM    5  C   UNL     1     -44.711 -53.384  14.708  1.00  0.00     0.060 A 
HETATM    6  C   UNL     1     -45.975 -53.312  15.306  1.00  0.00     0.032 A 
HETATM    7  C   UNL     1     -46.863 -52.312  14.895  1.00  0.00     0.002 A 
HETATM    8  C   UNL     1     -46.485 -51.383  13.925  1.00  0.00     0.002 A 
HETATM    9  C   UNL     1     -45.218 -51.432  13.331  1.00  0.00     0.032 A 
HETATM   10  C   UNL     1     -44.358 -52.466  13.726  1.00  0.00     0.062 A 
ENDROOT
BRANCH   2  11
HETATM   11  C   UNL     1     -41.403 -54.643  14.081  1.00  0.00     0.079 C 
BRANCH  11  12
HETATM   12  C   UNL     1     -40.457 -54.260  15.217  1.00  0.00     0.033 C 
BRANCH  12  13
HETATM   13  C   UNL     1     -39.003 -54.068  14.793  1.00  0.00     0.164 C 
BRANCH  13  14
HETATM   14  O   UNL     1     -38.852 -54.497  13.440  1.00  0.00    -0.401 OA
HETATM   15  H   UNL     1     -38.117 -55.134  13.412  1.00  0.00     0.209 HD
ENDBRANCH  13  14
ENDBRANCH  12  13
ENDBRANCH  11  12
ENDBRANCH   2  11
BRANCH   1  16
HETATM   16  C   UNL     1     -42.350 -52.255  12.239  1.00  0.00     0.156 C 
BRANCH  16  17
HETATM   17  C   UNL     1     -41.236 -51.317  12.712  1.00  0.00     0.187 C 
BRANCH  17  18
HETATM   18  O   UNL     1     -39.970 -51.861  12.327  1.00  0.00    -0.394 OA
HETATM   19  C   UNL     1     -38.904 -50.961  12.606  1.00  0.00     0.201 C 
ENDBRANCH  17  18
ENDBRANCH  16  17
ENDBRANCH   1  16
TORSDOF 7
ENDMDL
MODEL 6
REMARK VINA RESULT:      -4.6      1.676      1.917
REMARK  7 active torsions:
REMARK  status: ('A' for Active; 'I' for Inactive)
REMARK    1  A    between atoms: O_2  and  C_3 
REMARK    2  A    between atoms: C_3  and  C_4 
REMARK    3  A    between atoms: C_4  and  N_5 
REMARK    4  A    between atoms: C_6  and  C_7 
REMARK    5  A    between atoms: C_7  and  C_8 
REMARK    6  A    between atoms: C_8  and  C_9 
REMARK    7  A    between atoms: C_9  and  O_10 
ROOT
HETATM    1  N   UNL     1     -41.613 -46.497  11.091  1.00  0.00    -0.333 N 
HETATM    2  C   UNL     1     -42.245 -47.088  10.010  1.00  0.00     0.084 A 
HETATM    3  N   UNL     1     -41.874 -48.346   9.890  1.00  0.00    -0.344 N 
ATOM      4  HN  UNL     1     -42.208 -49.018   9.199  1.00  0.00     0.167 HD
HETATM    5  C   UNL     1     -40.953 -48.572  10.876  1.00  0.00     0.060 A 
HETATM    6  C   UNL     1     -40.258 -49.748  11.189  1.00  0.00     0.032 A 
HETATM    7  C   UNL     1     -39.353 -49.736  12.256  1.00  0.00     0.002 A 
HETATM    8  C   UNL     1     -39.126 -48.566  12.980  1.00  0.00     0.002 A 
HETATM    9  C   UNL     1     -39.801 -47.379  12.668  1.00  0.00     0.032 A 
HETATM   10  C   UNL     1     -40.733 -47.421  11.622  1.00  0.00     0.062 A 
ENDROOT
BRANCH   2  11
HETATM   11  C   UNL     1     -43.240 -46.442   9.102  1.00  0.00     0.079 C 
BRANCH  11  12
HETATM   12  C   UNL     1     -44.288 -47.410   8.555  1.00  0.00     0.033 C 
BRANCH  12  13
HETATM   13  C   UNL     1     -45.612 -47.405   9.315  1.00  0.00     0.164 C 
BRANCH  13  14
HETATM   14  O   UNL     1     -46.654 -46.990   8.432  1.00  0.00    -0.401 OA
HETATM   15  H   UNL     1     -46.353 -46.184   7.978  1.00  0.00     0.209 HD
ENDBRANCH  13  14
ENDBRANCH  12  13
ENDBRANCH  11  12
ENDBRANCH   2  11
BRANCH   1  16
HETATM   16  C   UNL     1     -41.810 -45.156  11.610  1.00  0.00     0.156 C 
BRANCH  16  17
HETATM   17  C   UNL     1     -40.825 -44.127  11.051  1.00  0.00     0.187 C 
BRANCH  17  18
HETATM   18  O   UNL     1     -41.542 -42.946  10.679  1.00  0.00    -0.394 OA
HETATM   19  C   UNL     1     -42.905 -43.009  11.084  1.00  0.00     0.201 C 
ENDBRANCH  17  18
ENDBRANCH  16  17
ENDBRANCH   1  16
TORSDOF 7
ENDMDL
MODEL 7
REMARK VINA RESULT:      -4.5      4.931      6.370
REMARK  7 active torsions:
REMARK  status: ('A' for Active; 'I' for Inactive)
REMARK    1  A    between atoms: O_2  and  C_3 
REMARK    2  A    between atoms: C_3  and  C_4 
REMARK    3  A    between atoms: C_4  and  N_5 
REMARK    4  A    between atoms: C_6  and  C_7 
REMARK    5  A    between atoms: C_7  and  C_8 
REMARK    6  A    between atoms: C_8  and  C_9 
REMARK    7  A    between atoms: C_9  and  O_10 
ROOT
HETATM    1  N   UNL     1     -41.643 -53.496  13.082  1.00  0.00    -0.333 N 
HETATM    2  C   UNL     1     -42.993 -53.665  13.337  1.00  0.00     0.084 A 
HETATM    3  N   UNL     1     -43.172 -54.340  14.453  1.00  0.00    -0.344 N 
ATOM      4  HN  UNL     1     -44.063 -54.578  14.888  1.00  0.00     0.167 HD
HETATM    5  C   UNL     1     -41.923 -54.660  14.914  1.00  0.00     0.060 A 
HETATM    6  C   UNL     1     -41.556 -55.365  16.068  1.00  0.00     0.032 A 
HETATM    7  C   UNL     1     -40.198 -55.571  16.333  1.00  0.00     0.002 A 
HETATM    8  C   UNL     1     -39.225 -55.106  15.448  1.00  0.00     0.002 A 
HETATM    9  C   UNL     1     -39.577 -54.415  14.282  1.00  0.00     0.032 A 
HETATM   10  C   UNL     1     -40.941 -54.183  14.055  1.00  0.00     0.062 A 
ENDROOT
BRANCH   2  11
HETATM   11  C   UNL     1     -44.125 -53.143  12.513  1.00  0.00     0.079 C 
BRANCH  11  12
HETATM   12  C   UNL     1     -44.875 -51.983  13.166  1.00  0.00     0.033 C 
BRANCH  12  13
HETATM   13  C   UNL     1     -46.351 -51.890  12.786  1.00  0.00     0.164 C 
BRANCH  13  14
HETATM   14  O   UNL     1     -46.554 -52.556  11.540  1.00  0.00    -0.401 OA
HETATM   15  H   UNL     1     -45.917 -53.290  11.491  1.00  0.00     0.209 HD
ENDBRANCH  13  14
ENDBRANCH  12  13
ENDBRANCH  11  12
ENDBRANCH   2  11
BRANCH   1  16
HETATM   16  C   UNL     1     -41.031 -52.743  12.004  1.00  0.00     0.156 C 
BRANCH  16  17
HETATM   17  C   UNL     1     -40.511 -51.368  12.430  1.00  0.00     0.187 C 
BRANCH  17  18
HETATM   18  O   UNL     1     -39.081 -51.377  12.396  1.00  0.00    -0.394 OA
HETATM   19  C   UNL     1     -38.560 -50.169  11.853  1.00  0.00     0.201 C 
ENDBRANCH  17  18
ENDBRANCH  16  17
ENDBRANCH   1  16
TORSDOF 7
ENDMDL
MODEL 8
REMARK VINA RESULT:      -4.4      4.454      6.772
REMARK  7 active torsions:
REMARK  status: ('A' for Active; 'I' for Inactive)
REMARK    1  A    between atoms: O_2  and  C_3 
REMARK    2  A    between atoms: C_3  and  C_4 
REMARK    3  A    between atoms: C_4  and  N_5 
REMARK    4  A    between atoms: C_6  and  C_7 
REMARK    5  A    between atoms: C_7  and  C_8 
REMARK    6  A    between atoms: C_8  and  C_9 
REMARK    7  A    between atoms: C_9  and  O_10 
ROOT
HETATM    1  N   UNL     1     -41.533 -53.109  12.906  1.00  0.00    -0.333 N 
HETATM    2  C   UNL     1     -40.691 -53.577  13.899  1.00  0.00     0.084 A 
HETATM    3  N   UNL     1     -41.337 -54.390  14.709  1.00  0.00    -0.344 N 
ATOM      4  HN  UNL     1     -40.950 -54.896  15.505  1.00  0.00     0.167 HD
HETATM    5  C   UNL     1     -42.633 -54.422  14.269  1.00  0.00     0.060 A 
HETATM    6  C   UNL     1     -43.725 -55.139  14.775  1.00  0.00     0.032 A 
HETATM    7  C   UNL     1     -44.970 -55.008  14.149  1.00  0.00     0.002 A 
HETATM    8  C   UNL     1     -45.127 -54.156  13.055  1.00  0.00     0.002 A 
HETATM    9  C   UNL     1     -44.049 -53.420  12.550  1.00  0.00     0.032 A 
HETATM   10  C   UNL     1     -42.801 -53.595  13.164  1.00  0.00     0.062 A 
ENDROOT
BRANCH   2  11
HETATM   11  C   UNL     1     -39.238 -53.262  14.053  1.00  0.00     0.079 C 
BRANCH  11  12
HETATM   12  C   UNL     1     -38.971 -51.920  14.734  1.00  0.00     0.033 C 
BRANCH  12  13
HETATM   13  C   UNL     1     -38.022 -51.001  13.970  1.00  0.00     0.164 C 
BRANCH  13  14
HETATM   14  O   UNL     1     -37.880 -51.484  12.634  1.00  0.00    -0.401 OA
HETATM   15  H   UNL     1     -37.009 -51.912  12.567  1.00  0.00     0.209 HD
ENDBRANCH  13  14
ENDBRANCH  12  13
ENDBRANCH  11  12
ENDBRANCH   2  11
BRANCH   1  16
HETATM   16  C   UNL     1     -41.191 -52.264  11.777  1.00  0.00     0.156 C 
BRANCH  16  17
HETATM   17  C   UNL     1     -41.317 -50.767  12.068  1.00  0.00     0.187 C 
BRANCH  17  18
HETATM   18  O   UNL     1     -40.263 -50.069  11.399  1.00  0.00    -0.394 OA
HETATM   19  C   UNL     1     -40.479 -48.662  11.400  1.00  0.00     0.201 C 
ENDBRANCH  17  18
ENDBRANCH  16  17
ENDBRANCH   1  16
TORSDOF 7
ENDMDL
MODEL 9
REMARK VINA RESULT:      -4.4      2.946      5.225
REMARK  7 active torsions:
REMARK  status: ('A' for Active; 'I' for Inactive)
REMARK    1  A    between atoms: O_2  and  C_3 
REMARK    2  A    between atoms: C_3  and  C_4 
REMARK    3  A    between atoms: C_4  and  N_5 
REMARK    4  A    between atoms: C_6  and  C_7 
REMARK    5  A    between atoms: C_7  and  C_8 
REMARK    6  A    between atoms: C_8  and  C_9 
REMARK    7  A    between atoms: C_9  and  O_10 
ROOT
HETATM    1  N   UNL     1     -39.998 -49.018  11.920  1.00  0.00    -0.333 N 
HETATM    2  C   UNL     1     -40.973 -49.996  12.017  1.00  0.00     0.084 A 
HETATM    3  N   UNL     1     -42.098 -49.583  11.471  1.00  0.00    -0.344 N 
ATOM      4  HN  UNL     1     -42.964 -50.114  11.380  1.00  0.00     0.167 HD
HETATM    5  C   UNL     1     -41.875 -48.300  11.052  1.00  0.00     0.060 A 
HETATM    6  C   UNL     1     -42.744 -47.414  10.402  1.00  0.00     0.032 A 
HETATM    7  C   UNL     1     -42.284 -46.136  10.068  1.00  0.00     0.002 A 
HETATM    8  C   UNL     1     -40.989 -45.739  10.402  1.00  0.00     0.002 A 
HETATM    9  C   UNL     1     -40.115 -46.607  11.067  1.00  0.00     0.032 A 
HETATM   10  C   UNL     1     -40.580 -47.898  11.357  1.00  0.00     0.062 A 
ENDROOT
BRANCH   2  11
HETATM   11  C   UNL     1     -40.809 -51.357  12.613  1.00  0.00     0.079 C 
BRANCH  11  12
HETATM   12  C   UNL     1     -41.599 -52.444  11.886  1.00  0.00     0.033 C 
BRANCH  12  13
HETATM   13  C   UNL     1     -42.854 -52.911  12.619  1.00  0.00     0.164 C 
BRANCH  13  14
HETATM   14  O   UNL     1     -43.857 -51.901  12.519  1.00  0.00    -0.401 OA
HETATM   15  H   UNL     1     -44.716 -52.318  12.704  1.00  0.00     0.209 HD
ENDBRANCH  13  14
ENDBRANCH  12  13
ENDBRANCH  11  12
ENDBRANCH   2  11
BRANCH   1  16
HETATM   16  C   UNL     1     -38.607 -49.108  12.321  1.00  0.00     0.156 C 
BRANCH  16  17
HETATM   17  C   UNL     1     -37.710 -49.792  11.287  1.00  0.00     0.187 C 
BRANCH  17  18
HETATM   18  O   UNL     1     -37.322 -51.077  11.780  1.00  0.00    -0.394 OA
HETATM   19  C   UNL     1     -37.265 -51.100  13.202  1.00  0.00     0.201 C 
ENDBRANCH  17  18
ENDBRANCH  16  17
ENDBRANCH   1  16
TORSDOF 7
ENDMDL
