MODEL 1
REMARK VINA RESULT:      -5.7      0.000      0.000
REMARK  6 active torsions:
REMARK  status: ('A' for Active; 'I' for Inactive)
REMARK    1  A    between atoms: C_2  and  C_3 
REMARK    2  A    between atoms: C_2  and  N_15 
REMARK       I    between atoms: C_3  and  N_5 
REMARK    3  A    between atoms: N_5  and  C_6 
REMARK    4  A    between atoms: C_6  and  C_7 
REMARK    5  A    between atoms: C_7  and  C_8 
REMARK    6  A    between atoms: C_8  and  N_9 
ROOT
HETATM    1  C   UNL     1     -42.319 -48.694  11.705  1.00  0.00     0.242 C 
HETATM    2  O   UNL     1     -42.696 -48.132  12.730  1.00  0.00    -0.271 OA
HETATM    3  N   UNL     1     -42.049 -50.049  11.659  1.00  0.00    -0.359 N 
HETATM    4  H   UNL     1     -41.899 -50.475  10.745  1.00  0.00     0.162 HD
ENDROOT
BRANCH   1   5
HETATM    5  C   UNL     1     -42.065 -47.941  10.401  1.00  0.00     0.196 C 
HETATM    6  C   UNL     1     -41.295 -46.644  10.649  1.00  0.00     0.044 C 
BRANCH   5   7
HETATM    7  N   UNL     1     -43.314 -47.732   9.689  1.00  0.00    -0.273 N 
HETATM    8  C   UNL     1     -43.538 -47.643   8.350  1.00  0.00     0.202 A 
HETATM    9  N   UNL     1     -44.826 -47.524   8.125  1.00  0.00    -0.346 N 
HETATM   10  C   UNL     1     -45.362 -47.528   9.379  1.00  0.00     0.198 A 
ATOM     11  HN  UNL     1     -45.308 -47.447   7.230  1.00  0.00     0.167 HD
HETATM   12  N   UNL     1     -44.477 -47.624  10.375  1.00  0.00    -0.292 N 
ATOM     13  HN  UNL     1     -44.635 -47.618  11.383  1.00  0.00     0.188 HD
ENDBRANCH   5   7
ENDBRANCH   1   5
BRANCH   3  14
HETATM   14  C   UNL     1     -42.274 -50.917  12.803  1.00  0.00     0.124 C 
BRANCH  14  15
HETATM   15  C   UNL     1     -42.581 -52.360  12.399  1.00  0.00     0.050 C 
BRANCH  15  16
HETATM   16  C   UNL     1     -43.512 -53.045  13.408  1.00  0.00     0.274 C 
BRANCH  16  17
HETATM   17  N   UNL     1     -44.695 -53.687  12.807  1.00  0.00     0.092 N 
HETATM   18  C   UNL     1     -45.767 -52.682  12.578  1.00  0.00     0.298 C 
HETATM   19  C   UNL     1     -46.463 -52.198  13.867  1.00  0.00     0.198 C 
HETATM   20  O   UNL     1     -46.959 -53.290  14.651  1.00  0.00    -0.388 OA
HETATM   21  C   UNL     1     -45.919 -54.231  14.943  1.00  0.00     0.198 C 
HETATM   22  C   UNL     1     -45.284 -54.757  13.648  1.00  0.00     0.298 C 
ENDBRANCH  16  17
ENDBRANCH  15  16
ENDBRANCH  14  15
ENDBRANCH   3  14
TORSDOF 6
ENDMDL
MODEL 2
REMARK VINA RESULT:      -5.3      4.133      5.393
REMARK  6 active torsions:
REMARK  status: ('A' for Active; 'I' for Inactive)
REMARK    1  A    between atoms: C_2  and  C_3 
REMARK    2  A    between atoms: C_2  and  N_15 
REMARK       I    between atoms: C_3  and  N_5 
REMARK    3  A    between atoms: N_5  and  C_6 
REMARK    4  A    between atoms: C_6  and  C_7 
REMARK    5  A    between atoms: C_7  and  C_8 
REMARK    6  A    between atoms: C_8  and  N_9 
ROOT
HETATM    1  C   UNL     1     -42.049 -46.550  11.278  1.00  0.00     0.242 C 
HETATM    2  O   UNL     1     -41.688 -45.777  10.395  1.00  0.00    -0.271 OA
HETATM    3  N   UNL     1     -41.290 -46.790  12.408  1.00  0.00    -0.359 N 
HETATM    4  H   UNL     1     -41.720 -47.313  13.170  1.00  0.00     0.162 HD
ENDROOT
BRANCH   1   5
HETATM    5  C   UNL     1     -43.343 -47.356  11.188  1.00  0.00     0.196 C 
HETATM    6  C   UNL     1     -43.251 -48.649  11.998  1.00  0.00     0.044 C 
BRANCH   5   7
HETATM    7  N   UNL     1     -43.698 -47.583   9.797  1.00  0.00    -0.273 N 
HETATM    8  C   UNL     1     -44.916 -47.513   9.196  1.00  0.00     0.202 A 
HETATM    9  N   UNL     1     -44.786 -47.720   7.907  1.00  0.00    -0.346 N 
HETATM   10  C   UNL     1     -43.447 -47.933   7.761  1.00  0.00     0.198 A 
ATOM     11  HN  UNL     1     -45.509 -47.721   7.189  1.00  0.00     0.167 HD
HETATM   12  N   UNL     1     -42.737 -47.889   8.892  1.00  0.00    -0.292 N 
ATOM     13  HN  UNL     1     -41.739 -48.044   9.036  1.00  0.00     0.188 HD
ENDBRANCH   5   7
ENDBRANCH   1   5
BRANCH   3  14
HETATM   14  C   UNL     1     -40.049 -46.078  12.667  1.00  0.00     0.124 C 
BRANCH  14  15
HETATM   15  C   UNL     1     -38.946 -46.990  13.208  1.00  0.00     0.050 C 
BRANCH  15  16
HETATM   16  C   UNL     1     -39.394 -48.456  13.253  1.00  0.00     0.274 C 
BRANCH  16  17
HETATM   17  N   UNL     1     -39.048 -49.237  12.053  1.00  0.00     0.092 N 
HETATM   18  C   UNL     1     -39.970 -50.394  11.905  1.00  0.00     0.298 C 
HETATM   19  C   UNL     1     -39.729 -51.525  12.928  1.00  0.00     0.198 C 
HETATM   20  O   UNL     1     -38.366 -51.967  12.927  1.00  0.00    -0.388 OA
HETATM   21  C   UNL     1     -37.467 -50.872  13.142  1.00  0.00     0.198 C 
HETATM   22  C   UNL     1     -37.671 -49.786  12.075  1.00  0.00     0.298 C 
ENDBRANCH  16  17
ENDBRANCH  15  16
ENDBRANCH  14  15
ENDBRANCH   3  14
TORSDOF 6
ENDMDL
MODEL 3
REMARK VINA RESULT:      -5.3      2.599      3.529
REMARK  6 active torsions:
REMARK  status: ('A' for Active; 'I' for Inactive)
REMARK    1  A    between atoms: C_2  and  C_3 
REMARK    2  A    between atoms: C_2  and  N_15 
REMARK       I    between atoms: C_3  and  N_5 
REMARK    3  A    between atoms: N_5  and  C_6 
REMARK    4  A    between atoms: C_6  and  C_7 
REMARK    5  A    between atoms: C_7  and  C_8 
REMARK    6  A    between atoms: C_8  and  N_9 
ROOT
HETATM    1  C   UNL     1     -42.995 -47.801  11.758  1.00  0.00     0.242 C 
HETATM    2  O   UNL     1     -43.193 -46.964  12.633  1.00  0.00    -0.271 OA
HETATM    3  N   UNL     1     -43.011 -49.159  12.015  1.00  0.00    -0.359 N 
HETATM    4  H   UNL     1     -43.002 -49.796  11.218  1.00  0.00     0.162 HD
ENDROOT
BRANCH   1   5
HETATM    5  C   UNL     1     -42.665 -47.422  10.315  1.00  0.00     0.196 C 
HETATM    6  C   UNL     1     -41.997 -46.049  10.241  1.00  0.00     0.044 C 
BRANCH   5   7
HETATM    7  N   UNL     1     -43.852 -47.521   9.485  1.00  0.00    -0.273 N 
HETATM    8  C   UNL     1     -43.960 -47.867   8.173  1.00  0.00     0.202 A 
HETATM    9  N   UNL     1     -45.226 -47.902   7.828  1.00  0.00    -0.346 N 
HETATM   10  C   UNL     1     -45.871 -47.549   8.976  1.00  0.00     0.198 A 
ATOM     11  HN  UNL     1     -45.629 -48.137   6.922  1.00  0.00     0.167 HD
HETATM   12  N   UNL     1     -45.075 -47.276  10.014  1.00  0.00    -0.292 N 
ATOM     13  HN  UNL     1     -45.322 -46.967  10.955  1.00  0.00     0.188 HD
ENDBRANCH   5   7
ENDBRANCH   1   5
BRANCH   3  14
HETATM   14  C   UNL     1     -43.346 -49.690  13.326  1.00  0.00     0.124 C 
BRANCH  14  15
HETATM   15  C   UNL     1     -43.706 -51.177  13.289  1.00  0.00     0.050 C 
BRANCH  15  16
HETATM   16  C   UNL     1     -42.641 -52.035  13.983  1.00  0.00     0.274 C 
BRANCH  16  17
HETATM   17  N   UNL     1     -41.950 -52.986  13.095  1.00  0.00     0.092 N 
HETATM   18  C   UNL     1     -40.950 -53.776  13.860  1.00  0.00     0.298 C 
HETATM   19  C   UNL     1     -39.697 -52.976  14.273  1.00  0.00     0.198 C 
HETATM   20  O   UNL     1     -39.076 -52.336  13.151  1.00  0.00    -0.388 OA
HETATM   21  C   UNL     1     -40.011 -51.512  12.444  1.00  0.00     0.198 C 
HETATM   22  C   UNL     1     -41.219 -52.337  11.979  1.00  0.00     0.298 C 
ENDBRANCH  16  17
ENDBRANCH  15  16
ENDBRANCH  14  15
ENDBRANCH   3  14
TORSDOF 6
ENDMDL
MODEL 4
REMARK VINA RESULT:      -5.2      2.973      3.542
REMARK  6 active torsions:
REMARK  status: ('A' for Active; 'I' for Inactive)
REMARK    1  A    between atoms: C_2  and  C_3 
REMARK    2  A    between atoms: C_2  and  N_15 
REMARK       I    between atoms: C_3  and  N_5 
REMARK    3  A    between atoms: N_5  and  C_6 
REMARK    4  A    between atoms: C_6  and  C_7 
REMARK    5  A    between atoms: C_7  and  C_8 
REMARK    6  A    between atoms: C_8  and  N_9 
ROOT
HETATM    1  C   UNL     1     -42.507 -48.420  11.379  1.00  0.00     0.242 C 
HETATM    2  O   UNL     1     -43.105 -48.101  12.402  1.00  0.00    -0.271 OA
HETATM    3  N   UNL     1     -41.834 -49.621  11.258  1.00  0.00    -0.359 N 
HETATM    4  H   UNL     1     -41.500 -49.890  10.333  1.00  0.00     0.162 HD
ENDROOT
BRANCH   1   5
HETATM    5  C   UNL     1     -42.407 -47.500  10.164  1.00  0.00     0.196 C 
HETATM    6  C   UNL     1     -41.508 -46.297  10.450  1.00  0.00     0.044 C 
BRANCH   5   7
HETATM    7  N   UNL     1     -43.734 -47.120   9.710  1.00  0.00    -0.273 N 
HETATM    8  C   UNL     1     -44.129 -46.005   9.039  1.00  0.00     0.202 A 
HETATM    9  N   UNL     1     -45.407 -46.089   8.757  1.00  0.00    -0.346 N 
HETATM   10  C   UNL     1     -45.767 -47.287   9.298  1.00  0.00     0.198 A 
ATOM     11  HN  UNL     1     -45.991 -45.420   8.254  1.00  0.00     0.167 HD
HETATM   12  N   UNL     1     -44.786 -47.947   9.919  1.00  0.00    -0.292 N 
ATOM     13  HN  UNL     1     -44.820 -48.837  10.418  1.00  0.00     0.188 HD
ENDBRANCH   5   7
ENDBRANCH   1   5
BRANCH   3  14
HETATM   14  C   UNL     1     -41.859 -50.627  12.308  1.00  0.00     0.124 C 
BRANCH  14  15
HETATM   15  C   UNL     1     -41.340 -51.986  11.837  1.00  0.00     0.050 C 
BRANCH  15  16
HETATM   16  C   UNL     1     -41.408 -53.036  12.954  1.00  0.00     0.274 C 
BRANCH  16  17
HETATM   17  N   UNL     1     -40.709 -52.655  14.193  1.00  0.00     0.092 N 
HETATM   18  C   UNL     1     -39.303 -53.137  14.163  1.00  0.00     0.298 C 
HETATM   19  C   UNL     1     -39.156 -54.663  14.340  1.00  0.00     0.198 C 
HETATM   20  O   UNL     1     -39.822 -55.133  15.519  1.00  0.00    -0.388 OA
HETATM   21  C   UNL     1     -41.199 -54.737  15.527  1.00  0.00     0.198 C 
HETATM   22  C   UNL     1     -41.326 -53.211  15.421  1.00  0.00     0.298 C 
ENDBRANCH  16  17
ENDBRANCH  15  16
ENDBRANCH  14  15
ENDBRANCH   3  14
TORSDOF 6
ENDMDL
MODEL 5
REMARK VINA RESULT:      -5.1      3.354      4.747
REMARK  6 active torsions:
REMARK  status: ('A' for Active; 'I' for Inactive)
REMARK    1  A    between atoms: C_2  and  C_3 
REMARK    2  A    between atoms: C_2  and  N_15 
REMARK       I    between atoms: C_3  and  N_5 
REMARK    3  A    between atoms: N_5  and  C_6 
REMARK    4  A    between atoms: C_6  and  C_7 
REMARK    5  A    between atoms: C_7  and  C_8 
REMARK    6  A    between atoms: C_8  and  N_9 
ROOT
HETATM    1  C   UNL     1     -42.485 -52.730  12.549  1.00  0.00     0.242 C 
HETATM    2  O   UNL     1     -42.984 -51.659  12.882  1.00  0.00    -0.271 OA
HETATM    3  N   UNL     1     -43.232 -53.884  12.409  1.00  0.00    -0.359 N 
HETATM    4  H   UNL     1     -42.787 -54.693  11.975  1.00  0.00     0.162 HD
ENDROOT
BRANCH   1   5
HETATM    5  C   UNL     1     -40.986 -52.899  12.306  1.00  0.00     0.196 C 
HETATM    6  C   UNL     1     -40.348 -53.791  13.372  1.00  0.00     0.044 C 
BRANCH   5   7
HETATM    7  N   UNL     1     -40.345 -51.601  12.195  1.00  0.00    -0.273 N 
HETATM    8  C   UNL     1     -39.381 -51.046  12.979  1.00  0.00     0.202 A 
HETATM    9  N   UNL     1     -39.027 -49.882  12.487  1.00  0.00    -0.346 N 
HETATM   10  C   UNL     1     -39.827 -49.753  11.390  1.00  0.00     0.198 A 
ATOM     11  HN  UNL     1     -38.325 -49.232  12.839  1.00  0.00     0.167 HD
HETATM   12  N   UNL     1     -40.674 -50.765  11.181  1.00  0.00    -0.292 N 
ATOM     13  HN  UNL     1     -41.379 -50.878  10.453  1.00  0.00     0.188 HD
ENDBRANCH   5   7
ENDBRANCH   1   5
BRANCH   3  14
HETATM   14  C   UNL     1     -44.678 -53.889  12.568  1.00  0.00     0.124 C 
BRANCH  14  15
HETATM   15  C   UNL     1     -45.144 -54.780  13.721  1.00  0.00     0.050 C 
BRANCH  15  16
HETATM   16  C   UNL     1     -44.912 -54.112  15.082  1.00  0.00     0.274 C 
BRANCH  16  17
HETATM   17  N   UNL     1     -46.145 -53.787  15.821  1.00  0.00     0.092 N 
HETATM   18  C   UNL     1     -47.009 -52.886  15.014  1.00  0.00     0.298 C 
HETATM   19  C   UNL     1     -46.482 -51.439  14.906  1.00  0.00     0.198 C 
HETATM   20  O   UNL     1     -46.222 -50.865  16.193  1.00  0.00    -0.388 OA
HETATM   21  C   UNL     1     -45.331 -51.688  16.956  1.00  0.00     0.198 C 
HETATM   22  C   UNL     1     -45.902 -53.104  17.114  1.00  0.00     0.298 C 
ENDBRANCH  16  17
ENDBRANCH  15  16
ENDBRANCH  14  15
ENDBRANCH   3  14
TORSDOF 6
ENDMDL
MODEL 6
REMARK VINA RESULT:      -5.1      1.435      2.095
REMARK  6 active torsions:
REMARK  status: ('A' for Active; 'I' for Inactive)
REMARK    1  A    between atoms: C_2  and  C_3 
REMARK    2  A    between atoms: C_2  and  N_15 
REMARK       I    between atoms: C_3  and  N_5 
REMARK    3  A    between atoms: N_5  and  C_6 
REMARK    4  A    between atoms: C_6  and  C_7 
REMARK    5  A    between atoms: C_7  and  C_8 
REMARK    6  A    between atoms: C_8  and  N_9 
ROOT
HETATM    1  C   UNL     1     -41.339 -49.494  11.572  1.00  0.00     0.242 C 
HETATM    2  O   UNL     1     -40.200 -49.491  11.113  1.00  0.00    -0.271 OA
HETATM    3  N   UNL     1     -41.990 -50.659  11.932  1.00  0.00    -0.359 N 
HETATM    4  H   UNL     1     -42.862 -50.577  12.454  1.00  0.00     0.162 HD
ENDROOT
BRANCH   1   5
HETATM    5  C   UNL     1     -42.160 -48.217  11.741  1.00  0.00     0.196 C 
HETATM    6  C   UNL     1     -43.053 -48.291  12.980  1.00  0.00     0.044 C 
BRANCH   5   7
HETATM    7  N   UNL     1     -42.902 -47.931  10.525  1.00  0.00    -0.273 N 
HETATM    8  C   UNL     1     -44.178 -47.484  10.379  1.00  0.00     0.202 A 
HETATM    9  N   UNL     1     -44.434 -47.287   9.107  1.00  0.00    -0.346 N 
HETATM   10  C   UNL     1     -43.270 -47.649   8.496  1.00  0.00     0.198 A 
ATOM     11  HN  UNL     1     -45.295 -46.946   8.679  1.00  0.00     0.167 HD
HETATM   12  N   UNL     1     -42.308 -48.079   9.317  1.00  0.00    -0.292 N 
ATOM     13  HN  UNL     1     -41.375 -48.426   9.093  1.00  0.00     0.188 HD
ENDBRANCH   5   7
ENDBRANCH   1   5
BRANCH   3  14
HETATM   14  C   UNL     1     -41.337 -51.956  11.868  1.00  0.00     0.124 C 
BRANCH  14  15
HETATM   15  C   UNL     1     -41.896 -52.950  12.888  1.00  0.00     0.050 C 
BRANCH  15  16
HETATM   16  C   UNL     1     -43.395 -52.734  13.127  1.00  0.00     0.274 C 
BRANCH  16  17
HETATM   17  N   UNL     1     -43.841 -53.016  14.503  1.00  0.00     0.092 N 
HETATM   18  C   UNL     1     -44.025 -54.478  14.698  1.00  0.00     0.298 C 
HETATM   19  C   UNL     1     -45.267 -55.056  13.987  1.00  0.00     0.198 C 
HETATM   20  O   UNL     1     -46.463 -54.350  14.339  1.00  0.00    -0.388 OA
HETATM   21  C   UNL     1     -46.326 -52.946  14.088  1.00  0.00     0.198 C 
HETATM   22  C   UNL     1     -45.128 -52.371  14.857  1.00  0.00     0.298 C 
ENDBRANCH  16  17
ENDBRANCH  15  16
ENDBRANCH  14  15
ENDBRANCH   3  14
TORSDOF 6
ENDMDL
MODEL 7
REMARK VINA RESULT:      -5.1      2.207      3.185
REMARK  6 active torsions:
REMARK  status: ('A' for Active; 'I' for Inactive)
REMARK    1  A    between atoms: C_2  and  C_3 
REMARK    2  A    between atoms: C_2  and  N_15 
REMARK       I    between atoms: C_3  and  N_5 
REMARK    3  A    between atoms: N_5  and  C_6 
REMARK    4  A    between atoms: C_6  and  C_7 
REMARK    5  A    between atoms: C_7  and  C_8 
REMARK    6  A    between atoms: C_8  and  N_9 
ROOT
HETATM    1  C   UNL     1     -41.363 -48.486  11.505  1.00  0.00     0.242 C 
HETATM    2  O   UNL     1     -40.206 -48.359  11.896  1.00  0.00    -0.271 OA
HETATM    3  N   UNL     1     -42.027 -49.698  11.539  1.00  0.00    -0.359 N 
HETATM    4  H   UNL     1     -43.030 -49.698  11.353  1.00  0.00     0.162 HD
ENDROOT
BRANCH   1   5
HETATM    5  C   UNL     1     -42.159 -47.331  10.900  1.00  0.00     0.196 C 
HETATM    6  C   UNL     1     -42.762 -47.719   9.550  1.00  0.00     0.044 C 
BRANCH   5   7
HETATM    7  N   UNL     1     -41.336 -46.136  10.830  1.00  0.00    -0.273 N 
HETATM    8  C   UNL     1     -41.533 -44.919  11.405  1.00  0.00     0.202 A 
HETATM    9  N   UNL     1     -40.511 -44.138  11.148  1.00  0.00    -0.346 N 
HETATM   10  C   UNL     1     -39.702 -44.926  10.384  1.00  0.00     0.198 A 
ATOM     11  HN  UNL     1     -40.357 -43.175  11.447  1.00  0.00     0.167 HD
HETATM   12  N   UNL     1     -40.173 -46.151  10.134  1.00  0.00    -0.292 N 
ATOM     13  HN  UNL     1     -39.767 -46.898   9.571  1.00  0.00     0.188 HD
ENDBRANCH   5   7
ENDBRANCH   1   5
BRANCH   3  14
HETATM   14  C   UNL     1     -41.427 -50.888  12.118  1.00  0.00     0.124 C 
BRANCH  14  15
HETATM   15  C   UNL     1     -41.872 -51.134  13.561  1.00  0.00     0.050 C 
BRANCH  15  16
HETATM   16  C   UNL     1     -43.103 -52.048  13.626  1.00  0.00     0.274 C 
BRANCH  16  17
HETATM   17  N   UNL     1     -42.931 -53.350  12.958  1.00  0.00     0.092 N 
HETATM   18  C   UNL     1     -44.255 -53.952  12.652  1.00  0.00     0.298 C 
HETATM   19  C   UNL     1     -45.007 -54.485  13.890  1.00  0.00     0.198 C 
HETATM   20  O   UNL     1     -44.206 -55.397  14.651  1.00  0.00    -0.388 OA
HETATM   21  C   UNL     1     -42.954 -54.804  15.018  1.00  0.00     0.198 C 
HETATM   22  C   UNL     1     -42.187 -54.343  13.771  1.00  0.00     0.298 C 
ENDBRANCH  16  17
ENDBRANCH  15  16
ENDBRANCH  14  15
ENDBRANCH   3  14
TORSDOF 6
ENDMDL
MODEL 8
REMARK VINA RESULT:      -5.0      2.466      3.241
REMARK  6 active torsions:
REMARK  status: ('A' for Active; 'I' for Inactive)
REMARK    1  A    between atoms: C_2  and  C_3 
REMARK    2  A    between atoms: C_2  and  N_15 
REMARK       I    between atoms: C_3  and  N_5 
REMARK    3  A    between atoms: N_5  and  C_6 
REMARK    4  A    between atoms: C_6  and  C_7 
REMARK    5  A    between atoms: C_7  and  C_8 
REMARK    6  A    between atoms: C_8  and  N_9 
ROOT
HETATM    1  C   UNL     1     -39.463 -51.164  12.911  1.00  0.00     0.242 C 
HETATM    2  O   UNL     1     -38.843 -51.134  13.970  1.00  0.00    -0.271 OA
HETATM    3  N   UNL     1     -40.530 -52.017  12.701  1.00  0.00    -0.359 N 
HETATM    4  H   UNL     1     -41.097 -51.876  11.865  1.00  0.00     0.162 HD
ENDROOT
BRANCH   1   5
HETATM    5  C   UNL     1     -39.084 -50.298  11.711  1.00  0.00     0.196 C 
HETATM    6  C   UNL     1     -37.681 -49.711  11.870  1.00  0.00     0.044 C 
BRANCH   5   7
HETATM    7  N   UNL     1     -40.099 -49.285  11.480  1.00  0.00    -0.273 N 
HETATM    8  C   UNL     1     -40.408 -48.190  12.226  1.00  0.00     0.202 A 
HETATM    9  N   UNL     1     -41.344 -47.495  11.623  1.00  0.00    -0.346 N 
HETATM   10  C   UNL     1     -41.595 -48.223  10.498  1.00  0.00     0.198 A 
ATOM     11  HN  UNL     1     -41.778 -46.622  11.923  1.00  0.00     0.167 HD
HETATM   12  N   UNL     1     -40.880 -49.345  10.375  1.00  0.00    -0.292 N 
ATOM     13  HN  UNL     1     -40.913 -50.056   9.644  1.00  0.00     0.188 HD
ENDBRANCH   5   7
ENDBRANCH   1   5
BRANCH   3  14
HETATM   14  C   UNL     1     -41.043 -52.881  13.752  1.00  0.00     0.124 C 
BRANCH  14  15
HETATM   15  C   UNL     1     -41.914 -54.016  13.212  1.00  0.00     0.050 C 
BRANCH  15  16
HETATM   16  C   UNL     1     -43.251 -54.110  13.959  1.00  0.00     0.274 C 
BRANCH  16  17
HETATM   17  N   UNL     1     -44.419 -54.345  13.093  1.00  0.00     0.092 N 
HETATM   18  C   UNL     1     -45.009 -53.052  12.657  1.00  0.00     0.298 C 
HETATM   19  C   UNL     1     -45.763 -52.296  13.771  1.00  0.00     0.198 C 
HETATM   20  O   UNL     1     -46.760 -53.116  14.394  1.00  0.00    -0.388 OA
HETATM   21  C   UNL     1     -46.191 -54.336  14.886  1.00  0.00     0.198 C 
HETATM   22  C   UNL     1     -45.505 -55.110  13.752  1.00  0.00     0.298 C 
ENDBRANCH  16  17
ENDBRANCH  15  16
ENDBRANCH  14  15
ENDBRANCH   3  14
TORSDOF 6
ENDMDL
MODEL 9
REMARK VINA RESULT:      -4.8      2.426      6.670
REMARK  6 active torsions:
REMARK  status: ('A' for Active; 'I' for Inactive)
REMARK    1  A    between atoms: C_2  and  C_3 
REMARK    2  A    between atoms: C_2  and  N_15 
REMARK       I    between atoms: C_3  and  N_5 
REMARK    3  A    between atoms: N_5  and  C_6 
REMARK    4  A    between atoms: C_6  and  C_7 
REMARK    5  A    between atoms: C_7  and  C_8 
REMARK    6  A    between atoms: C_8  and  N_9 
ROOT
HETATM    1  C   UNL     1     -41.544 -51.982  12.464  1.00  0.00     0.242 C 
HETATM    2  O   UNL     1     -41.350 -52.636  11.443  1.00  0.00    -0.271 OA
HETATM    3  N   UNL     1     -41.022 -50.715  12.643  1.00  0.00    -0.359 N 
HETATM    4  H   UNL     1     -41.355 -50.169  13.437  1.00  0.00     0.162 HD
ENDROOT
BRANCH   1   5
HETATM    5  C   UNL     1     -42.337 -52.526  13.651  1.00  0.00     0.196 C 
HETATM    6  C   UNL     1     -41.935 -53.965  13.976  1.00  0.00     0.044 C 
BRANCH   5   7
HETATM    7  N   UNL     1     -43.763 -52.375  13.415  1.00  0.00    -0.273 N 
HETATM    8  C   UNL     1     -44.698 -51.735  14.167  1.00  0.00     0.202 A 
HETATM    9  N   UNL     1     -45.859 -51.774  13.556  1.00  0.00    -0.346 N 
HETATM   10  C   UNL     1     -45.588 -52.476  12.419  1.00  0.00     0.198 A 
ATOM     11  HN  UNL     1     -46.748 -51.377  13.859  1.00  0.00     0.167 HD
HETATM   12  N   UNL     1     -44.325 -52.892  12.296  1.00  0.00    -0.292 N 
ATOM     13  HN  UNL     1     -43.897 -53.450  11.556  1.00  0.00     0.188 HD
ENDBRANCH   5   7
ENDBRANCH   1   5
BRANCH   3  14
HETATM   14  C   UNL     1     -40.275 -50.036  11.597  1.00  0.00     0.124 C 
BRANCH  14  15
HETATM   15  C   UNL     1     -40.680 -48.570  11.436  1.00  0.00     0.050 C 
BRANCH  15  16
HETATM   16  C   UNL     1     -41.749 -48.393  10.349  1.00  0.00     0.274 C 
BRANCH  16  17
HETATM   17  N   UNL     1     -42.992 -47.754  10.814  1.00  0.00     0.092 N 
HETATM   18  C   UNL     1     -43.884 -47.458   9.662  1.00  0.00     0.298 C 
HETATM   19  C   UNL     1     -43.403 -46.289   8.777  1.00  0.00     0.198 C 
HETATM   20  O   UNL     1     -43.164 -45.101   9.543  1.00  0.00    -0.388 OA
HETATM   21  C   UNL     1     -42.247 -45.353  10.615  1.00  0.00     0.198 C 
HETATM   22  C   UNL     1     -42.773 -46.472  11.526  1.00  0.00     0.298 C 
ENDBRANCH  16  17
ENDBRANCH  15  16
ENDBRANCH  14  15
ENDBRANCH   3  14
TORSDOF 6
ENDMDL
