MODEL 1
REMARK VINA RESULT:      -6.1      0.000      0.000
REMARK  6 active torsions:
REMARK  status: ('A' for Active; 'I' for Inactive)
REMARK    1  A    between atoms: C_2  and  C_4 
REMARK    2  A    between atoms: C_4  and  N_5 
REMARK    3  A    between atoms: C_9  and  C_10 
REMARK    4  A    between atoms: C_10  and  N_11 
REMARK       I    between atoms: N_11  and  C_12 
REMARK    5  A    between atoms: C_12  and  C_14 
REMARK    6  A    between atoms: C_14  and  C_15 
ROOT
HETATM    1  N   UNL     1     -41.988 -51.849  11.795  1.00  0.00    -0.358 N 
HETATM    2  C   UNL     1     -42.594 -52.624  12.756  1.00  0.00     0.222 C 
HETATM    3  O   UNL     1     -42.171 -52.712  13.907  1.00  0.00    -0.273 OA
HETATM    4  H   UNL     1     -42.302 -51.878  10.832  1.00  0.00     0.162 HD
ENDROOT
BRANCH   1   5
HETATM    5  C   UNL     1     -40.774 -51.096  12.057  1.00  0.00     0.156 C 
BRANCH   5   6
HETATM    6  C   UNL     1     -40.865 -49.641  11.579  1.00  0.00     0.167 C 
HETATM    7  O   UNL     1     -39.933 -48.840  12.339  1.00  0.00    -0.381 OA
HETATM    8  C   UNL     1     -39.958 -47.476  11.886  1.00  0.00     0.198 C 
HETATM    9  C   UNL     1     -41.375 -46.874  11.951  1.00  0.00     0.298 C 
HETATM   10  N   UNL     1     -42.403 -47.672  11.245  1.00  0.00     0.093 N 
HETATM   11  C   UNL     1     -42.291 -49.070  11.723  1.00  0.00     0.305 C 
BRANCH  10  12
HETATM   12  C   UNL     1     -42.290 -47.538   9.781  1.00  0.00     0.276 C 
BRANCH  12  13
HETATM   13  C   UNL     1     -43.642 -47.342   9.056  1.00  0.00     0.006 C 
HETATM   14  C   UNL     1     -44.033 -45.866   8.978  1.00  0.00     0.011 C 
HETATM   15  C   UNL     1     -43.584 -47.950   7.652  1.00  0.00     0.011 C 
ENDBRANCH  12  13
ENDBRANCH  10  12
ENDBRANCH   5   6
ENDBRANCH   1   5
BRANCH   2  16
HETATM   16  C   UNL     1     -43.855 -53.337  12.294  1.00  0.00     0.142 C 
BRANCH  16  17
HETATM   17  C   UNL     1     -45.053 -53.091  13.171  1.00  0.00    -0.034 A 
HETATM   18  C   UNL     1     -45.517 -51.797  13.421  1.00  0.00     0.010 A 
HETATM   19  C   UNL     1     -46.603 -51.601  14.270  1.00  0.00     0.018 A 
HETATM   20  C   UNL     1     -47.190 -52.713  14.849  1.00  0.00     0.087 A 
HETATM   21  N   UNL     1     -46.770 -53.977  14.640  1.00  0.00    -0.375 N 
HETATM   22  C   UNL     1     -45.715 -54.138  13.808  1.00  0.00     0.095 A 
ATOM     23  HN  UNL     1     -47.225 -54.772  15.088  1.00  0.00     0.164 HD
ENDBRANCH  16  17
ENDBRANCH   2  16
TORSDOF 6
ENDMDL
MODEL 2
REMARK VINA RESULT:      -5.9      2.067      6.633
REMARK  6 active torsions:
REMARK  status: ('A' for Active; 'I' for Inactive)
REMARK    1  A    between atoms: C_2  and  C_4 
REMARK    2  A    between atoms: C_4  and  N_5 
REMARK    3  A    between atoms: C_9  and  C_10 
REMARK    4  A    between atoms: C_10  and  N_11 
REMARK       I    between atoms: N_11  and  C_12 
REMARK    5  A    between atoms: C_12  and  C_14 
REMARK    6  A    between atoms: C_14  and  C_15 
ROOT
HETATM    1  N   UNL     1     -42.563 -48.936  11.525  1.00  0.00    -0.358 N 
HETATM    2  C   UNL     1     -42.071 -47.784  10.957  1.00  0.00     0.222 C 
HETATM    3  O   UNL     1     -40.869 -47.569  10.817  1.00  0.00    -0.273 OA
HETATM    4  H   UNL     1     -43.552 -49.038  11.717  1.00  0.00     0.162 HD
ENDROOT
BRANCH   1   5
HETATM    5  C   UNL     1     -41.693 -49.980  12.038  1.00  0.00     0.156 C 
BRANCH   5   6
HETATM    6  C   UNL     1     -42.458 -51.060  12.814  1.00  0.00     0.167 C 
HETATM    7  O   UNL     1     -42.316 -52.321  12.124  1.00  0.00    -0.381 OA
HETATM    8  C   UNL     1     -42.983 -53.368  12.849  1.00  0.00     0.198 C 
HETATM    9  C   UNL     1     -44.470 -53.042  13.092  1.00  0.00     0.298 C 
HETATM   10  N   UNL     1     -44.703 -51.733  13.743  1.00  0.00     0.093 N 
HETATM   11  C   UNL     1     -43.952 -50.712  12.975  1.00  0.00     0.305 C 
BRANCH  10  12
HETATM   12  C   UNL     1     -44.358 -51.766  15.176  1.00  0.00     0.276 C 
BRANCH  12  13
HETATM   13  C   UNL     1     -45.543 -51.460  16.121  1.00  0.00     0.006 C 
HETATM   14  C   UNL     1     -45.303 -50.188  16.934  1.00  0.00     0.011 C 
HETATM   15  C   UNL     1     -46.843 -51.342  15.322  1.00  0.00     0.011 C 
ENDBRANCH  12  13
ENDBRANCH  10  12
ENDBRANCH   5   6
ENDBRANCH   1   5
BRANCH   2  16
HETATM   16  C   UNL     1     -43.136 -46.810  10.478  1.00  0.00     0.142 C 
BRANCH  16  17
HETATM   17  C   UNL     1     -44.070 -47.383   9.447  1.00  0.00    -0.034 A 
HETATM   18  C   UNL     1     -45.424 -47.585   9.726  1.00  0.00     0.010 A 
HETATM   19  C   UNL     1     -46.254 -48.155   8.764  1.00  0.00     0.018 A 
HETATM   20  C   UNL     1     -45.698 -48.512   7.548  1.00  0.00     0.087 A 
HETATM   21  N   UNL     1     -44.396 -48.341   7.240  1.00  0.00    -0.375 N 
HETATM   22  C   UNL     1     -43.614 -47.781   8.192  1.00  0.00     0.095 A 
ATOM     23  HN  UNL     1     -44.019 -48.620   6.335  1.00  0.00     0.164 HD
ENDBRANCH  16  17
ENDBRANCH   2  16
TORSDOF 6
ENDMDL
MODEL 3
REMARK VINA RESULT:      -5.9      1.970      6.533
REMARK  6 active torsions:
REMARK  status: ('A' for Active; 'I' for Inactive)
REMARK    1  A    between atoms: C_2  and  C_4 
REMARK    2  A    between atoms: C_4  and  N_5 
REMARK    3  A    between atoms: C_9  and  C_10 
REMARK    4  A    between atoms: C_10  and  N_11 
REMARK       I    between atoms: N_11  and  C_12 
REMARK    5  A    between atoms: C_12  and  C_14 
REMARK    6  A    between atoms: C_14  and  C_15 
ROOT
HETATM    1  N   UNL     1     -39.881 -51.083  13.840  1.00  0.00    -0.358 N 
HETATM    2  C   UNL     1     -38.861 -50.711  12.997  1.00  0.00     0.222 C 
HETATM    3  O   UNL     1     -38.165 -51.525  12.391  1.00  0.00    -0.273 OA
HETATM    4  H   UNL     1     -40.368 -50.394  14.401  1.00  0.00     0.162 HD
ENDROOT
BRANCH   1   5
HETATM    5  C   UNL     1     -40.198 -52.475  14.109  1.00  0.00     0.156 C 
BRANCH   5   6
HETATM    6  C   UNL     1     -41.702 -52.765  14.036  1.00  0.00     0.167 C 
HETATM    7  O   UNL     1     -41.925 -54.161  14.335  1.00  0.00    -0.381 OA
HETATM    8  C   UNL     1     -43.331 -54.460  14.322  1.00  0.00     0.198 C 
HETATM    9  C   UNL     1     -43.987 -54.077  12.980  1.00  0.00     0.298 C 
HETATM   10  N   UNL     1     -43.753 -52.674  12.572  1.00  0.00     0.093 N 
HETATM   11  C   UNL     1     -42.295 -52.422  12.654  1.00  0.00     0.305 C 
BRANCH  10  12
HETATM   12  C   UNL     1     -44.561 -51.730  13.366  1.00  0.00     0.276 C 
BRANCH  12  13
HETATM   13  C   UNL     1     -46.069 -52.071  13.415  1.00  0.00     0.006 C 
HETATM   14  C   UNL     1     -46.755 -51.423  14.617  1.00  0.00     0.011 C 
HETATM   15  C   UNL     1     -46.753 -51.638  12.116  1.00  0.00     0.011 C 
ENDBRANCH  12  13
ENDBRANCH  10  12
ENDBRANCH   5   6
ENDBRANCH   1   5
BRANCH   2  16
HETATM   16  C   UNL     1     -38.682 -49.209  12.842  1.00  0.00     0.142 C 
BRANCH  16  17
HETATM   17  C   UNL     1     -39.699 -48.563  11.939  1.00  0.00    -0.034 A 
HETATM   18  C   UNL     1     -39.871 -47.176  11.916  1.00  0.00     0.010 A 
HETATM   19  C   UNL     1     -40.849 -46.613  11.100  1.00  0.00     0.018 A 
HETATM   20  C   UNL     1     -41.630 -47.459  10.332  1.00  0.00     0.087 A 
HETATM   21  N   UNL     1     -41.500 -48.802  10.330  1.00  0.00    -0.375 N 
HETATM   22  C   UNL     1     -40.540 -49.322  11.130  1.00  0.00     0.095 A 
ATOM     23  HN  UNL     1     -42.097 -49.396   9.754  1.00  0.00     0.164 HD
ENDBRANCH  16  17
ENDBRANCH   2  16
TORSDOF 6
ENDMDL
MODEL 4
REMARK VINA RESULT:      -5.8      1.745      6.240
REMARK  6 active torsions:
REMARK  status: ('A' for Active; 'I' for Inactive)
REMARK    1  A    between atoms: C_2  and  C_4 
REMARK    2  A    between atoms: C_4  and  N_5 
REMARK    3  A    between atoms: C_9  and  C_10 
REMARK    4  A    between atoms: C_10  and  N_11 
REMARK       I    between atoms: N_11  and  C_12 
REMARK    5  A    between atoms: C_12  and  C_14 
REMARK    6  A    between atoms: C_14  and  C_15 
ROOT
HETATM    1  N   UNL     1     -40.713 -51.721  11.677  1.00  0.00    -0.358 N 
HETATM    2  C   UNL     1     -39.799 -50.874  12.260  1.00  0.00     0.222 C 
HETATM    3  O   UNL     1     -39.062 -51.220  13.182  1.00  0.00    -0.273 OA
HETATM    4  H   UNL     1     -41.373 -51.377  10.990  1.00  0.00     0.162 HD
ENDROOT
BRANCH   1   5
HETATM    5  C   UNL     1     -40.904 -53.088  12.130  1.00  0.00     0.156 C 
BRANCH   5   6
HETATM    6  C   UNL     1     -42.072 -53.229  13.114  1.00  0.00     0.167 C 
HETATM    7  O   UNL     1     -41.961 -54.500  13.793  1.00  0.00    -0.381 OA
HETATM    8  C   UNL     1     -43.015 -54.647  14.758  1.00  0.00     0.198 C 
HETATM    9  C   UNL     1     -44.408 -54.489  14.117  1.00  0.00     0.298 C 
HETATM   10  N   UNL     1     -44.582 -53.236  13.349  1.00  0.00     0.093 N 
HETATM   11  C   UNL     1     -43.440 -53.125  12.410  1.00  0.00     0.305 C 
BRANCH  10  12
HETATM   12  C   UNL     1     -44.733 -52.067  14.235  1.00  0.00     0.276 C 
BRANCH  12  13
HETATM   13  C   UNL     1     -46.045 -51.277  14.026  1.00  0.00     0.006 C 
HETATM   14  C   UNL     1     -46.711 -51.631  12.696  1.00  0.00     0.011 C 
HETATM   15  C   UNL     1     -47.010 -51.531  15.187  1.00  0.00     0.011 C 
ENDBRANCH  12  13
ENDBRANCH  10  12
ENDBRANCH   5   6
ENDBRANCH   1   5
BRANCH   2  16
HETATM   16  C   UNL     1     -39.744 -49.483  11.649  1.00  0.00     0.142 C 
BRANCH  16  17
HETATM   17  C   UNL     1     -41.090 -48.830  11.494  1.00  0.00    -0.034 A 
HETATM   18  C   UNL     1     -41.865 -48.490  12.607  1.00  0.00     0.010 A 
HETATM   19  C   UNL     1     -43.124 -47.923  12.429  1.00  0.00     0.018 A 
HETATM   20  C   UNL     1     -43.573 -47.718  11.136  1.00  0.00     0.087 A 
HETATM   21  N   UNL     1     -42.861 -48.037  10.036  1.00  0.00    -0.375 N 
HETATM   22  C   UNL     1     -41.639 -48.582  10.238  1.00  0.00     0.095 A 
ATOM     23  HN  UNL     1     -43.226 -47.876   9.097  1.00  0.00     0.164 HD
ENDBRANCH  16  17
ENDBRANCH   2  16
TORSDOF 6
ENDMDL
MODEL 5
REMARK VINA RESULT:      -5.7      3.017      6.812
REMARK  6 active torsions:
REMARK  status: ('A' for Active; 'I' for Inactive)
REMARK    1  A    between atoms: C_2  and  C_4 
REMARK    2  A    between atoms: C_4  and  N_5 
REMARK    3  A    between atoms: C_9  and  C_10 
REMARK    4  A    between atoms: C_10  and  N_11 
REMARK       I    between atoms: N_11  and  C_12 
REMARK    5  A    between atoms: C_12  and  C_14 
REMARK    6  A    between atoms: C_14  and  C_15 
ROOT
HETATM    1  N   UNL     1     -40.707 -53.251  15.167  1.00  0.00    -0.358 N 
HETATM    2  C   UNL     1     -39.751 -53.329  14.182  1.00  0.00     0.222 C 
HETATM    3  O   UNL     1     -39.620 -54.312  13.456  1.00  0.00    -0.273 OA
HETATM    4  H   UNL     1     -40.723 -52.470  15.813  1.00  0.00     0.162 HD
ENDROOT
BRANCH   1   5
HETATM    5  C   UNL     1     -41.621 -54.343  15.450  1.00  0.00     0.156 C 
BRANCH   5   6
HETATM    6  C   UNL     1     -43.052 -54.056  14.979  1.00  0.00     0.167 C 
HETATM    7  O   UNL     1     -43.969 -54.870  15.744  1.00  0.00    -0.381 OA
HETATM    8  C   UNL     1     -45.326 -54.593  15.361  1.00  0.00     0.198 C 
HETATM    9  C   UNL     1     -45.549 -54.792  13.849  1.00  0.00     0.298 C 
HETATM   10  N   UNL     1     -44.606 -54.037  12.994  1.00  0.00     0.093 N 
HETATM   11  C   UNL     1     -43.235 -54.331  13.473  1.00  0.00     0.305 C 
BRANCH  10  12
HETATM   12  C   UNL     1     -44.926 -52.597  12.967  1.00  0.00     0.276 C 
BRANCH  12  13
HETATM   13  C   UNL     1     -46.437 -52.281  13.045  1.00  0.00     0.006 C 
HETATM   14  C   UNL     1     -46.757 -51.333  14.201  1.00  0.00     0.011 C 
HETATM   15  C   UNL     1     -46.926 -51.689  11.722  1.00  0.00     0.011 C 
ENDBRANCH  12  13
ENDBRANCH  10  12
ENDBRANCH   5   6
ENDBRANCH   1   5
BRANCH   2  16
HETATM   16  C   UNL     1     -38.889 -52.085  14.035  1.00  0.00     0.142 C 
BRANCH  16  17
HETATM   17  C   UNL     1     -39.369 -51.130  12.975  1.00  0.00    -0.034 A 
HETATM   18  C   UNL     1     -40.723 -50.809  12.847  1.00  0.00     0.010 A 
HETATM   19  C   UNL     1     -41.140 -49.954  11.830  1.00  0.00     0.018 A 
HETATM   20  C   UNL     1     -40.184 -49.448  10.966  1.00  0.00     0.087 A 
HETATM   21  N   UNL     1     -38.870 -49.738  11.051  1.00  0.00    -0.375 N 
HETATM   22  C   UNL     1     -38.492 -50.568  12.051  1.00  0.00     0.095 A 
ATOM     23  HN  UNL     1     -38.193 -49.350  10.394  1.00  0.00     0.164 HD
ENDBRANCH  16  17
ENDBRANCH   2  16
TORSDOF 6
ENDMDL
MODEL 6
REMARK VINA RESULT:      -5.6      1.540      7.197
REMARK  6 active torsions:
REMARK  status: ('A' for Active; 'I' for Inactive)
REMARK    1  A    between atoms: C_2  and  C_4 
REMARK    2  A    between atoms: C_4  and  N_5 
REMARK    3  A    between atoms: C_9  and  C_10 
REMARK    4  A    between atoms: C_10  and  N_11 
REMARK       I    between atoms: N_11  and  C_12 
REMARK    5  A    between atoms: C_12  and  C_14 
REMARK    6  A    between atoms: C_14  and  C_15 
ROOT
HETATM    1  N   UNL     1     -43.277 -50.520  12.530  1.00  0.00    -0.358 N 
HETATM    2  C   UNL     1     -42.362 -49.495  12.463  1.00  0.00     0.222 C 
HETATM    3  O   UNL     1     -41.150 -49.687  12.384  1.00  0.00    -0.273 OA
HETATM    4  H   UNL     1     -44.258 -50.328  12.696  1.00  0.00     0.162 HD
ENDROOT
BRANCH   1   5
HETATM    5  C   UNL     1     -42.879 -51.917  12.544  1.00  0.00     0.156 C 
BRANCH   5   6
HETATM    6  C   UNL     1     -43.735 -52.767  13.491  1.00  0.00     0.167 C 
HETATM    7  O   UNL     1     -43.357 -54.154  13.345  1.00  0.00    -0.381 OA
HETATM    8  C   UNL     1     -44.108 -54.977  14.253  1.00  0.00     0.198 C 
HETATM    9  C   UNL     1     -45.628 -54.802  14.065  1.00  0.00     0.298 C 
HETATM   10  N   UNL     1     -46.088 -53.397  14.140  1.00  0.00     0.093 N 
HETATM   11  C   UNL     1     -45.244 -52.600  13.219  1.00  0.00     0.305 C 
BRANCH  10  12
HETATM   12  C   UNL     1     -46.087 -52.894  15.526  1.00  0.00     0.276 C 
BRANCH  12  13
HETATM   13  C   UNL     1     -46.502 -51.411  15.663  1.00  0.00     0.006 C 
HETATM   14  C   UNL     1     -47.765 -51.255  16.510  1.00  0.00     0.011 C 
HETATM   15  C   UNL     1     -45.357 -50.591  16.261  1.00  0.00     0.011 C 
ENDBRANCH  12  13
ENDBRANCH  10  12
ENDBRANCH   5   6
ENDBRANCH   1   5
BRANCH   2  16
HETATM   16  C   UNL     1     -42.970 -48.102  12.458  1.00  0.00     0.142 C 
BRANCH  16  17
HETATM   17  C   UNL     1     -43.181 -47.532  11.081  1.00  0.00    -0.034 A 
HETATM   18  C   UNL     1     -44.371 -47.747  10.381  1.00  0.00     0.010 A 
HETATM   19  C   UNL     1     -44.519 -47.240   9.092  1.00  0.00     0.018 A 
HETATM   20  C   UNL     1     -43.464 -46.535   8.540  1.00  0.00     0.087 A 
HETATM   21  N   UNL     1     -42.298 -46.311   9.179  1.00  0.00    -0.375 N 
HETATM   22  C   UNL     1     -42.182 -46.811  10.431  1.00  0.00     0.095 A 
ATOM     23  HN  UNL     1     -41.539 -45.790   8.739  1.00  0.00     0.164 HD
ENDBRANCH  16  17
ENDBRANCH   2  16
TORSDOF 6
ENDMDL
MODEL 7
REMARK VINA RESULT:      -5.5      1.433      2.015
REMARK  6 active torsions:
REMARK  status: ('A' for Active; 'I' for Inactive)
REMARK    1  A    between atoms: C_2  and  C_4 
REMARK    2  A    between atoms: C_4  and  N_5 
REMARK    3  A    between atoms: C_9  and  C_10 
REMARK    4  A    between atoms: C_10  and  N_11 
REMARK       I    between atoms: N_11  and  C_12 
REMARK    5  A    between atoms: C_12  and  C_14 
REMARK    6  A    between atoms: C_14  and  C_15 
ROOT
HETATM    1  N   UNL     1     -42.250 -53.223  12.272  1.00  0.00    -0.358 N 
HETATM    2  C   UNL     1     -42.985 -53.831  13.263  1.00  0.00     0.222 C 
HETATM    3  O   UNL     1     -42.508 -54.143  14.352  1.00  0.00    -0.273 OA
HETATM    4  H   UNL     1     -42.646 -53.071  11.352  1.00  0.00     0.162 HD
ENDROOT
BRANCH   1   5
HETATM    5  C   UNL     1     -40.836 -52.929  12.424  1.00  0.00     0.156 C 
BRANCH   5   6
HETATM    6  C   UNL     1     -40.477 -51.502  11.991  1.00  0.00     0.167 C 
HETATM    7  O   UNL     1     -39.071 -51.278  12.237  1.00  0.00    -0.381 OA
HETATM    8  C   UNL     1     -38.688 -49.963  11.799  1.00  0.00     0.198 C 
HETATM    9  C   UNL     1     -39.541 -48.865  12.464  1.00  0.00     0.298 C 
HETATM   10  N   UNL     1     -41.000 -49.056  12.309  1.00  0.00     0.093 N 
HETATM   11  C   UNL     1     -41.317 -50.441  12.732  1.00  0.00     0.305 C 
BRANCH  10  12
HETATM   12  C   UNL     1     -41.452 -48.739  10.942  1.00  0.00     0.276 C 
BRANCH  12  13
HETATM   13  C   UNL     1     -42.157 -47.368  10.809  1.00  0.00     0.006 C 
HETATM   14  C   UNL     1     -43.104 -47.334   9.609  1.00  0.00     0.011 C 
HETATM   15  C   UNL     1     -42.916 -47.034  12.095  1.00  0.00     0.011 C 
ENDBRANCH  12  13
ENDBRANCH  10  12
ENDBRANCH   5   6
ENDBRANCH   1   5
BRANCH   2  16
HETATM   16  C   UNL     1     -44.449 -54.055  12.919  1.00  0.00     0.142 C 
BRANCH  16  17
HETATM   17  C   UNL     1     -45.406 -53.291  13.794  1.00  0.00    -0.034 A 
HETATM   18  C   UNL     1     -45.950 -52.071  13.383  1.00  0.00     0.010 A 
HETATM   19  C   UNL     1     -46.801 -51.369  14.233  1.00  0.00     0.018 A 
HETATM   20  C   UNL     1     -47.078 -51.911  15.476  1.00  0.00     0.087 A 
HETATM   21  N   UNL     1     -46.570 -53.081  15.914  1.00  0.00    -0.375 N 
HETATM   22  C   UNL     1     -45.749 -53.744  15.066  1.00  0.00     0.095 A 
ATOM     23  HN  UNL     1     -46.793 -53.448  16.839  1.00  0.00     0.164 HD
ENDBRANCH  16  17
ENDBRANCH   2  16
TORSDOF 6
ENDMDL
MODEL 8
REMARK VINA RESULT:      -5.5      3.124      7.080
REMARK  6 active torsions:
REMARK  status: ('A' for Active; 'I' for Inactive)
REMARK    1  A    between atoms: C_2  and  C_4 
REMARK    2  A    between atoms: C_4  and  N_5 
REMARK    3  A    between atoms: C_9  and  C_10 
REMARK    4  A    between atoms: C_10  and  N_11 
REMARK       I    between atoms: N_11  and  C_12 
REMARK    5  A    between atoms: C_12  and  C_14 
REMARK    6  A    between atoms: C_14  and  C_15 
ROOT
HETATM    1  N   UNL     1     -39.961 -51.324  13.147  1.00  0.00    -0.358 N 
HETATM    2  C   UNL     1     -38.680 -51.085  12.710  1.00  0.00     0.222 C 
HETATM    3  O   UNL     1     -37.750 -51.865  12.906  1.00  0.00    -0.273 OA
HETATM    4  H   UNL     1     -40.681 -50.616  13.057  1.00  0.00     0.162 HD
ENDROOT
BRANCH   1   5
HETATM    5  C   UNL     1     -40.313 -52.510  13.910  1.00  0.00     0.156 C 
BRANCH   5   6
HETATM    6  C   UNL     1     -41.823 -52.776  13.929  1.00  0.00     0.167 C 
HETATM    7  O   UNL     1     -42.060 -54.083  14.498  1.00  0.00    -0.381 OA
HETATM    8  C   UNL     1     -43.471 -54.348  14.575  1.00  0.00     0.198 C 
HETATM    9  C   UNL     1     -44.156 -54.218  13.201  1.00  0.00     0.298 C 
HETATM   10  N   UNL     1     -43.910 -52.926  12.522  1.00  0.00     0.093 N 
HETATM   11  C   UNL     1     -42.446 -52.693  12.520  1.00  0.00     0.305 C 
BRANCH  10  12
HETATM   12  C   UNL     1     -44.680 -51.829  13.137  1.00  0.00     0.276 C 
BRANCH  12  13
HETATM   13  C   UNL     1     -46.191 -52.122  13.288  1.00  0.00     0.006 C 
HETATM   14  C   UNL     1     -46.783 -51.424  14.513  1.00  0.00     0.011 C 
HETATM   15  C   UNL     1     -46.943 -51.702  12.022  1.00  0.00     0.011 C 
ENDBRANCH  12  13
ENDBRANCH  10  12
ENDBRANCH   5   6
ENDBRANCH   1   5
BRANCH   2  16
HETATM   16  C   UNL     1     -38.508 -49.792  11.928  1.00  0.00     0.142 C 
BRANCH  16  17
HETATM   17  C   UNL     1     -38.572 -48.551  12.777  1.00  0.00    -0.034 A 
HETATM   18  C   UNL     1     -37.712 -48.370  13.863  1.00  0.00     0.010 A 
HETATM   19  C   UNL     1     -37.824 -47.228  14.654  1.00  0.00     0.018 A 
HETATM   20  C   UNL     1     -38.801 -46.303  14.333  1.00  0.00     0.087 A 
HETATM   21  N   UNL     1     -39.654 -46.442  13.298  1.00  0.00    -0.375 N 
HETATM   22  C   UNL     1     -39.521 -47.558  12.545  1.00  0.00     0.095 A 
ATOM     23  HN  UNL     1     -40.366 -45.741  13.094  1.00  0.00     0.164 HD
ENDBRANCH  16  17
ENDBRANCH   2  16
TORSDOF 6
ENDMDL
MODEL 9
REMARK VINA RESULT:      -5.5      1.965      7.259
REMARK  6 active torsions:
REMARK  status: ('A' for Active; 'I' for Inactive)
REMARK    1  A    between atoms: C_2  and  C_4 
REMARK    2  A    between atoms: C_4  and  N_5 
REMARK    3  A    between atoms: C_9  and  C_10 
REMARK    4  A    between atoms: C_10  and  N_11 
REMARK       I    between atoms: N_11  and  C_12 
REMARK    5  A    between atoms: C_12  and  C_14 
REMARK    6  A    between atoms: C_14  and  C_15 
ROOT
HETATM    1  N   UNL     1     -41.587 -50.582  11.526  1.00  0.00    -0.358 N 
HETATM    2  C   UNL     1     -40.670 -49.591  11.267  1.00  0.00     0.222 C 
HETATM    3  O   UNL     1     -39.456 -49.768  11.347  1.00  0.00    -0.273 OA
HETATM    4  H   UNL     1     -42.579 -50.377  11.550  1.00  0.00     0.162 HD
ENDROOT
BRANCH   1   5
HETATM    5  C   UNL     1     -41.193 -51.915  11.948  1.00  0.00     0.156 C 
BRANCH   5   6
HETATM    6  C   UNL     1     -42.098 -52.480  13.049  1.00  0.00     0.167 C 
HETATM    7  O   UNL     1     -41.385 -53.522  13.752  1.00  0.00    -0.381 OA
HETATM    8  C   UNL     1     -42.187 -54.045  14.824  1.00  0.00     0.198 C 
HETATM    9  C   UNL     1     -43.552 -54.559  14.323  1.00  0.00     0.298 C 
HETATM   10  N   UNL     1     -44.320 -53.566  13.538  1.00  0.00     0.093 N 
HETATM   11  C   UNL     1     -43.422 -53.036  12.486  1.00  0.00     0.305 C 
BRANCH  10  12
HETATM   12  C   UNL     1     -44.902 -52.520  14.400  1.00  0.00     0.276 C 
BRANCH  12  13
HETATM   13  C   UNL     1     -46.409 -52.267  14.159  1.00  0.00     0.006 C 
HETATM   14  C   UNL     1     -47.028 -51.439  15.285  1.00  0.00     0.011 C 
HETATM   15  C   UNL     1     -46.622 -51.575  12.811  1.00  0.00     0.011 C 
ENDBRANCH  12  13
ENDBRANCH  10  12
ENDBRANCH   5   6
ENDBRANCH   1   5
BRANCH   2  16
HETATM   16  C   UNL     1     -41.274 -48.264  10.837  1.00  0.00     0.142 C 
BRANCH  16  17
HETATM   17  C   UNL     1     -40.621 -47.062  11.466  1.00  0.00    -0.034 A 
HETATM   18  C   UNL     1     -40.516 -46.936  12.854  1.00  0.00     0.010 A 
HETATM   19  C   UNL     1     -39.942 -45.792  13.404  1.00  0.00     0.018 A 
HETATM   20  C   UNL     1     -39.494 -44.805  12.544  1.00  0.00     0.087 A 
HETATM   21  N   UNL     1     -39.582 -44.885  11.201  1.00  0.00    -0.375 N 
HETATM   22  C   UNL     1     -40.140 -46.008  10.693  1.00  0.00     0.095 A 
ATOM     23  HN  UNL     1     -39.245 -44.135  10.598  1.00  0.00     0.164 HD
ENDBRANCH  16  17
ENDBRANCH   2  16
TORSDOF 6
ENDMDL
