MODEL 1
REMARK VINA RESULT:      -6.6      0.000      0.000
REMARK  3 active torsions:
REMARK  status: ('A' for Active; 'I' for Inactive)
REMARK    1  A    between atoms: C_5  and  C_6 
REMARK    2  A    between atoms: C_6  and  C_7 
REMARK    3  A    between atoms: C_7  and  N_8 
REMARK       I    between atoms: N_8  and  C_9 
REMARK       I    between atoms: C_9  and  N_11 
ROOT
HETATM    1  N   UNL     1     -42.890 -54.173  14.657  1.00  0.00    -0.343 N 
HETATM    2  C   UNL     1     -43.838 -53.859  15.592  1.00  0.00     0.318 C 
HETATM    3  O   UNL     1     -43.612 -53.974  16.792  1.00  0.00    -0.247 OA
HETATM    4  N   UNL     1     -45.050 -53.423  15.105  1.00  0.00    -0.329 N 
HETATM    5  C   UNL     1     -45.461 -53.231  13.713  1.00  0.00     0.165 C 
HETATM    6  C   UNL     1     -45.907 -51.769  13.461  1.00  0.00     0.071 C 
HETATM    7  C   UNL     1     -44.706 -50.827  13.309  1.00  0.00     0.047 C 
HETATM    8  C   UNL     1     -46.704 -51.713  12.146  1.00  0.00     0.047 C 
HETATM    9  O   UNL     1     -46.820 -51.291  14.471  1.00  0.00    -0.367 OA
HETATM   10  C   UNL     1     -46.507 -51.571  15.854  1.00  0.00     0.071 C 
HETATM   11  C   UNL     1     -45.439 -50.611  16.397  1.00  0.00     0.047 C 
HETATM   12  C   UNL     1     -47.809 -51.304  16.625  1.00  0.00     0.047 C 
HETATM   13  C   UNL     1     -46.098 -53.045  16.053  1.00  0.00     0.165 C 
HETATM   14  H   UNL     1     -42.956 -53.749  13.749  1.00  0.00     0.164 HD
ENDROOT
BRANCH   1  15
HETATM   15  C   UNL     1     -41.574 -54.642  15.060  1.00  0.00     0.129 C 
BRANCH  15  16
HETATM   16  C   UNL     1     -40.502 -54.323  14.012  1.00  0.00     0.060 C 
BRANCH  16  17
HETATM   17  C   UNL     1     -40.724 -52.978  13.378  1.00  0.00    -0.041 A 
HETATM   18  C   UNL     1     -40.588 -51.802  14.117  1.00  0.00     0.010 A 
HETATM   19  C   UNL     1     -40.747 -50.568  13.489  1.00  0.00     0.025 A 
HETATM   20  C   UNL     1     -41.036 -50.538  12.129  1.00  0.00     0.005 A 
HETATM   21  C   UNL     1     -41.154 -49.235  11.398  1.00  0.00     0.068 C 
HETATM   22  N   UNL     1     -41.182 -51.665  11.393  1.00  0.00    -0.369 N 
HETATM   23  C   UNL     1     -41.026 -52.849  12.028  1.00  0.00     0.095 A 
ATOM     24  HN  UNL     1     -41.402 -51.623  10.398  1.00  0.00     0.165 HD
ENDBRANCH  16  17
ENDBRANCH  15  16
ENDBRANCH   1  15
TORSDOF 3
ENDMDL
MODEL 2
REMARK VINA RESULT:      -6.6      4.429      7.606
REMARK  3 active torsions:
REMARK  status: ('A' for Active; 'I' for Inactive)
REMARK    1  A    between atoms: C_5  and  C_6 
REMARK    2  A    between atoms: C_6  and  C_7 
REMARK    3  A    between atoms: C_7  and  N_8 
REMARK       I    between atoms: N_8  and  C_9 
REMARK       I    between atoms: C_9  and  N_11 
ROOT
HETATM    1  N   UNL     1     -42.213 -48.065  11.461  1.00  0.00    -0.343 N 
HETATM    2  C   UNL     1     -40.852 -48.206  11.463  1.00  0.00     0.318 C 
HETATM    3  O   UNL     1     -40.110 -47.230  11.451  1.00  0.00    -0.247 OA
HETATM    4  N   UNL     1     -40.376 -49.498  11.468  1.00  0.00    -0.329 N 
HETATM    5  C   UNL     1     -41.132 -50.752  11.488  1.00  0.00     0.165 C 
HETATM    6  C   UNL     1     -40.748 -51.614  12.718  1.00  0.00     0.071 C 
HETATM    7  C   UNL     1     -41.421 -51.105  13.999  1.00  0.00     0.047 C 
HETATM    8  C   UNL     1     -41.233 -53.055  12.485  1.00  0.00     0.047 C 
HETATM    9  O   UNL     1     -39.319 -51.722  12.888  1.00  0.00    -0.367 OA
HETATM   10  C   UNL     1     -38.527 -50.521  12.752  1.00  0.00     0.071 C 
HETATM   11  C   UNL     1     -38.590 -49.657  14.019  1.00  0.00     0.047 C 
HETATM   12  C   UNL     1     -37.079 -51.009  12.590  1.00  0.00     0.047 C 
HETATM   13  C   UNL     1     -38.930 -49.718  11.498  1.00  0.00     0.165 C 
HETATM   14  H   UNL     1     -42.772 -48.817  11.823  1.00  0.00     0.164 HD
ENDROOT
BRANCH   1  15
HETATM   15  C   UNL     1     -42.825 -46.746  11.458  1.00  0.00     0.129 C 
BRANCH  15  16
HETATM   16  C   UNL     1     -43.022 -46.205  10.038  1.00  0.00     0.060 C 
BRANCH  16  17
HETATM   17  C   UNL     1     -43.942 -47.078   9.231  1.00  0.00    -0.041 A 
HETATM   18  C   UNL     1     -45.255 -47.316   9.641  1.00  0.00     0.010 A 
HETATM   19  C   UNL     1     -46.100 -48.085   8.845  1.00  0.00     0.025 A 
HETATM   20  C   UNL     1     -45.613 -48.599   7.648  1.00  0.00     0.005 A 
HETATM   21  C   UNL     1     -46.503 -49.380   6.728  1.00  0.00     0.068 C 
HETATM   22  N   UNL     1     -44.341 -48.391   7.232  1.00  0.00    -0.369 N 
HETATM   23  C   UNL     1     -43.541 -47.643   8.026  1.00  0.00     0.095 A 
ATOM     24  HN  UNL     1     -43.999 -48.783   6.355  1.00  0.00     0.165 HD
ENDBRANCH  16  17
ENDBRANCH  15  16
ENDBRANCH   1  15
TORSDOF 3
ENDMDL
MODEL 3
REMARK VINA RESULT:      -6.3      2.755      4.875
REMARK  3 active torsions:
REMARK  status: ('A' for Active; 'I' for Inactive)
REMARK    1  A    between atoms: C_5  and  C_6 
REMARK    2  A    between atoms: C_6  and  C_7 
REMARK    3  A    between atoms: C_7  and  N_8 
REMARK       I    between atoms: N_8  and  C_9 
REMARK       I    between atoms: C_9  and  N_11 
ROOT
HETATM    1  N   UNL     1     -41.210 -51.027  11.721  1.00  0.00    -0.343 N 
HETATM    2  C   UNL     1     -40.909 -52.104  12.510  1.00  0.00     0.318 C 
HETATM    3  O   UNL     1     -39.772 -52.286  12.932  1.00  0.00    -0.247 OA
HETATM    4  N   UNL     1     -41.948 -52.965  12.785  1.00  0.00    -0.329 N 
HETATM    5  C   UNL     1     -43.346 -52.876  12.359  1.00  0.00     0.165 C 
HETATM    6  C   UNL     1     -44.299 -52.849  13.581  1.00  0.00     0.071 C 
HETATM    7  C   UNL     1     -44.337 -51.463  14.239  1.00  0.00     0.047 C 
HETATM    8  C   UNL     1     -45.725 -53.172  13.106  1.00  0.00     0.047 C 
HETATM    9  O   UNL     1     -43.984 -53.875  14.546  1.00  0.00    -0.367 OA
HETATM   10  C   UNL     1     -42.596 -54.073  14.897  1.00  0.00     0.071 C 
HETATM   11  C   UNL     1     -42.111 -53.015  15.898  1.00  0.00     0.047 C 
HETATM   12  C   UNL     1     -42.549 -55.438  15.601  1.00  0.00     0.047 C 
HETATM   13  C   UNL     1     -41.698 -54.122  13.644  1.00  0.00     0.165 C 
HETATM   14  H   UNL     1     -42.162 -50.709  11.691  1.00  0.00     0.164 HD
ENDROOT
BRANCH   1  15
HETATM   15  C   UNL     1     -40.189 -50.053  11.370  1.00  0.00     0.129 C 
BRANCH  15  16
HETATM   16  C   UNL     1     -40.455 -48.684  12.006  1.00  0.00     0.060 C 
BRANCH  16  17
HETATM   17  C   UNL     1     -41.438 -47.877  11.204  1.00  0.00    -0.041 A 
HETATM   18  C   UNL     1     -42.791 -48.217  11.169  1.00  0.00     0.010 A 
HETATM   19  C   UNL     1     -43.687 -47.419  10.460  1.00  0.00     0.025 A 
HETATM   20  C   UNL     1     -43.208 -46.291   9.802  1.00  0.00     0.005 A 
HETATM   21  C   UNL     1     -44.142 -45.369   9.080  1.00  0.00     0.068 C 
HETATM   22  N   UNL     1     -41.898 -45.946   9.813  1.00  0.00    -0.369 N 
HETATM   23  C   UNL     1     -41.050 -46.740  10.506  1.00  0.00     0.095 A 
ATOM     24  HN  UNL     1     -41.565 -45.119   9.318  1.00  0.00     0.165 HD
ENDBRANCH  16  17
ENDBRANCH  15  16
ENDBRANCH   1  15
TORSDOF 3
ENDMDL
MODEL 4
REMARK VINA RESULT:      -6.2      2.924      4.612
REMARK  3 active torsions:
REMARK  status: ('A' for Active; 'I' for Inactive)
REMARK    1  A    between atoms: C_5  and  C_6 
REMARK    2  A    between atoms: C_6  and  C_7 
REMARK    3  A    between atoms: C_7  and  N_8 
REMARK       I    between atoms: N_8  and  C_9 
REMARK       I    between atoms: C_9  and  N_11 
ROOT
HETATM    1  N   UNL     1     -41.660 -50.712  12.465  1.00  0.00    -0.343 N 
HETATM    2  C   UNL     1     -42.815 -50.277  13.056  1.00  0.00     0.318 C 
HETATM    3  O   UNL     1     -43.280 -49.170  12.808  1.00  0.00    -0.247 OA
HETATM    4  N   UNL     1     -43.407 -51.147  13.945  1.00  0.00    -0.329 N 
HETATM    5  C   UNL     1     -42.975 -52.490  14.334  1.00  0.00     0.165 C 
HETATM    6  C   UNL     1     -44.080 -53.537  14.040  1.00  0.00     0.071 C 
HETATM    7  C   UNL     1     -44.129 -53.907  12.553  1.00  0.00     0.047 C 
HETATM    8  C   UNL     1     -43.767 -54.822  14.825  1.00  0.00     0.047 C 
HETATM    9  O   UNL     1     -45.376 -53.115  14.515  1.00  0.00    -0.367 OA
HETATM   10  C   UNL     1     -45.783 -51.753  14.255  1.00  0.00     0.071 C 
HETATM   11  C   UNL     1     -46.280 -51.578  12.812  1.00  0.00     0.047 C 
HETATM   12  C   UNL     1     -46.974 -51.502  15.192  1.00  0.00     0.047 C 
HETATM   13  C   UNL     1     -44.658 -50.753  14.592  1.00  0.00     0.165 C 
HETATM   14  H   UNL     1     -41.501 -51.701  12.398  1.00  0.00     0.164 HD
ENDROOT
BRANCH   1  15
HETATM   15  C   UNL     1     -40.953 -49.876  11.508  1.00  0.00     0.129 C 
BRANCH  15  16
HETATM   16  C   UNL     1     -39.844 -49.053  12.171  1.00  0.00     0.060 C 
BRANCH  16  17
HETATM   17  C   UNL     1     -40.030 -47.579  11.941  1.00  0.00    -0.041 A 
HETATM   18  C   UNL     1     -39.553 -46.640  12.858  1.00  0.00     0.010 A 
HETATM   19  C   UNL     1     -39.692 -45.280  12.592  1.00  0.00     0.025 A 
HETATM   20  C   UNL     1     -40.305 -44.886  11.407  1.00  0.00     0.005 A 
HETATM   21  C   UNL     1     -40.421 -43.435  11.048  1.00  0.00     0.068 C 
HETATM   22  N   UNL     1     -40.784 -45.777  10.506  1.00  0.00    -0.369 N 
HETATM   23  C   UNL     1     -40.639 -47.090  10.791  1.00  0.00     0.095 A 
ATOM     24  HN  UNL     1     -41.237 -45.468   9.646  1.00  0.00     0.165 HD
ENDBRANCH  16  17
ENDBRANCH  15  16
ENDBRANCH   1  15
TORSDOF 3
ENDMDL
MODEL 5
REMARK VINA RESULT:      -6.1      2.552      4.353
REMARK  3 active torsions:
REMARK  status: ('A' for Active; 'I' for Inactive)
REMARK    1  A    between atoms: C_5  and  C_6 
REMARK    2  A    between atoms: C_6  and  C_7 
REMARK    3  A    between atoms: C_7  and  N_8 
REMARK       I    between atoms: N_8  and  C_9 
REMARK       I    between atoms: C_9  and  N_11 
ROOT
HETATM    1  N   UNL     1     -42.091 -50.427  13.258  1.00  0.00    -0.343 N 
HETATM    2  C   UNL     1     -42.480 -51.691  12.908  1.00  0.00     0.318 C 
HETATM    3  O   UNL     1     -41.704 -52.466  12.358  1.00  0.00    -0.247 OA
HETATM    4  N   UNL     1     -43.783 -52.029  13.197  1.00  0.00    -0.329 N 
HETATM    5  C   UNL     1     -44.814 -51.219  13.849  1.00  0.00     0.165 C 
HETATM    6  C   UNL     1     -45.349 -51.919  15.124  1.00  0.00     0.071 C 
HETATM    7  C   UNL     1     -44.381 -51.764  16.304  1.00  0.00     0.047 C 
HETATM    8  C   UNL     1     -46.679 -51.263  15.530  1.00  0.00     0.047 C 
HETATM    9  O   UNL     1     -45.672 -53.307  14.893  1.00  0.00    -0.367 OA
HETATM   10  C   UNL     1     -44.730 -54.107  14.144  1.00  0.00     0.071 C 
HETATM   11  C   UNL     1     -43.547 -54.550  15.016  1.00  0.00     0.047 C 
HETATM   12  C   UNL     1     -45.507 -55.367  13.735  1.00  0.00     0.047 C 
HETATM   13  C   UNL     1     -44.253 -53.375  12.872  1.00  0.00     0.165 C 
HETATM   14  H   UNL     1     -42.591 -49.961  13.994  1.00  0.00     0.164 HD
ENDROOT
BRANCH   1  15
HETATM   15  C   UNL     1     -40.737 -49.966  13.001  1.00  0.00     0.129 C 
BRANCH  15  16
HETATM   16  C   UNL     1     -40.646 -48.437  12.961  1.00  0.00     0.060 C 
BRANCH  16  17
HETATM   17  C   UNL     1     -41.453 -47.859  11.832  1.00  0.00    -0.041 A 
HETATM   18  C   UNL     1     -42.068 -46.612  11.951  1.00  0.00     0.010 A 
HETATM   19  C   UNL     1     -42.765 -46.078  10.869  1.00  0.00     0.025 A 
HETATM   20  C   UNL     1     -42.827 -46.805   9.684  1.00  0.00     0.005 A 
HETATM   21  C   UNL     1     -43.511 -46.244   8.474  1.00  0.00     0.068 C 
HETATM   22  N   UNL     1     -42.245 -48.021   9.547  1.00  0.00    -0.369 N 
HETATM   23  C   UNL     1     -41.579 -48.516  10.614  1.00  0.00     0.095 A 
ATOM     24  HN  UNL     1     -42.308 -48.542   8.673  1.00  0.00     0.165 HD
ENDBRANCH  16  17
ENDBRANCH  15  16
ENDBRANCH   1  15
TORSDOF 3
ENDMDL
MODEL 6
REMARK VINA RESULT:      -6.1      2.504      6.253
REMARK  3 active torsions:
REMARK  status: ('A' for Active; 'I' for Inactive)
REMARK    1  A    between atoms: C_5  and  C_6 
REMARK    2  A    between atoms: C_6  and  C_7 
REMARK    3  A    between atoms: C_7  and  N_8 
REMARK       I    between atoms: N_8  and  C_9 
REMARK       I    between atoms: C_9  and  N_11 
ROOT
HETATM    1  N   UNL     1     -42.301 -53.067  13.813  1.00  0.00    -0.343 N 
HETATM    2  C   UNL     1     -41.126 -52.730  13.198  1.00  0.00     0.318 C 
HETATM    3  O   UNL     1     -40.651 -53.428  12.307  1.00  0.00    -0.247 OA
HETATM    4  N   UNL     1     -40.514 -51.580  13.643  1.00  0.00    -0.329 N 
HETATM    5  C   UNL     1     -40.960 -50.652  14.684  1.00  0.00     0.165 C 
HETATM    6  C   UNL     1     -41.116 -49.217  14.119  1.00  0.00     0.071 C 
HETATM    7  C   UNL     1     -42.418 -49.060  13.322  1.00  0.00     0.047 C 
HETATM    8  C   UNL     1     -41.173 -48.225  15.294  1.00  0.00     0.047 C 
HETATM    9  O   UNL     1     -39.974 -48.807  13.338  1.00  0.00    -0.367 OA
HETATM   10  C   UNL     1     -39.430 -49.748  12.386  1.00  0.00     0.071 C 
HETATM   11  C   UNL     1     -40.266 -49.795  11.099  1.00  0.00     0.047 C 
HETATM   12  C   UNL     1     -38.043 -49.199  12.022  1.00  0.00     0.047 C 
HETATM   13  C   UNL     1     -39.268 -51.150  13.008  1.00  0.00     0.165 C 
HETATM   14  H   UNL     1     -42.834 -52.339  14.254  1.00  0.00     0.164 HD
ENDROOT
BRANCH   1  15
HETATM   15  C   UNL     1     -43.033 -54.260  13.420  1.00  0.00     0.129 C 
BRANCH  15  16
HETATM   16  C   UNL     1     -44.413 -53.926  12.845  1.00  0.00     0.060 C 
BRANCH  16  17
HETATM   17  C   UNL     1     -45.266 -53.183  13.835  1.00  0.00    -0.041 A 
HETATM   18  C   UNL     1     -45.869 -51.970  13.500  1.00  0.00     0.010 A 
HETATM   19  C   UNL     1     -46.697 -51.331  14.420  1.00  0.00     0.025 A 
HETATM   20  C   UNL     1     -46.908 -51.924  15.660  1.00  0.00     0.005 A 
HETATM   21  C   UNL     1     -47.840 -51.307  16.659  1.00  0.00     0.068 C 
HETATM   22  N   UNL     1     -46.327 -53.097  16.012  1.00  0.00    -0.369 N 
HETATM   23  C   UNL     1     -45.526 -53.693  15.101  1.00  0.00     0.095 A 
ATOM     24  HN  UNL     1     -46.489 -53.513  16.930  1.00  0.00     0.165 HD
ENDBRANCH  16  17
ENDBRANCH  15  16
ENDBRANCH   1  15
TORSDOF 3
ENDMDL
MODEL 7
REMARK VINA RESULT:      -6.1      3.013      4.857
REMARK  3 active torsions:
REMARK  status: ('A' for Active; 'I' for Inactive)
REMARK    1  A    between atoms: C_5  and  C_6 
REMARK    2  A    between atoms: C_6  and  C_7 
REMARK    3  A    between atoms: C_7  and  N_8 
REMARK       I    between atoms: N_8  and  C_9 
REMARK       I    between atoms: C_9  and  N_11 
ROOT
HETATM    1  N   UNL     1     -41.690 -50.577  11.719  1.00  0.00    -0.343 N 
HETATM    2  C   UNL     1     -41.566 -51.866  12.161  1.00  0.00     0.318 C 
HETATM    3  O   UNL     1     -40.503 -52.471  12.071  1.00  0.00    -0.247 OA
HETATM    4  N   UNL     1     -42.700 -52.436  12.696  1.00  0.00    -0.329 N 
HETATM    5  C   UNL     1     -44.026 -51.842  12.872  1.00  0.00     0.165 C 
HETATM    6  C   UNL     1     -44.457 -51.874  14.360  1.00  0.00     0.071 C 
HETATM    7  C   UNL     1     -43.775 -50.766  15.173  1.00  0.00     0.047 C 
HETATM    8  C   UNL     1     -45.975 -51.638  14.443  1.00  0.00     0.047 C 
HETATM    9  O   UNL     1     -44.247 -53.168  14.965  1.00  0.00    -0.367 OA
HETATM   10  C   UNL     1     -42.993 -53.840  14.709  1.00  0.00     0.071 C 
HETATM   11  C   UNL     1     -41.862 -53.274  15.580  1.00  0.00     0.047 C 
HETATM   12  C   UNL     1     -43.223 -55.299  15.133  1.00  0.00     0.047 C 
HETATM   13  C   UNL     1     -42.628 -53.803  13.211  1.00  0.00     0.165 C 
HETATM   14  H   UNL     1     -42.416 -50.005  12.112  1.00  0.00     0.164 HD
ENDROOT
BRANCH   1  15
HETATM   15  C   UNL     1     -40.555 -49.876  11.139  1.00  0.00     0.129 C 
BRANCH  15  16
HETATM   16  C   UNL     1     -39.813 -49.025  12.174  1.00  0.00     0.060 C 
BRANCH  16  17
HETATM   17  C   UNL     1     -40.020 -47.554  11.939  1.00  0.00    -0.041 A 
HETATM   18  C   UNL     1     -39.554 -46.606  12.850  1.00  0.00     0.010 A 
HETATM   19  C   UNL     1     -39.713 -45.249  12.579  1.00  0.00     0.025 A 
HETATM   20  C   UNL     1     -40.334 -44.868  11.395  1.00  0.00     0.005 A 
HETATM   21  C   UNL     1     -40.472 -43.421  11.031  1.00  0.00     0.068 C 
HETATM   22  N   UNL     1     -40.803 -45.769  10.498  1.00  0.00    -0.369 N 
HETATM   23  C   UNL     1     -40.639 -47.079  10.788  1.00  0.00     0.095 A 
ATOM     24  HN  UNL     1     -41.263 -45.470   9.638  1.00  0.00     0.165 HD
ENDBRANCH  16  17
ENDBRANCH  15  16
ENDBRANCH   1  15
TORSDOF 3
ENDMDL
MODEL 8
REMARK VINA RESULT:      -6.0      2.302      6.946
REMARK  3 active torsions:
REMARK  status: ('A' for Active; 'I' for Inactive)
REMARK    1  A    between atoms: C_5  and  C_6 
REMARK    2  A    between atoms: C_6  and  C_7 
REMARK    3  A    between atoms: C_7  and  N_8 
REMARK       I    between atoms: N_8  and  C_9 
REMARK       I    between atoms: C_9  and  N_11 
ROOT
HETATM    1  N   UNL     1     -43.487 -51.692  12.988  1.00  0.00    -0.343 N 
HETATM    2  C   UNL     1     -42.393 -50.984  12.569  1.00  0.00     0.318 C 
HETATM    3  O   UNL     1     -42.475 -49.793  12.288  1.00  0.00    -0.247 OA
HETATM    4  N   UNL     1     -41.214 -51.688  12.473  1.00  0.00    -0.329 N 
HETATM    5  C   UNL     1     -40.964 -53.098  12.777  1.00  0.00     0.165 C 
HETATM    6  C   UNL     1     -39.861 -53.248  13.856  1.00  0.00     0.071 C 
HETATM    7  C   UNL     1     -40.403 -52.968  15.263  1.00  0.00     0.047 C 
HETATM    8  C   UNL     1     -39.346 -54.697  13.840  1.00  0.00     0.047 C 
HETATM    9  O   UNL     1     -38.702 -52.436  13.573  1.00  0.00    -0.367 OA
HETATM   10  C   UNL     1     -38.918 -51.071  13.149  1.00  0.00     0.071 C 
HETATM   11  C   UNL     1     -39.241 -50.155  14.339  1.00  0.00     0.047 C 
HETATM   12  C   UNL     1     -37.574 -50.614  12.560  1.00  0.00     0.047 C 
HETATM   13  C   UNL     1     -40.002 -50.983  12.056  1.00  0.00     0.165 C 
HETATM   14  H   UNL     1     -43.337 -52.520  13.535  1.00  0.00     0.164 HD
ENDROOT
BRANCH   1  15
HETATM   15  C   UNL     1     -44.782 -51.047  13.128  1.00  0.00     0.129 C 
BRANCH  15  16
HETATM   16  C   UNL     1     -45.898 -52.054  13.426  1.00  0.00     0.060 C 
BRANCH  16  17
HETATM   17  C   UNL     1     -46.218 -52.114  14.894  1.00  0.00    -0.041 A 
HETATM   18  C   UNL     1     -47.181 -51.276  15.457  1.00  0.00     0.010 A 
HETATM   19  C   UNL     1     -47.494 -51.392  16.809  1.00  0.00     0.025 A 
HETATM   20  C   UNL     1     -46.837 -52.351  17.572  1.00  0.00     0.005 A 
HETATM   21  C   UNL     1     -47.184 -52.555  19.016  1.00  0.00     0.068 C 
HETATM   22  N   UNL     1     -45.892 -53.170  17.051  1.00  0.00    -0.369 N 
HETATM   23  C   UNL     1     -45.605 -53.034  15.737  1.00  0.00     0.095 A 
ATOM     24  HN  UNL     1     -45.415 -53.863  17.629  1.00  0.00     0.165 HD
ENDBRANCH  16  17
ENDBRANCH  15  16
ENDBRANCH   1  15
TORSDOF 3
ENDMDL
MODEL 9
REMARK VINA RESULT:      -6.0      2.916      4.694
REMARK  3 active torsions:
REMARK  status: ('A' for Active; 'I' for Inactive)
REMARK    1  A    between atoms: C_5  and  C_6 
REMARK    2  A    between atoms: C_6  and  C_7 
REMARK    3  A    between atoms: C_7  and  N_8 
REMARK       I    between atoms: N_8  and  C_9 
REMARK       I    between atoms: C_9  and  N_11 
ROOT
HETATM    1  N   UNL     1     -41.638 -50.600  11.689  1.00  0.00    -0.343 N 
HETATM    2  C   UNL     1     -41.498 -51.879  12.155  1.00  0.00     0.318 C 
HETATM    3  O   UNL     1     -40.428 -52.474  12.074  1.00  0.00    -0.247 OA
HETATM    4  N   UNL     1     -42.624 -52.453  12.702  1.00  0.00    -0.329 N 
HETATM    5  C   UNL     1     -43.958 -51.871  12.870  1.00  0.00     0.165 C 
HETATM    6  C   UNL     1     -44.385 -51.881  14.359  1.00  0.00     0.071 C 
HETATM    7  C   UNL     1     -43.715 -50.750  15.150  1.00  0.00     0.047 C 
HETATM    8  C   UNL     1     -45.906 -51.660  14.440  1.00  0.00     0.047 C 
HETATM    9  O   UNL     1     -44.159 -53.160  14.987  1.00  0.00    -0.367 OA
HETATM   10  C   UNL     1     -42.898 -53.823  14.741  1.00  0.00     0.071 C 
HETATM   11  C   UNL     1     -41.773 -53.228  15.599  1.00  0.00     0.047 C 
HETATM   12  C   UNL     1     -43.111 -55.276  15.192  1.00  0.00     0.047 C 
HETATM   13  C   UNL     1     -42.536 -53.809  13.242  1.00  0.00     0.165 C 
HETATM   14  H   UNL     1     -42.370 -50.030  12.073  1.00  0.00     0.164 HD
ENDROOT
BRANCH   1  15
HETATM   15  C   UNL     1     -40.512 -49.898  11.094  1.00  0.00     0.129 C 
BRANCH  15  16
HETATM   16  C   UNL     1     -40.429 -48.442  11.562  1.00  0.00     0.060 C 
BRANCH  16  17
HETATM   17  C   UNL     1     -39.370 -48.253  12.613  1.00  0.00    -0.041 A 
HETATM   18  C   UNL     1     -39.252 -47.050  13.310  1.00  0.00     0.010 A 
HETATM   19  C   UNL     1     -38.296 -46.922  14.315  1.00  0.00     0.025 A 
HETATM   20  C   UNL     1     -37.477 -48.008  14.605  1.00  0.00     0.005 A 
HETATM   21  C   UNL     1     -36.477 -47.940  15.719  1.00  0.00     0.068 C 
HETATM   22  N   UNL     1     -37.566 -49.183  13.937  1.00  0.00    -0.369 N 
HETATM   23  C   UNL     1     -38.500 -49.278  12.964  1.00  0.00     0.095 A 
ATOM     24  HN  UNL     1     -36.951 -49.966  14.160  1.00  0.00     0.165 HD
ENDBRANCH  16  17
ENDBRANCH  15  16
ENDBRANCH   1  15
TORSDOF 3
ENDMDL
