MODEL 1
REMARK VINA RESULT:      -6.4      0.000      0.000
REMARK  3 active torsions:
REMARK  status: ('A' for Active; 'I' for Inactive)
REMARK    1  A    between atoms: C_5  and  N_6 
REMARK       I    between atoms: N_6  and  C_7 
REMARK       I    between atoms: C_7  and  N_9 
REMARK    2  A    between atoms: N_9  and  C_10 
REMARK    3  A    between atoms: C_14  and  C_18 
ROOT
HETATM    1  N   UNL     1     -43.856 -50.739  12.899  1.00  0.00    -0.335 N 
HETATM    2  C   UNL     1     -42.948 -49.712  12.782  1.00  0.00     0.321 C 
HETATM    3  O   UNL     1     -42.076 -49.486  13.613  1.00  0.00    -0.247 OA
HETATM    4  N   UNL     1     -43.213 -48.943  11.671  1.00  0.00    -0.306 N 
HETATM    5  H   UNL     1     -44.081 -51.193  12.023  1.00  0.00     0.164 HD
HETATM    6  H   UNL     1     -44.188 -48.943  11.404  1.00  0.00     0.171 HD
ENDROOT
BRANCH   1   7
HETATM    7  C   UNL     1     -43.844 -51.569  14.096  1.00  0.00     0.122 C 
HETATM    8  C   UNL     1     -43.282 -52.963  13.852  1.00  0.00     0.065 C 
HETATM    9  C   UNL     1     -44.306 -53.929  14.441  1.00  0.00     0.057 C 
HETATM   10  C   UNL     1     -43.653 -54.958  15.366  1.00  0.00     0.045 C 
HETATM   11  C   UNL     1     -45.079 -54.673  13.347  1.00  0.00     0.045 C 
HETATM   12  O   UNL     1     -45.230 -53.150  15.219  1.00  0.00    -0.369 OA
HETATM   13  C   UNL     1     -45.212 -51.782  14.772  1.00  0.00     0.075 C 
HETATM   14  C   UNL     1     -45.359 -50.876  16.000  1.00  0.00     0.048 C 
HETATM   15  C   UNL     1     -46.433 -51.558  13.869  1.00  0.00     0.048 C 
ENDBRANCH   1   7
BRANCH   4  16
HETATM   16  C   UNL     1     -42.463 -47.784  11.380  1.00  0.00     0.067 A 
HETATM   17  C   UNL     1     -41.238 -47.780  10.754  1.00  0.00     0.120 A 
HETATM   18  N   UNL     1     -40.514 -46.662  10.524  1.00  0.00    -0.353 N 
HETATM   19  C   UNL     1     -41.032 -45.492  10.956  1.00  0.00     0.085 A 
ATOM     20  HN  UNL     1     -39.614 -46.700  10.046  1.00  0.00     0.166 HD
HETATM   21  N   UNL     1     -42.239 -45.396  11.554  1.00  0.00    -0.353 N 
HETATM   22  C   UNL     1     -42.929 -46.540  11.742  1.00  0.00     0.120 A 
ATOM     23  HN  UNL     1     -42.613 -44.495  11.851  1.00  0.00     0.166 HD
BRANCH  19  24
HETATM   24  C   UNL     1     -40.220 -44.232  10.803  1.00  0.00     0.053 A 
HETATM   25  C   UNL     1     -39.544 -43.645  12.023  1.00  0.00     0.013 A 
HETATM   26  C   UNL     1     -40.687 -42.917  11.382  1.00  0.00     0.013 A 
ENDBRANCH  19  24
ENDBRANCH   4  16
TORSDOF 3
ENDMDL
MODEL 2
REMARK VINA RESULT:      -5.8      4.881      7.108
REMARK  3 active torsions:
REMARK  status: ('A' for Active; 'I' for Inactive)
REMARK    1  A    between atoms: C_5  and  N_6 
REMARK       I    between atoms: N_6  and  C_7 
REMARK       I    between atoms: C_7  and  N_9 
REMARK    2  A    between atoms: N_9  and  C_10 
REMARK    3  A    between atoms: C_14  and  C_18 
ROOT
HETATM    1  N   UNL     1     -42.729 -44.531  10.931  1.00  0.00    -0.335 N 
HETATM    2  C   UNL     1     -41.774 -43.555  11.103  1.00  0.00     0.321 C 
HETATM    3  O   UNL     1     -40.687 -43.569  10.537  1.00  0.00    -0.247 OA
HETATM    4  N   UNL     1     -42.172 -42.636  12.048  1.00  0.00    -0.306 N 
HETATM    5  H   UNL     1     -43.678 -44.181  10.915  1.00  0.00     0.164 HD
HETATM    6  H   UNL     1     -42.802 -43.017  12.741  1.00  0.00     0.171 HD
ENDROOT
BRANCH   1   7
HETATM    7  C   UNL     1     -42.427 -45.684  10.093  1.00  0.00     0.122 C 
HETATM    8  C   UNL     1     -43.427 -45.876   8.961  1.00  0.00     0.065 C 
HETATM    9  C   UNL     1     -43.856 -47.339   9.035  1.00  0.00     0.057 C 
HETATM   10  C   UNL     1     -43.758 -48.032   7.674  1.00  0.00     0.045 C 
HETATM   11  C   UNL     1     -45.289 -47.484   9.557  1.00  0.00     0.045 C 
HETATM   12  O   UNL     1     -42.960 -48.002   9.941  1.00  0.00    -0.369 OA
HETATM   13  C   UNL     1     -42.357 -47.038  10.824  1.00  0.00     0.075 C 
HETATM   14  C   UNL     1     -40.900 -47.453  11.062  1.00  0.00     0.048 C 
HETATM   15  C   UNL     1     -43.092 -47.097  12.170  1.00  0.00     0.048 C 
ENDBRANCH   1   7
BRANCH   4  16
HETATM   16  C   UNL     1     -41.327 -41.582  12.453  1.00  0.00     0.067 A 
HETATM   17  C   UNL     1     -41.102 -40.435  11.727  1.00  0.00     0.120 A 
HETATM   18  N   UNL     1     -40.253 -39.455  12.111  1.00  0.00    -0.353 N 
HETATM   19  C   UNL     1     -39.585 -39.638  13.270  1.00  0.00     0.085 A 
ATOM     20  HN  UNL     1     -40.123 -38.614  11.549  1.00  0.00     0.166 HD
HETATM   21  N   UNL     1     -39.762 -40.717  14.062  1.00  0.00    -0.353 N 
HETATM   22  C   UNL     1     -40.635 -41.656  13.642  1.00  0.00     0.120 A 
ATOM     23  HN  UNL     1     -39.258 -40.818  14.942  1.00  0.00     0.166 HD
BRANCH  19  24
HETATM   24  C   UNL     1     -38.561 -38.616  13.693  1.00  0.00     0.053 A 
HETATM   25  C   UNL     1     -37.104 -38.861  13.365  1.00  0.00     0.013 A 
HETATM   26  C   UNL     1     -37.565 -38.903  14.792  1.00  0.00     0.013 A 
ENDBRANCH  19  24
ENDBRANCH   4  16
TORSDOF 3
ENDMDL
MODEL 3
REMARK VINA RESULT:      -5.8      1.342      2.109
REMARK  3 active torsions:
REMARK  status: ('A' for Active; 'I' for Inactive)
REMARK    1  A    between atoms: C_5  and  N_6 
REMARK       I    between atoms: N_6  and  C_7 
REMARK       I    between atoms: C_7  and  N_9 
REMARK    2  A    between atoms: N_9  and  C_10 
REMARK    3  A    between atoms: C_14  and  C_18 
ROOT
HETATM    1  N   UNL     1     -43.382 -52.076  13.390  1.00  0.00    -0.335 N 
HETATM    2  C   UNL     1     -42.828 -50.818  13.336  1.00  0.00     0.321 C 
HETATM    3  O   UNL     1     -42.785 -50.059  14.299  1.00  0.00    -0.247 OA
HETATM    4  N   UNL     1     -42.424 -50.510  12.057  1.00  0.00    -0.306 N 
HETATM    5  H   UNL     1     -42.883 -52.769  12.846  1.00  0.00     0.164 HD
HETATM    6  H   UNL     1     -42.957 -50.984  11.341  1.00  0.00     0.171 HD
ENDROOT
BRANCH   1   7
HETATM    7  C   UNL     1     -44.017 -52.525  14.622  1.00  0.00     0.122 C 
HETATM    8  C   UNL     1     -43.020 -53.019  15.661  1.00  0.00     0.065 C 
HETATM    9  C   UNL     1     -43.538 -54.383  16.112  1.00  0.00     0.057 C 
HETATM   10  C   UNL     1     -43.602 -54.493  17.636  1.00  0.00     0.045 C 
HETATM   11  C   UNL     1     -42.670 -55.525  15.573  1.00  0.00     0.045 C 
HETATM   12  O   UNL     1     -44.871 -54.525  15.595  1.00  0.00    -0.369 OA
HETATM   13  C   UNL     1     -45.052 -53.654  14.464  1.00  0.00     0.075 C 
HETATM   14  C   UNL     1     -46.479 -53.095  14.515  1.00  0.00     0.048 C 
HETATM   15  C   UNL     1     -44.918 -54.495  13.187  1.00  0.00     0.048 C 
ENDBRANCH   1   7
BRANCH   4  16
HETATM   16  C   UNL     1     -41.895 -49.242  11.735  1.00  0.00     0.067 A 
HETATM   17  C   UNL     1     -42.649 -48.113  11.507  1.00  0.00     0.120 A 
HETATM   18  N   UNL     1     -42.125 -46.918  11.155  1.00  0.00    -0.353 N 
HETATM   19  C   UNL     1     -40.784 -46.851  11.009  1.00  0.00     0.085 A 
ATOM     20  HN  UNL     1     -42.717 -46.101  11.006  1.00  0.00     0.166 HD
HETATM   21  N   UNL     1     -39.964 -47.898  11.239  1.00  0.00    -0.353 N 
HETATM   22  C   UNL     1     -40.536 -49.063  11.606  1.00  0.00     0.120 A 
ATOM     23  HN  UNL     1     -38.953 -47.812  11.139  1.00  0.00     0.166 HD
BRANCH  19  24
HETATM   24  C   UNL     1     -40.164 -45.563  10.529  1.00  0.00     0.053 A 
HETATM   25  C   UNL     1     -39.522 -44.640  11.540  1.00  0.00     0.013 A 
HETATM   26  C   UNL     1     -40.783 -44.222  10.846  1.00  0.00     0.013 A 
ENDBRANCH  19  24
ENDBRANCH   4  16
TORSDOF 3
ENDMDL
MODEL 4
REMARK VINA RESULT:      -5.6      1.357      2.655
REMARK  3 active torsions:
REMARK  status: ('A' for Active; 'I' for Inactive)
REMARK    1  A    between atoms: C_5  and  N_6 
REMARK       I    between atoms: N_6  and  C_7 
REMARK       I    between atoms: C_7  and  N_9 
REMARK    2  A    between atoms: N_9  and  C_10 
REMARK    3  A    between atoms: C_14  and  C_18 
ROOT
HETATM    1  N   UNL     1     -43.457 -52.069  12.514  1.00  0.00    -0.335 N 
HETATM    2  C   UNL     1     -43.038 -50.759  12.559  1.00  0.00     0.321 C 
HETATM    3  O   UNL     1     -43.638 -49.881  13.168  1.00  0.00    -0.247 OA
HETATM    4  N   UNL     1     -41.929 -50.568  11.767  1.00  0.00    -0.306 N 
HETATM    5  H   UNL     1     -42.704 -52.744  12.543  1.00  0.00     0.164 HD
HETATM    6  H   UNL     1     -41.873 -51.211  10.989  1.00  0.00     0.171 HD
ENDROOT
BRANCH   1   7
HETATM    7  C   UNL     1     -44.711 -52.440  13.156  1.00  0.00     0.122 C 
HETATM    8  C   UNL     1     -45.409 -51.264  13.825  1.00  0.00     0.065 C 
HETATM    9  C   UNL     1     -45.739 -51.732  15.240  1.00  0.00     0.057 C 
HETATM   10  C   UNL     1     -47.201 -51.467  15.603  1.00  0.00     0.045 C 
HETATM   11  C   UNL     1     -44.844 -51.056  16.284  1.00  0.00     0.045 C 
HETATM   12  O   UNL     1     -45.516 -53.151  15.283  1.00  0.00    -0.369 OA
HETATM   13  C   UNL     1     -44.608 -53.535  14.234  1.00  0.00     0.075 C 
HETATM   14  C   UNL     1     -45.065 -54.889  13.679  1.00  0.00     0.048 C 
HETATM   15  C   UNL     1     -43.215 -53.721  14.851  1.00  0.00     0.048 C 
ENDBRANCH   1   7
BRANCH   4  16
HETATM   16  C   UNL     1     -41.359 -49.290  11.591  1.00  0.00     0.067 A 
HETATM   17  C   UNL     1     -41.703 -48.410  10.590  1.00  0.00     0.120 A 
HETATM   18  N   UNL     1     -41.113 -47.207  10.410  1.00  0.00    -0.353 N 
HETATM   19  C   UNL     1     -40.121 -46.873  11.263  1.00  0.00     0.085 A 
ATOM     20  HN  UNL     1     -41.404 -46.578   9.662  1.00  0.00     0.166 HD
HETATM   21  N   UNL     1     -39.736 -47.659  12.291  1.00  0.00    -0.353 N 
HETATM   22  C   UNL     1     -40.369 -48.841  12.437  1.00  0.00     0.120 A 
ATOM     23  HN  UNL     1     -38.997 -47.371  12.932  1.00  0.00     0.166 HD
BRANCH  19  24
HETATM   24  C   UNL     1     -39.373 -45.582  11.046  1.00  0.00     0.053 A 
HETATM   25  C   UNL     1     -39.875 -44.324  11.720  1.00  0.00     0.013 A 
HETATM   26  C   UNL     1     -39.962 -44.456  10.229  1.00  0.00     0.013 A 
ENDBRANCH  19  24
ENDBRANCH   4  16
TORSDOF 3
ENDMDL
MODEL 5
REMARK VINA RESULT:      -5.5      3.149      4.495
REMARK  3 active torsions:
REMARK  status: ('A' for Active; 'I' for Inactive)
REMARK    1  A    between atoms: C_5  and  N_6 
REMARK       I    between atoms: N_6  and  C_7 
REMARK       I    between atoms: C_7  and  N_9 
REMARK    2  A    between atoms: N_9  and  C_10 
REMARK    3  A    between atoms: C_14  and  C_18 
ROOT
HETATM    1  N   UNL     1     -41.243 -52.172  14.665  1.00  0.00    -0.335 N 
HETATM    2  C   UNL     1     -41.778 -51.614  13.527  1.00  0.00     0.321 C 
HETATM    3  O   UNL     1     -42.255 -52.276  12.612  1.00  0.00    -0.247 OA
HETATM    4  N   UNL     1     -41.620 -50.246  13.526  1.00  0.00    -0.306 N 
HETATM    5  H   UNL     1     -41.435 -51.650  15.510  1.00  0.00     0.164 HD
HETATM    6  H   UNL     1     -40.816 -49.933  14.052  1.00  0.00     0.171 HD
ENDROOT
BRANCH   1   7
HETATM    7  C   UNL     1     -41.165 -53.622  14.780  1.00  0.00     0.122 C 
HETATM    8  C   UNL     1     -42.213 -54.204  15.718  1.00  0.00     0.065 C 
HETATM    9  C   UNL     1     -41.448 -55.119  16.672  1.00  0.00     0.057 C 
HETATM   10  C   UNL     1     -42.092 -56.503  16.774  1.00  0.00     0.045 C 
HETATM   11  C   UNL     1     -41.351 -54.518  18.078  1.00  0.00     0.045 C 
HETATM   12  O   UNL     1     -40.123 -55.279  16.140  1.00  0.00    -0.369 OA
HETATM   13  C   UNL     1     -39.813 -54.180  15.263  1.00  0.00     0.075 C 
HETATM   14  C   UNL     1     -38.996 -54.724  14.085  1.00  0.00     0.048 C 
HETATM   15  C   UNL     1     -38.931 -53.188  16.034  1.00  0.00     0.048 C 
ENDBRANCH   1   7
BRANCH   4  16
HETATM   16  C   UNL     1     -42.021 -49.458  12.428  1.00  0.00     0.067 A 
HETATM   17  C   UNL     1     -43.246 -48.840  12.312  1.00  0.00     0.120 A 
HETATM   18  N   UNL     1     -43.629 -48.125  11.230  1.00  0.00    -0.353 N 
HETATM   19  C   UNL     1     -42.751 -48.036  10.208  1.00  0.00     0.085 A 
ATOM     20  HN  UNL     1     -44.541 -47.673  11.188  1.00  0.00     0.166 HD
HETATM   21  N   UNL     1     -41.518 -48.585  10.244  1.00  0.00    -0.353 N 
HETATM   22  C   UNL     1     -41.179 -49.272  11.354  1.00  0.00     0.120 A 
ATOM     23  HN  UNL     1     -40.869 -48.484   9.464  1.00  0.00     0.166 HD
BRANCH  19  24
HETATM   24  C   UNL     1     -43.169 -47.327   8.945  1.00  0.00     0.053 A 
HETATM   25  C   UNL     1     -43.474 -45.846   9.005  1.00  0.00     0.013 A 
HETATM   26  C   UNL     1     -44.581 -46.826   8.750  1.00  0.00     0.013 A 
ENDBRANCH  19  24
ENDBRANCH   4  16
TORSDOF 3
ENDMDL
MODEL 6
REMARK VINA RESULT:      -5.4      2.387      3.260
REMARK  3 active torsions:
REMARK  status: ('A' for Active; 'I' for Inactive)
REMARK    1  A    between atoms: C_5  and  N_6 
REMARK       I    between atoms: N_6  and  C_7 
REMARK       I    between atoms: C_7  and  N_9 
REMARK    2  A    between atoms: N_9  and  C_10 
REMARK    3  A    between atoms: C_14  and  C_18 
ROOT
HETATM    1  N   UNL     1     -40.609 -51.901  14.438  1.00  0.00    -0.335 N 
HETATM    2  C   UNL     1     -41.043 -50.719  13.882  1.00  0.00     0.321 C 
HETATM    3  O   UNL     1     -42.207 -50.339  13.933  1.00  0.00    -0.247 OA
HETATM    4  N   UNL     1     -40.026 -50.091  13.201  1.00  0.00    -0.306 N 
HETATM    5  H   UNL     1     -39.690 -51.845  14.858  1.00  0.00     0.164 HD
HETATM    6  H   UNL     1     -39.328 -50.727  12.839  1.00  0.00     0.171 HD
ENDROOT
BRANCH   1   7
HETATM    7  C   UNL     1     -41.576 -52.793  15.063  1.00  0.00     0.122 C 
HETATM    8  C   UNL     1     -41.097 -53.354  16.395  1.00  0.00     0.065 C 
HETATM    9  C   UNL     1     -41.308 -54.863  16.306  1.00  0.00     0.057 C 
HETATM   10  C   UNL     1     -42.052 -55.408  17.526  1.00  0.00     0.045 C 
HETATM   11  C   UNL     1     -39.979 -55.614  16.165  1.00  0.00     0.045 C 
HETATM   12  O   UNL     1     -42.111 -55.114  15.142  1.00  0.00    -0.369 OA
HETATM   13  C   UNL     1     -41.995 -54.013  14.221  1.00  0.00     0.075 C 
HETATM   14  C   UNL     1     -43.367 -53.783  13.576  1.00  0.00     0.048 C 
HETATM   15  C   UNL     1     -41.012 -54.418  13.114  1.00  0.00     0.048 C 
ENDBRANCH   1   7
BRANCH   4  16
HETATM   16  C   UNL     1     -40.246 -48.898  12.480  1.00  0.00     0.067 A 
HETATM   17  C   UNL     1     -40.726 -48.838  11.192  1.00  0.00     0.120 A 
HETATM   18  N   UNL     1     -40.888 -47.687  10.502  1.00  0.00    -0.353 N 
HETATM   19  C   UNL     1     -40.539 -46.541  11.124  1.00  0.00     0.085 A 
ATOM     20  HN  UNL     1     -41.258 -47.684   9.552  1.00  0.00     0.166 HD
HETATM   21  N   UNL     1     -40.087 -46.500  12.396  1.00  0.00    -0.353 N 
HETATM   22  C   UNL     1     -39.962 -47.675  13.046  1.00  0.00     0.120 A 
ATOM     23  HN  UNL     1     -39.850 -45.616  12.847  1.00  0.00     0.166 HD
BRANCH  19  24
HETATM   24  C   UNL     1     -40.617 -45.242  10.363  1.00  0.00     0.053 A 
HETATM   25  C   UNL     1     -39.344 -44.644   9.806  1.00  0.00     0.013 A 
HETATM   26  C   UNL     1     -40.059 -43.959  10.932  1.00  0.00     0.013 A 
ENDBRANCH  19  24
ENDBRANCH   4  16
TORSDOF 3
ENDMDL
MODEL 7
REMARK VINA RESULT:      -5.3      3.681      4.810
REMARK  3 active torsions:
REMARK  status: ('A' for Active; 'I' for Inactive)
REMARK    1  A    between atoms: C_5  and  N_6 
REMARK       I    between atoms: N_6  and  C_7 
REMARK       I    between atoms: C_7  and  N_9 
REMARK    2  A    between atoms: N_9  and  C_10 
REMARK    3  A    between atoms: C_14  and  C_18 
ROOT
HETATM    1  N   UNL     1     -39.951 -48.930  13.450  1.00  0.00    -0.335 N 
HETATM    2  C   UNL     1     -40.536 -47.972  12.654  1.00  0.00     0.321 C 
HETATM    3  O   UNL     1     -40.913 -48.188  11.507  1.00  0.00    -0.247 OA
HETATM    4  N   UNL     1     -40.553 -46.749  13.285  1.00  0.00    -0.306 N 
HETATM    5  H   UNL     1     -40.220 -48.877  14.424  1.00  0.00     0.164 HD
HETATM    6  H   UNL     1     -39.802 -46.628  13.950  1.00  0.00     0.171 HD
ENDROOT
BRANCH   1   7
HETATM    7  C   UNL     1     -39.691 -50.254  12.900  1.00  0.00     0.122 C 
HETATM    8  C   UNL     1     -40.604 -51.328  13.474  1.00  0.00     0.065 C 
HETATM    9  C   UNL     1     -39.681 -52.460  13.916  1.00  0.00     0.057 C 
HETATM   10  C   UNL     1     -40.145 -53.817  13.382  1.00  0.00     0.045 C 
HETATM   11  C   UNL     1     -39.574 -52.544  15.442  1.00  0.00     0.045 C 
HETATM   12  O   UNL     1     -38.379 -52.187  13.372  1.00  0.00    -0.369 OA
HETATM   13  C   UNL     1     -38.256 -50.781  13.084  1.00  0.00     0.075 C 
HETATM   14  C   UNL     1     -37.450 -50.628  11.789  1.00  0.00     0.048 C 
HETATM   15  C   UNL     1     -37.457 -50.129  14.220  1.00  0.00     0.048 C 
ENDBRANCH   1   7
BRANCH   4  16
HETATM   16  C   UNL     1     -41.035 -45.592  12.638  1.00  0.00     0.067 A 
HETATM   17  C   UNL     1     -40.256 -44.715  11.918  1.00  0.00     0.120 A 
HETATM   18  N   UNL     1     -40.729 -43.586  11.343  1.00  0.00    -0.353 N 
HETATM   19  C   UNL     1     -42.041 -43.313  11.509  1.00  0.00     0.085 A 
ATOM     20  HN  UNL     1     -40.121 -42.967  10.807  1.00  0.00     0.166 HD
HETATM   21  N   UNL     1     -42.886 -44.129  12.174  1.00  0.00    -0.353 N 
HETATM   22  C   UNL     1     -42.367 -45.251  12.713  1.00  0.00     0.120 A 
ATOM     23  HN  UNL     1     -43.877 -43.905  12.266  1.00  0.00     0.166 HD
BRANCH  19  24
HETATM   24  C   UNL     1     -42.593 -42.021  10.963  1.00  0.00     0.053 A 
HETATM   25  C   UNL     1     -42.527 -40.777  11.822  1.00  0.00     0.013 A 
HETATM   26  C   UNL     1     -43.855 -41.404  11.519  1.00  0.00     0.013 A 
ENDBRANCH  19  24
ENDBRANCH   4  16
TORSDOF 3
ENDMDL
MODEL 8
REMARK VINA RESULT:      -5.3      2.009      8.466
REMARK  3 active torsions:
REMARK  status: ('A' for Active; 'I' for Inactive)
REMARK    1  A    between atoms: C_5  and  N_6 
REMARK       I    between atoms: N_6  and  C_7 
REMARK       I    between atoms: C_7  and  N_9 
REMARK    2  A    between atoms: N_9  and  C_10 
REMARK    3  A    between atoms: C_14  and  C_18 
ROOT
HETATM    1  N   UNL     1     -42.100 -47.618  11.966  1.00  0.00    -0.335 N 
HETATM    2  C   UNL     1     -42.646 -48.535  12.834  1.00  0.00     0.321 C 
HETATM    3  O   UNL     1     -42.835 -48.306  14.024  1.00  0.00    -0.247 OA
HETATM    4  N   UNL     1     -42.857 -49.742  12.209  1.00  0.00    -0.306 N 
HETATM    5  H   UNL     1     -42.508 -47.633  11.040  1.00  0.00     0.164 HD
HETATM    6  H   UNL     1     -42.221 -49.916  11.442  1.00  0.00     0.171 HD
ENDROOT
BRANCH   1   7
HETATM    7  C   UNL     1     -41.652 -46.329  12.477  1.00  0.00     0.122 C 
HETATM    8  C   UNL     1     -41.767 -45.208  11.453  1.00  0.00     0.065 C 
HETATM    9  C   UNL     1     -40.405 -44.517  11.446  1.00  0.00     0.057 C 
HETATM   10  C   UNL     1     -40.535 -42.999  11.583  1.00  0.00     0.045 C 
HETATM   11  C   UNL     1     -39.618 -44.829  10.169  1.00  0.00     0.045 C 
HETATM   12  O   UNL     1     -39.671 -45.009  12.578  1.00  0.00    -0.369 OA
HETATM   13  C   UNL     1     -40.200 -46.283  12.988  1.00  0.00     0.075 C 
HETATM   14  C   UNL     1     -40.159 -46.348  14.519  1.00  0.00     0.048 C 
HETATM   15  C   UNL     1     -39.277 -47.382  12.442  1.00  0.00     0.048 C 
ENDBRANCH   1   7
BRANCH   4  16
HETATM   16  C   UNL     1     -43.339 -50.865  12.915  1.00  0.00     0.067 A 
HETATM   17  C   UNL     1     -42.559 -51.913  13.348  1.00  0.00     0.120 A 
HETATM   18  N   UNL     1     -43.047 -53.001  13.983  1.00  0.00    -0.353 N 
HETATM   19  C   UNL     1     -44.381 -53.053  14.181  1.00  0.00     0.085 A 
ATOM     20  HN  UNL     1     -42.433 -53.752  14.299  1.00  0.00     0.166 HD
HETATM   21  N   UNL     1     -45.221 -52.060  13.816  1.00  0.00    -0.353 N 
HETATM   22  C   UNL     1     -44.680 -50.987  13.203  1.00  0.00     0.120 A 
ATOM     23  HN  UNL     1     -46.222 -52.119  13.998  1.00  0.00     0.166 HD
BRANCH  19  24
HETATM   24  C   UNL     1     -44.981 -54.288  14.803  1.00  0.00     0.053 A 
HETATM   25  C   UNL     1     -45.555 -55.358  13.900  1.00  0.00     0.013 A 
HETATM   26  C   UNL     1     -46.469 -54.547  14.769  1.00  0.00     0.013 A 
ENDBRANCH  19  24
ENDBRANCH   4  16
TORSDOF 3
ENDMDL
MODEL 9
REMARK VINA RESULT:      -5.2     13.690     14.613
REMARK  3 active torsions:
REMARK  status: ('A' for Active; 'I' for Inactive)
REMARK    1  A    between atoms: C_5  and  N_6 
REMARK       I    between atoms: N_6  and  C_7 
REMARK       I    between atoms: C_7  and  N_9 
REMARK    2  A    between atoms: N_9  and  C_10 
REMARK    3  A    between atoms: C_14  and  C_18 
ROOT
HETATM    1  N   UNL     1     -50.949 -48.162   0.111  1.00  0.00    -0.335 N 
HETATM    2  C   UNL     1     -50.743 -47.471   1.283  1.00  0.00     0.321 C 
HETATM    3  O   UNL     1     -50.976 -47.939   2.391  1.00  0.00    -0.247 OA
HETATM    4  N   UNL     1     -50.337 -46.180   1.030  1.00  0.00    -0.306 N 
HETATM    5  H   UNL     1     -50.245 -47.993  -0.596  1.00  0.00     0.164 HD
HETATM    6  H   UNL     1     -50.669 -45.819   0.146  1.00  0.00     0.171 HD
ENDROOT
BRANCH   1   7
HETATM    7  C   UNL     1     -51.536 -49.495   0.163  1.00  0.00     0.122 C 
HETATM    8  C   UNL     1     -50.514 -50.606  -0.034  1.00  0.00     0.065 C 
HETATM    9  C   UNL     1     -51.096 -51.514  -1.114  1.00  0.00     0.057 C 
HETATM   10  C   UNL     1     -51.074 -52.985  -0.696  1.00  0.00     0.045 C 
HETATM   11  C   UNL     1     -50.344 -51.370  -2.442  1.00  0.00     0.045 C 
HETATM   12  O   UNL     1     -52.465 -51.123  -1.308  1.00  0.00    -0.369 OA
HETATM   13  C   UNL     1     -52.655 -49.768  -0.860  1.00  0.00     0.075 C 
HETATM   14  C   UNL     1     -54.034 -49.673  -0.196  1.00  0.00     0.048 C 
HETATM   15  C   UNL     1     -52.657 -48.853  -2.092  1.00  0.00     0.048 C 
ENDBRANCH   1   7
BRANCH   4  16
HETATM   16  C   UNL     1     -50.137 -45.251   2.072  1.00  0.00     0.067 A 
HETATM   17  C   UNL     1     -51.115 -44.436   2.594  1.00  0.00     0.120 A 
HETATM   18  N   UNL     1     -50.893 -43.519   3.562  1.00  0.00    -0.353 N 
HETATM   19  C   UNL     1     -49.629 -43.401   4.022  1.00  0.00     0.085 A 
ATOM     20  HN  UNL     1     -51.648 -42.941   3.931  1.00  0.00     0.166 HD
HETATM   21  N   UNL     1     -48.612 -44.178   3.590  1.00  0.00    -0.353 N 
HETATM   22  C   UNL     1     -48.891 -45.089   2.636  1.00  0.00     0.120 A 
ATOM     23  HN  UNL     1     -47.671 -44.079   3.970  1.00  0.00     0.166 HD
BRANCH  19  24
HETATM   24  C   UNL     1     -49.316 -42.331   5.036  1.00  0.00     0.053 A 
HETATM   25  C   UNL     1     -49.416 -42.666   6.508  1.00  0.00     0.013 A 
HETATM   26  C   UNL     1     -50.397 -41.714   5.892  1.00  0.00     0.013 A 
ENDBRANCH  19  24
ENDBRANCH   4  16
TORSDOF 3
ENDMDL
