MODEL 1
REMARK VINA RESULT:      -5.9      0.000      0.000
REMARK  5 active torsions:
REMARK  status: ('A' for Active; 'I' for Inactive)
REMARK    1  A    between atoms: O_2  and  C_3 
REMARK    2  A    between atoms: C_3  and  C_4 
REMARK    3  A    between atoms: C_4  and  O_5 
REMARK    4  A    between atoms: O_5  and  C_6 
REMARK    5  A    between atoms: C_9  and  N_10 
REMARK       I    between atoms: N_10  and  C_11 
REMARK       I    between atoms: C_11  and  N_13 
ROOT
HETATM    1  C   UNL     1     -41.365 -46.112  10.347  1.00  0.00     0.141 A 
HETATM    2  C   UNL     1     -42.719 -46.377  10.442  1.00  0.00     0.058 A 
HETATM    3  C   UNL     1     -43.119 -47.632  10.888  1.00  0.00     0.035 A 
HETATM    4  C   UNL     1     -42.171 -48.594  11.240  1.00  0.00     0.051 A 
HETATM    5  C   UNL     1     -40.833 -48.213  11.119  1.00  0.00     0.119 A 
HETATM    6  N   UNL     1     -40.403 -46.996  10.679  1.00  0.00    -0.345 N 
ATOM      7  HN  UNL     1     -39.411 -46.768  10.605  1.00  0.00     0.167 HD
ENDROOT
BRANCH   4   8
HETATM    8  N   UNL     1     -42.509 -49.890  11.722  1.00  0.00    -0.307 N 
HETATM    9  C   UNL     1     -42.927 -50.169  13.006  1.00  0.00     0.322 C 
HETATM   10  O   UNL     1     -43.159 -49.291  13.836  1.00  0.00    -0.247 OA
HETATM   11  N   UNL     1     -43.081 -51.505  13.347  1.00  0.00    -0.334 N 
HETATM   12  C   UNL     1     -42.813 -52.691  12.533  1.00  0.00     0.128 C 
HETATM   13  C   UNL     1     -43.365 -51.789  14.757  1.00  0.00     0.128 C 
HETATM   14  C   UNL     1     -43.951 -53.712  12.656  1.00  0.00     0.024 C 
HETATM   15  C   UNL     1     -44.322 -54.042  14.112  1.00  0.00    -0.015 C 
HETATM   16  C   UNL     1     -43.277 -54.934  14.786  1.00  0.00     0.010 C 
HETATM   17  C   UNL     1     -44.542 -52.744  14.898  1.00  0.00     0.024 C 
HETATM   18  H   UNL     1     -42.597 -50.613  11.030  1.00  0.00     0.170 HD
ENDBRANCH   4   8
BRANCH   1  19
HETATM   19  O   UNL     1     -41.045 -44.814  10.015  1.00  0.00    -0.334 OA
BRANCH  19  20
HETATM   20  C   UNL     1     -40.205 -44.158  10.962  1.00  0.00     0.203 C 
BRANCH  20  21
HETATM   21  C   UNL     1     -40.959 -42.916  11.438  1.00  0.00     0.193 C 
BRANCH  21  22
HETATM   22  O   UNL     1     -41.982 -42.567  10.509  1.00  0.00    -0.394 OA
HETATM   23  C   UNL     1     -43.227 -42.359  11.165  1.00  0.00     0.201 C 
ENDBRANCH  21  22
ENDBRANCH  20  21
ENDBRANCH  19  20
ENDBRANCH   1  19
TORSDOF 5
ENDMDL
MODEL 2
REMARK VINA RESULT:      -5.8      6.384      9.495
REMARK  5 active torsions:
REMARK  status: ('A' for Active; 'I' for Inactive)
REMARK    1  A    between atoms: O_2  and  C_3 
REMARK    2  A    between atoms: C_3  and  C_4 
REMARK    3  A    between atoms: C_4  and  O_5 
REMARK    4  A    between atoms: O_5  and  C_6 
REMARK    5  A    between atoms: C_9  and  N_10 
REMARK       I    between atoms: N_10  and  C_11 
REMARK       I    between atoms: C_11  and  N_13 
ROOT
HETATM    1  C   UNL     1     -38.251 -55.289  15.902  1.00  0.00     0.141 A 
HETATM    2  C   UNL     1     -39.098 -54.840  16.897  1.00  0.00     0.058 A 
HETATM    3  C   UNL     1     -40.262 -54.173  16.526  1.00  0.00     0.035 A 
HETATM    4  C   UNL     1     -40.566 -53.976  15.178  1.00  0.00     0.051 A 
HETATM    5  C   UNL     1     -39.645 -54.485  14.259  1.00  0.00     0.119 A 
HETATM    6  N   UNL     1     -38.492 -55.136  14.585  1.00  0.00    -0.345 N 
ATOM      7  HN  UNL     1     -37.851 -55.487  13.873  1.00  0.00     0.167 HD
ENDROOT
BRANCH   4   8
HETATM    8  N   UNL     1     -41.746 -53.321  14.727  1.00  0.00    -0.307 N 
HETATM    9  C   UNL     1     -42.959 -53.942  14.515  1.00  0.00     0.322 C 
HETATM   10  O   UNL     1     -43.165 -55.118  14.810  1.00  0.00    -0.247 OA
HETATM   11  N   UNL     1     -43.968 -53.183  13.941  1.00  0.00    -0.334 N 
HETATM   12  C   UNL     1     -43.915 -51.796  13.476  1.00  0.00     0.128 C 
HETATM   13  C   UNL     1     -45.194 -53.898  13.572  1.00  0.00     0.128 C 
HETATM   14  C   UNL     1     -45.152 -51.013  13.933  1.00  0.00     0.024 C 
HETATM   15  C   UNL     1     -46.479 -51.718  13.601  1.00  0.00    -0.015 C 
HETATM   16  C   UNL     1     -46.819 -51.635  12.111  1.00  0.00     0.010 C 
HETATM   17  C   UNL     1     -46.429 -53.171  14.085  1.00  0.00     0.024 C 
HETATM   18  H   UNL     1     -41.723 -52.317  14.720  1.00  0.00     0.170 HD
ENDBRANCH   4   8
BRANCH   1  19
HETATM   19  O   UNL     1     -37.183 -56.042  16.340  1.00  0.00    -0.334 OA
BRANCH  19  20
HETATM   20  C   UNL     1     -36.887 -55.887  17.726  1.00  0.00     0.203 C 
BRANCH  20  21
HETATM   21  C   UNL     1     -35.613 -56.687  17.999  1.00  0.00     0.193 C 
BRANCH  21  22
HETATM   22  O   UNL     1     -34.688 -56.534  16.926  1.00  0.00    -0.394 OA
HETATM   23  C   UNL     1     -33.632 -55.648  17.276  1.00  0.00     0.201 C 
ENDBRANCH  21  22
ENDBRANCH  20  21
ENDBRANCH  19  20
ENDBRANCH   1  19
TORSDOF 5
ENDMDL
MODEL 3
REMARK VINA RESULT:      -5.3      1.540      2.307
REMARK  5 active torsions:
REMARK  status: ('A' for Active; 'I' for Inactive)
REMARK    1  A    between atoms: O_2  and  C_3 
REMARK    2  A    between atoms: C_3  and  C_4 
REMARK    3  A    between atoms: C_4  and  O_5 
REMARK    4  A    between atoms: O_5  and  C_6 
REMARK    5  A    between atoms: C_9  and  N_10 
REMARK       I    between atoms: N_10  and  C_11 
REMARK       I    between atoms: C_11  and  N_13 
ROOT
HETATM    1  C   UNL     1     -42.150 -45.819  11.147  1.00  0.00     0.141 A 
HETATM    2  C   UNL     1     -42.739 -46.683  10.244  1.00  0.00     0.058 A 
HETATM    3  C   UNL     1     -43.202 -47.912  10.706  1.00  0.00     0.035 A 
HETATM    4  C   UNL     1     -43.081 -48.251  12.054  1.00  0.00     0.051 A 
HETATM    5  C   UNL     1     -42.484 -47.295  12.879  1.00  0.00     0.119 A 
HETATM    6  N   UNL     1     -42.012 -46.086  12.461  1.00  0.00    -0.345 N 
ATOM      7  HN  UNL     1     -41.580 -45.424  13.105  1.00  0.00     0.167 HD
ENDROOT
BRANCH   4   8
HETATM    8  N   UNL     1     -43.549 -49.480  12.599  1.00  0.00    -0.307 N 
HETATM    9  C   UNL     1     -42.856 -50.672  12.565  1.00  0.00     0.322 C 
HETATM   10  O   UNL     1     -41.699 -50.756  12.154  1.00  0.00    -0.247 OA
HETATM   11  N   UNL     1     -43.517 -51.804  13.018  1.00  0.00    -0.334 N 
HETATM   12  C   UNL     1     -44.895 -51.926  13.496  1.00  0.00     0.128 C 
HETATM   13  C   UNL     1     -42.828 -53.083  12.822  1.00  0.00     0.128 C 
HETATM   14  C   UNL     1     -44.962 -52.771  14.774  1.00  0.00     0.024 C 
HETATM   15  C   UNL     1     -44.236 -54.123  14.651  1.00  0.00    -0.015 C 
HETATM   16  C   UNL     1     -45.018 -55.122  13.795  1.00  0.00     0.010 C 
HETATM   17  C   UNL     1     -42.821 -53.903  14.105  1.00  0.00     0.024 C 
HETATM   18  H   UNL     1     -44.366 -49.427  13.182  1.00  0.00     0.170 HD
ENDBRANCH   4   8
BRANCH   1  19
HETATM   19  O   UNL     1     -41.826 -44.578  10.643  1.00  0.00    -0.334 OA
BRANCH  19  20
HETATM   20  C   UNL     1     -40.596 -44.051  11.135  1.00  0.00     0.203 C 
BRANCH  20  21
HETATM   21  C   UNL     1     -39.474 -44.758  10.373  1.00  0.00     0.193 C 
BRANCH  21  22
HETATM   22  O   UNL     1     -39.404 -44.280   9.032  1.00  0.00    -0.394 OA
HETATM   23  C   UNL     1     -38.185 -44.667   8.409  1.00  0.00     0.201 C 
ENDBRANCH  21  22
ENDBRANCH  20  21
ENDBRANCH  19  20
ENDBRANCH   1  19
TORSDOF 5
ENDMDL
MODEL 4
REMARK VINA RESULT:      -5.1      6.948     10.944
REMARK  5 active torsions:
REMARK  status: ('A' for Active; 'I' for Inactive)
REMARK    1  A    between atoms: O_2  and  C_3 
REMARK    2  A    between atoms: C_3  and  C_4 
REMARK    3  A    between atoms: C_4  and  O_5 
REMARK    4  A    between atoms: O_5  and  C_6 
REMARK    5  A    between atoms: C_9  and  N_10 
REMARK       I    between atoms: N_10  and  C_11 
REMARK       I    between atoms: C_11  and  N_13 
ROOT
HETATM    1  C   UNL     1     -39.182 -56.578  17.241  1.00  0.00     0.141 A 
HETATM    2  C   UNL     1     -40.415 -56.674  17.859  1.00  0.00     0.058 A 
HETATM    3  C   UNL     1     -41.451 -55.866  17.401  1.00  0.00     0.035 A 
HETATM    4  C   UNL     1     -41.246 -54.990  16.335  1.00  0.00     0.051 A 
HETATM    5  C   UNL     1     -39.966 -54.986  15.777  1.00  0.00     0.119 A 
HETATM    6  N   UNL     1     -38.925 -55.757  16.203  1.00  0.00    -0.345 N 
ATOM      7  HN  UNL     1     -38.006 -55.714  15.763  1.00  0.00     0.167 HD
ENDROOT
BRANCH   4   8
HETATM    8  N   UNL     1     -42.265 -54.149  15.803  1.00  0.00    -0.307 N 
HETATM    9  C   UNL     1     -43.410 -54.598  15.178  1.00  0.00     0.322 C 
HETATM   10  O   UNL     1     -43.715 -55.789  15.124  1.00  0.00    -0.247 OA
HETATM   11  N   UNL     1     -44.230 -53.644  14.594  1.00  0.00    -0.334 N 
HETATM   12  C   UNL     1     -44.026 -52.197  14.505  1.00  0.00     0.128 C 
HETATM   13  C   UNL     1     -45.351 -54.147  13.796  1.00  0.00     0.128 C 
HETATM   14  C   UNL     1     -45.313 -51.437  14.849  1.00  0.00     0.024 C 
HETATM   15  C   UNL     1     -46.542 -51.930  14.064  1.00  0.00    -0.015 C 
HETATM   16  C   UNL     1     -46.513 -51.478  12.603  1.00  0.00     0.010 C 
HETATM   17  C   UNL     1     -46.652 -53.454  14.179  1.00  0.00     0.024 C 
HETATM   18  H   UNL     1     -42.211 -53.176  16.045  1.00  0.00     0.170 HD
ENDBRANCH   4   8
BRANCH   1  19
HETATM   19  O   UNL     1     -38.242 -57.491  17.667  1.00  0.00    -0.334 OA
BRANCH  19  20
HETATM   20  C   UNL     1     -38.524 -58.069  18.940  1.00  0.00     0.203 C 
BRANCH  20  21
HETATM   21  C   UNL     1     -38.101 -59.537  18.863  1.00  0.00     0.193 C 
BRANCH  21  22
HETATM   22  O   UNL     1     -39.239 -60.390  18.948  1.00  0.00    -0.394 OA
HETATM   23  C   UNL     1     -39.707 -60.495  20.287  1.00  0.00     0.201 C 
ENDBRANCH  21  22
ENDBRANCH  20  21
ENDBRANCH  19  20
ENDBRANCH   1  19
TORSDOF 5
ENDMDL
MODEL 5
REMARK VINA RESULT:      -5.0      3.956      9.086
REMARK  5 active torsions:
REMARK  status: ('A' for Active; 'I' for Inactive)
REMARK    1  A    between atoms: O_2  and  C_3 
REMARK    2  A    between atoms: C_3  and  C_4 
REMARK    3  A    between atoms: C_4  and  O_5 
REMARK    4  A    between atoms: O_5  and  C_6 
REMARK    5  A    between atoms: C_9  and  N_10 
REMARK       I    between atoms: N_10  and  C_11 
REMARK       I    between atoms: C_11  and  N_13 
ROOT
HETATM    1  C   UNL     1     -39.365 -54.349  14.238  1.00  0.00     0.141 A 
HETATM    2  C   UNL     1     -38.796 -53.183  14.714  1.00  0.00     0.058 A 
HETATM    3  C   UNL     1     -39.146 -51.979  14.110  1.00  0.00     0.035 A 
HETATM    4  C   UNL     1     -40.059 -51.956  13.055  1.00  0.00     0.051 A 
HETATM    5  C   UNL     1     -40.582 -53.191  12.666  1.00  0.00     0.119 A 
HETATM    6  N   UNL     1     -40.258 -54.390  13.228  1.00  0.00    -0.345 N 
ATOM      7  HN  UNL     1     -40.667 -55.267  12.904  1.00  0.00     0.167 HD
ENDROOT
BRANCH   4   8
HETATM    8  N   UNL     1     -40.476 -50.761  12.404  1.00  0.00    -0.307 N 
HETATM    9  C   UNL     1     -41.631 -50.066  12.696  1.00  0.00     0.322 C 
HETATM   10  O   UNL     1     -42.362 -50.359  13.643  1.00  0.00    -0.247 OA
HETATM   11  N   UNL     1     -41.957 -49.000  11.872  1.00  0.00    -0.334 N 
HETATM   12  C   UNL     1     -41.256 -48.523  10.678  1.00  0.00     0.128 C 
HETATM   13  C   UNL     1     -43.265 -48.377  12.095  1.00  0.00     0.128 C 
HETATM   14  C   UNL     1     -41.129 -46.994  10.688  1.00  0.00     0.024 C 
HETATM   15  C   UNL     1     -42.463 -46.271  10.943  1.00  0.00    -0.015 C 
HETATM   16  C   UNL     1     -43.386 -46.314   9.723  1.00  0.00     0.010 C 
HETATM   17  C   UNL     1     -43.144 -46.862  12.183  1.00  0.00     0.024 C 
HETATM   18  H   UNL     1     -39.800 -50.320  11.806  1.00  0.00     0.170 HD
ENDBRANCH   4   8
BRANCH   1  19
HETATM   19  O   UNL     1     -39.065 -55.483  14.960  1.00  0.00    -0.334 OA
BRANCH  19  20
HETATM   20  C   UNL     1     -38.220 -55.252  16.086  1.00  0.00     0.203 C 
BRANCH  20  21
HETATM   21  C   UNL     1     -38.422 -56.430  17.040  1.00  0.00     0.193 C 
BRANCH  21  22
HETATM   22  O   UNL     1     -39.612 -57.142  16.709  1.00  0.00    -0.394 OA
HETATM   23  C   UNL     1     -39.776 -58.287  17.537  1.00  0.00     0.201 C 
ENDBRANCH  21  22
ENDBRANCH  20  21
ENDBRANCH  19  20
ENDBRANCH   1  19
TORSDOF 5
ENDMDL
MODEL 6
REMARK VINA RESULT:      -4.9      1.941      2.404
REMARK  5 active torsions:
REMARK  status: ('A' for Active; 'I' for Inactive)
REMARK    1  A    between atoms: O_2  and  C_3 
REMARK    2  A    between atoms: C_3  and  C_4 
REMARK    3  A    between atoms: C_4  and  O_5 
REMARK    4  A    between atoms: O_5  and  C_6 
REMARK    5  A    between atoms: C_9  and  N_10 
REMARK       I    between atoms: N_10  and  C_11 
REMARK       I    between atoms: C_11  and  N_13 
ROOT
HETATM    1  C   UNL     1     -40.495 -46.705  11.225  1.00  0.00     0.141 A 
HETATM    2  C   UNL     1     -41.820 -46.451  10.923  1.00  0.00     0.058 A 
HETATM    3  C   UNL     1     -42.774 -47.400  11.278  1.00  0.00     0.035 A 
HETATM    4  C   UNL     1     -42.396 -48.573  11.934  1.00  0.00     0.051 A 
HETATM    5  C   UNL     1     -41.033 -48.717  12.201  1.00  0.00     0.119 A 
HETATM    6  N   UNL     1     -40.069 -47.814  11.862  1.00  0.00    -0.345 N 
ATOM      7  HN  UNL     1     -39.084 -47.969  12.078  1.00  0.00     0.167 HD
ENDROOT
BRANCH   4   8
HETATM    8  N   UNL     1     -43.320 -49.576  12.343  1.00  0.00    -0.307 N 
HETATM    9  C   UNL     1     -43.690 -49.821  13.649  1.00  0.00     0.322 C 
HETATM   10  O   UNL     1     -43.335 -49.106  14.585  1.00  0.00    -0.247 OA
HETATM   11  N   UNL     1     -44.493 -50.926  13.884  1.00  0.00    -0.334 N 
HETATM   12  C   UNL     1     -44.980 -51.921  12.927  1.00  0.00     0.128 C 
HETATM   13  C   UNL     1     -44.741 -51.266  15.289  1.00  0.00     0.128 C 
HETATM   14  C   UNL     1     -46.467 -52.221  13.152  1.00  0.00     0.024 C 
HETATM   15  C   UNL     1     -46.807 -52.562  14.614  1.00  0.00    -0.015 C 
HETATM   16  C   UNL     1     -46.333 -53.964  15.005  1.00  0.00     0.010 C 
HETATM   17  C   UNL     1     -46.225 -51.493  15.545  1.00  0.00     0.024 C 
HETATM   18  H   UNL     1     -43.848 -50.020  11.612  1.00  0.00     0.170 HD
ENDBRANCH   4   8
BRANCH   1  19
HETATM   19  O   UNL     1     -39.625 -45.672  10.952  1.00  0.00    -0.334 OA
BRANCH  19  20
HETATM   20  C   UNL     1     -40.094 -44.390  11.365  1.00  0.00     0.203 C 
BRANCH  20  21
HETATM   21  C   UNL     1     -39.280 -43.997  12.598  1.00  0.00     0.193 C 
BRANCH  21  22
HETATM   22  O   UNL     1     -38.840 -45.159  13.297  1.00  0.00    -0.394 OA
HETATM   23  C   UNL     1     -39.432 -45.240  14.588  1.00  0.00     0.201 C 
ENDBRANCH  21  22
ENDBRANCH  20  21
ENDBRANCH  19  20
ENDBRANCH   1  19
TORSDOF 5
ENDMDL
MODEL 7
REMARK VINA RESULT:      -4.8      2.424      8.507
REMARK  5 active torsions:
REMARK  status: ('A' for Active; 'I' for Inactive)
REMARK    1  A    between atoms: O_2  and  C_3 
REMARK    2  A    between atoms: C_3  and  C_4 
REMARK    3  A    between atoms: C_4  and  O_5 
REMARK    4  A    between atoms: O_5  and  C_6 
REMARK    5  A    between atoms: C_9  and  N_10 
REMARK       I    between atoms: N_10  and  C_11 
REMARK       I    between atoms: C_11  and  N_13 
ROOT
HETATM    1  C   UNL     1     -41.863 -52.869  12.916  1.00  0.00     0.141 A 
HETATM    2  C   UNL     1     -42.873 -51.975  13.216  1.00  0.00     0.058 A 
HETATM    3  C   UNL     1     -42.695 -50.636  12.880  1.00  0.00     0.035 A 
HETATM    4  C   UNL     1     -41.526 -50.215  12.245  1.00  0.00     0.051 A 
HETATM    5  C   UNL     1     -40.579 -51.206  11.978  1.00  0.00     0.119 A 
HETATM    6  N   UNL     1     -40.715 -52.525  12.298  1.00  0.00    -0.345 N 
ATOM      7  HN  UNL     1     -39.990 -53.210  12.083  1.00  0.00     0.167 HD
ENDROOT
BRANCH   4   8
HETATM    8  N   UNL     1     -41.285 -48.867  11.857  1.00  0.00    -0.307 N 
HETATM    9  C   UNL     1     -40.798 -47.881  12.691  1.00  0.00     0.322 C 
HETATM   10  O   UNL     1     -40.413 -48.111  13.836  1.00  0.00    -0.247 OA
HETATM   11  N   UNL     1     -40.756 -46.589  12.189  1.00  0.00    -0.334 N 
HETATM   12  C   UNL     1     -41.207 -46.102  10.884  1.00  0.00     0.128 C 
HETATM   13  C   UNL     1     -40.392 -45.532  13.137  1.00  0.00     0.128 C 
HETATM   14  C   UNL     1     -40.173 -45.155  10.262  1.00  0.00     0.024 C 
HETATM   15  C   UNL     1     -39.724 -44.031  11.212  1.00  0.00    -0.015 C 
HETATM   16  C   UNL     1     -40.798 -42.954  11.381  1.00  0.00     0.010 C 
HETATM   17  C   UNL     1     -39.311 -44.627  12.563  1.00  0.00     0.024 C 
HETATM   18  H   UNL     1     -41.326 -48.673  10.872  1.00  0.00     0.170 HD
ENDBRANCH   4   8
BRANCH   1  19
HETATM   19  O   UNL     1     -42.158 -54.191  13.167  1.00  0.00    -0.334 OA
BRANCH  19  20
HETATM   20  C   UNL     1     -43.412 -54.396  13.816  1.00  0.00     0.203 C 
BRANCH  20  21
HETATM   21  C   UNL     1     -43.116 -55.105  15.138  1.00  0.00     0.193 C 
BRANCH  21  22
HETATM   22  O   UNL     1     -44.205 -54.946  16.044  1.00  0.00    -0.394 OA
HETATM   23  C   UNL     1     -45.008 -53.825  15.694  1.00  0.00     0.201 C 
ENDBRANCH  21  22
ENDBRANCH  20  21
ENDBRANCH  19  20
ENDBRANCH   1  19
TORSDOF 5
ENDMDL
MODEL 8
REMARK VINA RESULT:      -4.7      3.940      9.816
REMARK  5 active torsions:
REMARK  status: ('A' for Active; 'I' for Inactive)
REMARK    1  A    between atoms: O_2  and  C_3 
REMARK    2  A    between atoms: C_3  and  C_4 
REMARK    3  A    between atoms: C_4  and  O_5 
REMARK    4  A    between atoms: O_5  and  C_6 
REMARK    5  A    between atoms: C_9  and  N_10 
REMARK       I    between atoms: N_10  and  C_11 
REMARK       I    between atoms: C_11  and  N_13 
ROOT
HETATM    1  C   UNL     1     -40.429 -47.251  11.379  1.00  0.00     0.141 A 
HETATM    2  C   UNL     1     -41.174 -46.733  12.421  1.00  0.00     0.058 A 
HETATM    3  C   UNL     1     -41.276 -45.350  12.540  1.00  0.00     0.035 A 
HETATM    4  C   UNL     1     -40.647 -44.512  11.618  1.00  0.00     0.051 A 
HETATM    5  C   UNL     1     -39.933 -45.144  10.598  1.00  0.00     0.119 A 
HETATM    6  N   UNL     1     -39.804 -46.494  10.454  1.00  0.00    -0.345 N 
ATOM      7  HN  UNL     1     -39.267 -46.907   9.691  1.00  0.00     0.167 HD
ENDROOT
BRANCH   4   8
HETATM    8  N   UNL     1     -40.725 -43.092  11.667  1.00  0.00    -0.307 N 
HETATM    9  C   UNL     1     -39.992 -42.291  12.518  1.00  0.00     0.322 C 
HETATM   10  O   UNL     1     -39.103 -42.733  13.246  1.00  0.00    -0.247 OA
HETATM   11  N   UNL     1     -40.292 -40.937  12.533  1.00  0.00    -0.334 N 
HETATM   12  C   UNL     1     -41.333 -40.226  11.789  1.00  0.00     0.128 C 
HETATM   13  C   UNL     1     -39.620 -40.131  13.557  1.00  0.00     0.128 C 
HETATM   14  C   UNL     1     -40.785 -38.930  11.178  1.00  0.00     0.024 C 
HETATM   15  C   UNL     1     -40.042 -38.042  12.192  1.00  0.00    -0.015 C 
HETATM   16  C   UNL     1     -41.002 -37.334  13.151  1.00  0.00     0.010 C 
HETATM   17  C   UNL     1     -39.005 -38.877  12.951  1.00  0.00     0.024 C 
HETATM   18  H   UNL     1     -41.232 -42.647  10.923  1.00  0.00     0.170 HD
ENDBRANCH   4   8
BRANCH   1  19
HETATM   19  O   UNL     1     -40.471 -48.622  11.255  1.00  0.00    -0.334 OA
BRANCH  19  20
HETATM   20  C   UNL     1     -39.288 -49.286  11.695  1.00  0.00     0.203 C 
BRANCH  20  21
HETATM   21  C   UNL     1     -39.737 -50.533  12.458  1.00  0.00     0.193 C 
BRANCH  21  22
HETATM   22  O   UNL     1     -38.705 -51.516  12.456  1.00  0.00    -0.394 OA
HETATM   23  C   UNL     1     -37.466 -50.965  12.884  1.00  0.00     0.201 C 
ENDBRANCH  21  22
ENDBRANCH  20  21
ENDBRANCH  19  20
ENDBRANCH   1  19
TORSDOF 5
ENDMDL
MODEL 9
REMARK VINA RESULT:      -4.7      8.078     13.037
REMARK  5 active torsions:
REMARK  status: ('A' for Active; 'I' for Inactive)
REMARK    1  A    between atoms: O_2  and  C_3 
REMARK    2  A    between atoms: C_3  and  C_4 
REMARK    3  A    between atoms: C_4  and  O_5 
REMARK    4  A    between atoms: O_5  and  C_6 
REMARK    5  A    between atoms: C_9  and  N_10 
REMARK       I    between atoms: N_10  and  C_11 
REMARK       I    between atoms: C_11  and  N_13 
ROOT
HETATM    1  C   UNL     1     -37.489 -59.180  19.311  1.00  0.00     0.141 A 
HETATM    2  C   UNL     1     -38.449 -59.821  18.550  1.00  0.00     0.058 A 
HETATM    3  C   UNL     1     -39.354 -59.045  17.833  1.00  0.00     0.035 A 
HETATM    4  C   UNL     1     -39.282 -57.652  17.876  1.00  0.00     0.051 A 
HETATM    5  C   UNL     1     -38.263 -57.112  18.665  1.00  0.00     0.119 A 
HETATM    6  N   UNL     1     -37.364 -57.840  19.387  1.00  0.00    -0.345 N 
ATOM      7  HN  UNL     1     -36.639 -57.396  19.951  1.00  0.00     0.167 HD
ENDROOT
BRANCH   4   8
HETATM    8  N   UNL     1     -40.161 -56.797  17.154  1.00  0.00    -0.307 N 
HETATM    9  C   UNL     1     -39.783 -55.975  16.113  1.00  0.00     0.322 C 
HETATM   10  O   UNL     1     -38.651 -55.991  15.631  1.00  0.00    -0.247 OA
HETATM   11  N   UNL     1     -40.739 -55.104  15.612  1.00  0.00    -0.334 N 
HETATM   12  C   UNL     1     -42.114 -54.896  16.071  1.00  0.00     0.128 C 
HETATM   13  C   UNL     1     -40.277 -54.127  14.622  1.00  0.00     0.128 C 
HETATM   14  C   UNL     1     -43.086 -54.831  14.887  1.00  0.00     0.024 C 
HETATM   15  C   UNL     1     -42.651 -53.841  13.792  1.00  0.00    -0.015 C 
HETATM   16  C   UNL     1     -42.864 -52.385  14.213  1.00  0.00     0.010 C 
HETATM   17  C   UNL     1     -41.192 -54.105  13.405  1.00  0.00     0.024 C 
HETATM   18  H   UNL     1     -41.144 -56.929  17.317  1.00  0.00     0.170 HD
ENDBRANCH   4   8
BRANCH   1  19
HETATM   19  O   UNL     1     -36.557 -60.009  19.895  1.00  0.00    -0.334 OA
BRANCH  19  20
HETATM   20  C   UNL     1     -35.206 -59.589  19.713  1.00  0.00     0.203 C 
BRANCH  20  21
HETATM   21  C   UNL     1     -34.733 -60.182  18.385  1.00  0.00     0.193 C 
BRANCH  21  22
HETATM   22  O   UNL     1     -33.356 -60.543  18.461  1.00  0.00    -0.394 OA
HETATM   23  C   UNL     1     -33.193 -61.955  18.487  1.00  0.00     0.201 C 
ENDBRANCH  21  22
ENDBRANCH  20  21
ENDBRANCH  19  20
ENDBRANCH   1  19
TORSDOF 5
ENDMDL
