MODEL 1
REMARK VINA RESULT:      -7.7      0.000      0.000
REMARK  5 active torsions:
REMARK  status: ('A' for Active; 'I' for Inactive)
REMARK    1  A    between atoms: N_1  and  C_11 
REMARK    2  A    between atoms: N_2  and  C_14 
REMARK    3  A    between atoms: C_4  and  C_10 
REMARK    4  A    between atoms: C_5  and  C_16 
REMARK    5  A    between atoms: C_10  and  C_11 
ROOT
HETATM    1  C   UNL     1     -40.859 -52.919  13.063  1.00  0.00     0.181 C 
HETATM    2  O   UNL     1     -40.745 -53.434  11.945  1.00  0.00    -0.290 OA
ENDROOT
BRANCH   1   3
HETATM    3  C   UNL     1     -41.539 -53.667  14.150  1.00  0.00     0.051 C 
HETATM    4  C   UNL     1     -42.932 -53.667  14.403  1.00  0.00     0.058 C 
HETATM    5  N   UNL     1     -43.148 -54.679  15.320  1.00  0.00    -0.354 N 
HETATM    6  C   UNL     1     -41.986 -55.240  15.759  1.00  0.00     0.044 A 
HETATM    7  H   UNL     1     -44.055 -54.939  15.676  1.00  0.00     0.166 HD
HETATM    8  C   UNL     1     -40.949 -54.564  15.126  1.00  0.00     0.007 A 
HETATM    9  C   UNL     1     -41.794 -56.281  16.680  1.00  0.00     0.030 A 
HETATM   10  C   UNL     1     -39.646 -54.920  15.533  1.00  0.00     0.015 A 
HETATM   11  C   UNL     1     -39.421 -55.954  16.445  1.00  0.00     0.001 A 
HETATM   12  C   UNL     1     -40.487 -56.640  17.000  1.00  0.00     0.002 A 
BRANCH   4  13
HETATM   13  C   UNL     1     -44.094 -52.845  13.973  1.00  0.00    -0.009 A 
HETATM   14  C   UNL     1     -44.715 -53.076  12.720  1.00  0.00     0.014 A 
HETATM   15  C   UNL     1     -45.923 -52.462  12.359  1.00  0.00     0.001 A 
HETATM   16  C   UNL     1     -46.538 -51.576  13.233  1.00  0.00     0.000 A 
HETATM   17  C   UNL     1     -45.926 -51.298  14.455  1.00  0.00     0.001 A 
HETATM   18  C   UNL     1     -44.721 -51.926  14.821  1.00  0.00     0.014 A 
ENDBRANCH   4  13
ENDBRANCH   1   3
BRANCH   1  19
HETATM   19  C   UNL     1     -40.362 -51.464  13.236  1.00  0.00     0.221 C 
BRANCH  19  20
HETATM   20  N   UNL     1     -41.292 -50.328  13.205  1.00  0.00    -0.256 N 
HETATM   21  C   UNL     1     -41.297 -49.541  12.046  1.00  0.00     0.334 C 
HETATM   22  N   UNL     1     -42.339 -48.612  11.948  1.00  0.00    -0.279 N 
HETATM   23  O   UNL     1     -40.475 -49.696  11.141  1.00  0.00    -0.246 OA
HETATM   24  C   UNL     1     -43.030 -48.208  13.072  1.00  0.00     0.146 C 
HETATM   25  C   UNL     1     -42.780 -48.745  14.264  1.00  0.00     0.200 C 
HETATM   26  C   UNL     1     -41.811 -49.856  14.399  1.00  0.00     0.292 C 
HETATM   27  F   UNL     1     -43.401 -48.323  15.383  1.00  0.00    -0.199 F 
HETATM   28  O   UNL     1     -41.518 -50.306  15.501  1.00  0.00    -0.264 OA
BRANCH  22  29
HETATM   29  C   UNL     1     -42.564 -47.996  10.637  1.00  0.00     0.232 C 
HETATM   30  O   UNL     1     -41.871 -46.739  10.496  1.00  0.00    -0.366 OA
HETATM   31  C   UNL     1     -42.657 -45.879   9.649  1.00  0.00     0.170 C 
HETATM   32  C   UNL     1     -43.915 -46.628   9.268  1.00  0.00     0.031 C 
HETATM   33  C   UNL     1     -44.025 -47.643  10.376  1.00  0.00     0.056 C 
ENDBRANCH  22  29
ENDBRANCH  19  20
ENDBRANCH   1  19
TORSDOF 5
ENDMDL
MODEL 2
REMARK VINA RESULT:      -7.6      2.035      2.505
REMARK  5 active torsions:
REMARK  status: ('A' for Active; 'I' for Inactive)
REMARK    1  A    between atoms: N_1  and  C_11 
REMARK    2  A    between atoms: N_2  and  C_14 
REMARK    3  A    between atoms: C_4  and  C_10 
REMARK    4  A    between atoms: C_5  and  C_16 
REMARK    5  A    between atoms: C_10  and  C_11 
ROOT
HETATM    1  C   UNL     1     -40.543 -53.097  13.617  1.00  0.00     0.181 C 
HETATM    2  O   UNL     1     -40.486 -53.418  12.425  1.00  0.00    -0.290 OA
ENDROOT
BRANCH   1   3
HETATM    3  C   UNL     1     -41.362 -53.905  14.556  1.00  0.00     0.051 C 
HETATM    4  C   UNL     1     -42.775 -53.893  14.636  1.00  0.00     0.058 C 
HETATM    5  N   UNL     1     -43.114 -54.961  15.445  1.00  0.00    -0.354 N 
HETATM    6  C   UNL     1     -42.023 -55.574  15.983  1.00  0.00     0.044 A 
HETATM    7  H   UNL     1     -44.061 -55.227  15.668  1.00  0.00     0.166 HD
HETATM    8  C   UNL     1     -40.907 -54.879  15.532  1.00  0.00     0.007 A 
HETATM    9  C   UNL     1     -41.959 -56.681  16.844  1.00  0.00     0.030 A 
HETATM   10  C   UNL     1     -39.669 -55.288  16.069  1.00  0.00     0.015 A 
HETATM   11  C   UNL     1     -39.572 -56.387  16.926  1.00  0.00     0.001 A 
HETATM   12  C   UNL     1     -40.705 -57.088  17.296  1.00  0.00     0.002 A 
BRANCH   4  13
HETATM   13  C   UNL     1     -43.865 -53.020  14.126  1.00  0.00    -0.009 A 
HETATM   14  C   UNL     1     -44.576 -53.367  12.950  1.00  0.00     0.014 A 
HETATM   15  C   UNL     1     -45.730 -52.683  12.543  1.00  0.00     0.001 A 
HETATM   16  C   UNL     1     -46.197 -51.610  13.288  1.00  0.00     0.000 A 
HETATM   17  C   UNL     1     -45.493 -51.219  14.426  1.00  0.00     0.001 A 
HETATM   18  C   UNL     1     -44.343 -51.917  14.841  1.00  0.00     0.014 A 
ENDBRANCH   4  13
ENDBRANCH   1   3
BRANCH   1  19
HETATM   19  C   UNL     1     -39.823 -51.796  14.045  1.00  0.00     0.221 C 
BRANCH  19  20
HETATM   20  N   UNL     1     -39.523 -50.733  13.077  1.00  0.00    -0.256 N 
HETATM   21  C   UNL     1     -40.607 -49.994  12.587  1.00  0.00     0.334 C 
HETATM   22  N   UNL     1     -40.277 -48.852  11.848  1.00  0.00    -0.279 N 
HETATM   23  O   UNL     1     -41.775 -50.292  12.838  1.00  0.00    -0.246 OA
HETATM   24  C   UNL     1     -39.024 -48.712  11.288  1.00  0.00     0.146 C 
HETATM   25  C   UNL     1     -38.071 -49.618  11.498  1.00  0.00     0.200 C 
HETATM   26  C   UNL     1     -38.307 -50.758  12.413  1.00  0.00     0.292 C 
HETATM   27  F   UNL     1     -36.861 -49.531  10.914  1.00  0.00    -0.199 F 
HETATM   28  O   UNL     1     -37.464 -51.637  12.555  1.00  0.00    -0.264 OA
BRANCH  22  29
HETATM   29  C   UNL     1     -41.354 -47.892  11.586  1.00  0.00     0.232 C 
HETATM   30  O   UNL     1     -42.123 -48.237  10.416  1.00  0.00    -0.366 OA
HETATM   31  C   UNL     1     -42.574 -47.020   9.792  1.00  0.00     0.170 C 
HETATM   32  C   UNL     1     -42.034 -45.859  10.598  1.00  0.00     0.031 C 
HETATM   33  C   UNL     1     -40.851 -46.482  11.293  1.00  0.00     0.056 C 
ENDBRANCH  22  29
ENDBRANCH  19  20
ENDBRANCH   1  19
TORSDOF 5
ENDMDL
MODEL 3
REMARK VINA RESULT:      -7.6      2.563      8.309
REMARK  5 active torsions:
REMARK  status: ('A' for Active; 'I' for Inactive)
REMARK    1  A    between atoms: N_1  and  C_11 
REMARK    2  A    between atoms: N_2  and  C_14 
REMARK    3  A    between atoms: C_4  and  C_10 
REMARK    4  A    between atoms: C_5  and  C_16 
REMARK    5  A    between atoms: C_10  and  C_11 
ROOT
HETATM    1  C   UNL     1     -42.341 -49.897  12.444  1.00  0.00     0.181 C 
HETATM    2  O   UNL     1     -43.102 -49.866  13.418  1.00  0.00    -0.290 OA
ENDROOT
BRANCH   1   3
HETATM    3  C   UNL     1     -42.079 -48.653  11.677  1.00  0.00     0.051 C 
HETATM    4  C   UNL     1     -40.846 -47.960  11.630  1.00  0.00     0.058 C 
HETATM    5  N   UNL     1     -40.976 -47.030  10.616  1.00  0.00    -0.354 N 
HETATM    6  C   UNL     1     -42.236 -46.998  10.097  1.00  0.00     0.044 A 
HETATM    7  H   UNL     1     -40.244 -46.399  10.325  1.00  0.00     0.166 HD
HETATM    8  C   UNL     1     -42.986 -47.929  10.805  1.00  0.00     0.007 A 
HETATM    9  C   UNL     1     -42.754 -46.197   9.067  1.00  0.00     0.030 A 
HETATM   10  C   UNL     1     -44.362 -47.972  10.497  1.00  0.00     0.015 A 
HETATM   11  C   UNL     1     -44.907 -47.191   9.475  1.00  0.00     0.001 A 
HETATM   12  C   UNL     1     -44.105 -46.324   8.755  1.00  0.00     0.002 A 
BRANCH   4  13
HETATM   13  C   UNL     1     -39.579 -47.981  12.409  1.00  0.00    -0.009 A 
HETATM   14  C   UNL     1     -39.308 -46.975  13.371  1.00  0.00     0.014 A 
HETATM   15  C   UNL     1     -38.226 -47.062  14.258  1.00  0.00     0.001 A 
HETATM   16  C   UNL     1     -37.363 -48.146  14.195  1.00  0.00     0.000 A 
HETATM   17  C   UNL     1     -37.581 -49.128  13.229  1.00  0.00     0.001 A 
HETATM   18  C   UNL     1     -38.677 -49.048  12.349  1.00  0.00     0.014 A 
ENDBRANCH   4  13
ENDBRANCH   1   3
BRANCH   1  19
HETATM   19  C   UNL     1     -41.776 -51.274  12.020  1.00  0.00     0.221 C 
BRANCH  19  20
HETATM   20  N   UNL     1     -41.758 -52.413  12.946  1.00  0.00    -0.256 N 
HETATM   21  C   UNL     1     -40.505 -52.849  13.394  1.00  0.00     0.334 C 
HETATM   22  N   UNL     1     -40.526 -53.780  14.440  1.00  0.00    -0.279 N 
HETATM   23  O   UNL     1     -39.451 -52.400  12.944  1.00  0.00    -0.246 OA
HETATM   24  C   UNL     1     -41.661 -54.520  14.702  1.00  0.00     0.146 C 
HETATM   25  C   UNL     1     -42.787 -54.318  14.022  1.00  0.00     0.200 C 
HETATM   26  C   UNL     1     -42.876 -53.228  13.024  1.00  0.00     0.292 C 
HETATM   27  F   UNL     1     -43.887 -55.069  14.221  1.00  0.00    -0.199 F 
HETATM   28  O   UNL     1     -43.883 -53.081  12.339  1.00  0.00    -0.264 OA
BRANCH  22  29
HETATM   29  C   UNL     1     -39.263 -54.024  15.143  1.00  0.00     0.232 C 
HETATM   30  O   UNL     1     -38.842 -55.400  15.051  1.00  0.00    -0.366 OA
HETATM   31  C   UNL     1     -38.144 -55.745  16.263  1.00  0.00     0.170 C 
HETATM   32  C   UNL     1     -38.156 -54.530  17.165  1.00  0.00     0.031 C 
HETATM   33  C   UNL     1     -39.343 -53.762  16.643  1.00  0.00     0.056 C 
ENDBRANCH  22  29
ENDBRANCH  19  20
ENDBRANCH   1  19
TORSDOF 5
ENDMDL
MODEL 4
REMARK VINA RESULT:      -7.2      2.807      4.548
REMARK  5 active torsions:
REMARK  status: ('A' for Active; 'I' for Inactive)
REMARK    1  A    between atoms: N_1  and  C_11 
REMARK    2  A    between atoms: N_2  and  C_14 
REMARK    3  A    between atoms: C_4  and  C_10 
REMARK    4  A    between atoms: C_5  and  C_16 
REMARK    5  A    between atoms: C_10  and  C_11 
ROOT
HETATM    1  C   UNL     1     -41.366 -52.901  13.253  1.00  0.00     0.181 C 
HETATM    2  O   UNL     1     -40.964 -53.412  12.202  1.00  0.00    -0.290 OA
ENDROOT
BRANCH   1   3
HETATM    3  C   UNL     1     -41.967 -53.760  14.304  1.00  0.00     0.051 C 
HETATM    4  C   UNL     1     -43.351 -53.905  14.558  1.00  0.00     0.058 C 
HETATM    5  N   UNL     1     -43.465 -54.974  15.427  1.00  0.00    -0.354 N 
HETATM    6  C   UNL     1     -42.253 -55.440  15.839  1.00  0.00     0.044 A 
HETATM    7  H   UNL     1     -44.341 -55.336  15.771  1.00  0.00     0.166 HD
HETATM    8  C   UNL     1     -41.288 -54.640  15.238  1.00  0.00     0.007 A 
HETATM    9  C   UNL     1     -41.957 -56.500  16.712  1.00  0.00     0.030 A 
HETATM   10  C   UNL     1     -39.955 -54.887  15.628  1.00  0.00     0.015 A 
HETATM   11  C   UNL     1     -39.628 -55.936  16.491  1.00  0.00     0.001 A 
HETATM   12  C   UNL     1     -40.620 -56.746  17.014  1.00  0.00     0.002 A 
BRANCH   4  13
HETATM   13  C   UNL     1     -44.590 -53.180  14.167  1.00  0.00    -0.009 A 
HETATM   14  C   UNL     1     -45.235 -52.311  15.082  1.00  0.00     0.014 A 
HETATM   15  C   UNL     1     -46.285 -51.465  14.697  1.00  0.00     0.001 A 
HETATM   16  C   UNL     1     -46.741 -51.479  13.387  1.00  0.00     0.000 A 
HETATM   17  C   UNL     1     -46.153 -52.356  12.476  1.00  0.00     0.001 A 
HETATM   18  C   UNL     1     -45.090 -53.194  12.861  1.00  0.00     0.014 A 
ENDBRANCH   4  13
ENDBRANCH   1   3
BRANCH   1  19
HETATM   19  C   UNL     1     -41.306 -51.359  13.370  1.00  0.00     0.221 C 
BRANCH  19  20
HETATM   20  N   UNL     1     -40.027 -50.638  13.348  1.00  0.00    -0.256 N 
HETATM   21  C   UNL     1     -39.555 -50.141  14.569  1.00  0.00     0.334 C 
HETATM   22  N   UNL     1     -38.240 -49.661  14.560  1.00  0.00    -0.279 N 
HETATM   23  O   UNL     1     -40.228 -50.177  15.600  1.00  0.00    -0.246 OA
HETATM   24  C   UNL     1     -37.626 -49.309  13.376  1.00  0.00     0.146 C 
HETATM   25  C   UNL     1     -38.235 -49.486  12.206  1.00  0.00     0.200 C 
HETATM   26  C   UNL     1     -39.556 -50.150  12.140  1.00  0.00     0.292 C 
HETATM   27  F   UNL     1     -37.678 -49.094  11.044  1.00  0.00    -0.199 F 
HETATM   28  O   UNL     1     -40.158 -50.251  11.076  1.00  0.00    -0.264 OA
BRANCH  22  29
HETATM   29  C   UNL     1     -37.606 -49.426  15.861  1.00  0.00     0.232 C 
HETATM   30  O   UNL     1     -37.494 -48.022  16.170  1.00  0.00    -0.366 OA
HETATM   31  C   UNL     1     -36.299 -47.820  16.949  1.00  0.00     0.170 C 
HETATM   32  C   UNL     1     -35.619 -49.163  17.108  1.00  0.00     0.031 C 
HETATM   33  C   UNL     1     -36.170 -49.936  15.938  1.00  0.00     0.056 C 
ENDBRANCH  22  29
ENDBRANCH  19  20
ENDBRANCH   1  19
TORSDOF 5
ENDMDL
MODEL 5
REMARK VINA RESULT:      -7.2      2.080      4.778
REMARK  5 active torsions:
REMARK  status: ('A' for Active; 'I' for Inactive)
REMARK    1  A    between atoms: N_1  and  C_11 
REMARK    2  A    between atoms: N_2  and  C_14 
REMARK    3  A    between atoms: C_4  and  C_10 
REMARK    4  A    between atoms: C_5  and  C_16 
REMARK    5  A    between atoms: C_10  and  C_11 
ROOT
HETATM    1  C   UNL     1     -40.839 -53.229  13.417  1.00  0.00     0.181 C 
HETATM    2  O   UNL     1     -40.456 -53.639  12.316  1.00  0.00    -0.290 OA
ENDROOT
BRANCH   1   3
HETATM    3  C   UNL     1     -41.981 -53.897  14.092  1.00  0.00     0.051 C 
HETATM    4  C   UNL     1     -41.885 -54.776  15.197  1.00  0.00     0.058 C 
HETATM    5  N   UNL     1     -43.178 -54.950  15.653  1.00  0.00    -0.354 N 
HETATM    6  C   UNL     1     -44.099 -54.348  14.848  1.00  0.00     0.044 A 
HETATM    7  H   UNL     1     -43.428 -55.509  16.454  1.00  0.00     0.166 HD
HETATM    8  C   UNL     1     -43.397 -53.763  13.801  1.00  0.00     0.007 A 
HETATM    9  C   UNL     1     -45.496 -54.301  14.976  1.00  0.00     0.030 A 
HETATM   10  C   UNL     1     -44.182 -53.178  12.786  1.00  0.00     0.015 A 
HETATM   11  C   UNL     1     -45.575 -53.113  12.885  1.00  0.00     0.001 A 
HETATM   12  C   UNL     1     -46.224 -53.655  13.980  1.00  0.00     0.002 A 
BRANCH   4  13
HETATM   13  C   UNL     1     -40.793 -55.526  15.872  1.00  0.00    -0.009 A 
HETATM   14  C   UNL     1     -39.436 -55.190  15.637  1.00  0.00     0.014 A 
HETATM   15  C   UNL     1     -38.388 -55.736  16.392  1.00  0.00     0.001 A 
HETATM   16  C   UNL     1     -38.662 -56.657  17.392  1.00  0.00     0.000 A 
HETATM   17  C   UNL     1     -39.985 -57.039  17.615  1.00  0.00     0.001 A 
HETATM   18  C   UNL     1     -41.037 -56.478  16.867  1.00  0.00     0.014 A 
ENDBRANCH   4  13
ENDBRANCH   1   3
BRANCH   1  19
HETATM   19  C   UNL     1     -40.156 -51.964  13.989  1.00  0.00     0.221 C 
BRANCH  19  20
HETATM   20  N   UNL     1     -39.787 -50.836  13.125  1.00  0.00    -0.256 N 
HETATM   21  C   UNL     1     -40.833 -50.052  12.621  1.00  0.00     0.334 C 
HETATM   22  N   UNL     1     -40.450 -48.862  11.993  1.00  0.00    -0.279 N 
HETATM   23  O   UNL     1     -42.017 -50.357  12.773  1.00  0.00    -0.246 OA
HETATM   24  C   UNL     1     -39.161 -48.693  11.529  1.00  0.00     0.146 C 
HETATM   25  C   UNL     1     -38.229 -49.621  11.733  1.00  0.00     0.200 C 
HETATM   26  C   UNL     1     -38.531 -50.823  12.543  1.00  0.00     0.292 C 
HETATM   27  F   UNL     1     -36.983 -49.503  11.237  1.00  0.00    -0.199 F 
HETATM   28  O   UNL     1     -37.703 -51.719  12.673  1.00  0.00    -0.264 OA
BRANCH  22  29
HETATM   29  C   UNL     1     -41.502 -47.874  11.733  1.00  0.00     0.232 C 
HETATM   30  O   UNL     1     -42.087 -48.029  10.424  1.00  0.00    -0.366 OA
HETATM   31  C   UNL     1     -42.475 -46.728   9.942  1.00  0.00     0.170 C 
HETATM   32  C   UNL     1     -42.086 -45.711  10.993  1.00  0.00     0.031 C 
HETATM   33  C   UNL     1     -40.999 -46.434  11.745  1.00  0.00     0.056 C 
ENDBRANCH  22  29
ENDBRANCH  19  20
ENDBRANCH   1  19
TORSDOF 5
ENDMDL
MODEL 6
REMARK VINA RESULT:      -7.1      3.382      5.234
REMARK  5 active torsions:
REMARK  status: ('A' for Active; 'I' for Inactive)
REMARK    1  A    between atoms: N_1  and  C_11 
REMARK    2  A    between atoms: N_2  and  C_14 
REMARK    3  A    between atoms: C_4  and  C_10 
REMARK    4  A    between atoms: C_5  and  C_16 
REMARK    5  A    between atoms: C_10  and  C_11 
ROOT
HETATM    1  C   UNL     1     -41.934 -50.348  15.829  1.00  0.00     0.181 C 
HETATM    2  O   UNL     1     -41.624 -51.135  16.730  1.00  0.00    -0.290 OA
ENDROOT
BRANCH   1   3
HETATM    3  C   UNL     1     -42.516 -50.870  14.567  1.00  0.00     0.051 C 
HETATM    4  C   UNL     1     -41.784 -51.246  13.416  1.00  0.00     0.058 C 
HETATM    5  N   UNL     1     -42.682 -51.903  12.596  1.00  0.00    -0.354 N 
HETATM    6  C   UNL     1     -43.954 -51.867  13.084  1.00  0.00     0.044 A 
HETATM    7  H   UNL     1     -42.445 -52.314  11.706  1.00  0.00     0.166 HD
HETATM    8  C   UNL     1     -43.911 -51.140  14.267  1.00  0.00     0.007 A 
HETATM    9  C   UNL     1     -45.129 -52.414  12.545  1.00  0.00     0.030 A 
HETATM   10  C   UNL     1     -45.156 -50.887  14.879  1.00  0.00     0.015 A 
HETATM   11  C   UNL     1     -46.343 -51.419  14.369  1.00  0.00     0.001 A 
HETATM   12  C   UNL     1     -46.326 -52.191  13.222  1.00  0.00     0.002 A 
BRANCH   4  13
HETATM   13  C   UNL     1     -40.395 -51.049  12.923  1.00  0.00    -0.009 A 
HETATM   14  C   UNL     1     -40.129 -50.162  11.850  1.00  0.00     0.014 A 
HETATM   15  C   UNL     1     -38.825 -49.801  11.483  1.00  0.00     0.001 A 
HETATM   16  C   UNL     1     -37.741 -50.336  12.163  1.00  0.00     0.000 A 
HETATM   17  C   UNL     1     -37.972 -51.246  13.194  1.00  0.00     0.001 A 
HETATM   18  C   UNL     1     -39.282 -51.596  13.571  1.00  0.00     0.014 A 
ENDBRANCH   4  13
ENDBRANCH   1   3
BRANCH   1  19
HETATM   19  C   UNL     1     -41.601 -48.852  16.037  1.00  0.00     0.221 C 
BRANCH  19  20
HETATM   20  N   UNL     1     -40.562 -48.180  15.245  1.00  0.00    -0.256 N 
HETATM   21  C   UNL     1     -40.969 -47.561  14.057  1.00  0.00     0.334 C 
HETATM   22  N   UNL     1     -40.013 -46.744  13.442  1.00  0.00    -0.279 N 
HETATM   23  O   UNL     1     -42.111 -47.675  13.612  1.00  0.00    -0.246 OA
HETATM   24  C   UNL     1     -38.672 -46.883  13.736  1.00  0.00     0.146 C 
HETATM   25  C   UNL     1     -38.257 -47.741  14.665  1.00  0.00     0.200 C 
HETATM   26  C   UNL     1     -39.235 -48.506  15.472  1.00  0.00     0.292 C 
HETATM   27  F   UNL     1     -36.950 -47.936  14.926  1.00  0.00    -0.199 F 
HETATM   28  O   UNL     1     -38.862 -49.353  16.276  1.00  0.00    -0.264 OA
BRANCH  22  29
HETATM   29  C   UNL     1     -40.485 -45.842  12.386  1.00  0.00     0.232 C 
HETATM   30  O   UNL     1     -40.050 -46.258  11.076  1.00  0.00    -0.366 OA
HETATM   31  C   UNL     1     -39.849 -45.083  10.268  1.00  0.00     0.170 C 
HETATM   32  C   UNL     1     -40.147 -43.874  11.128  1.00  0.00     0.031 C 
HETATM   33  C   UNL     1     -39.948 -44.420  12.519  1.00  0.00     0.056 C 
ENDBRANCH  22  29
ENDBRANCH  19  20
ENDBRANCH   1  19
TORSDOF 5
ENDMDL
MODEL 7
REMARK VINA RESULT:      -7.1      3.627      5.710
REMARK  5 active torsions:
REMARK  status: ('A' for Active; 'I' for Inactive)
REMARK    1  A    between atoms: N_1  and  C_11 
REMARK    2  A    between atoms: N_2  and  C_14 
REMARK    3  A    between atoms: C_4  and  C_10 
REMARK    4  A    between atoms: C_5  and  C_16 
REMARK    5  A    between atoms: C_10  and  C_11 
ROOT
HETATM    1  C   UNL     1     -42.660 -47.610  13.952  1.00  0.00     0.181 C 
HETATM    2  O   UNL     1     -42.921 -47.218  15.094  1.00  0.00    -0.290 OA
ENDROOT
BRANCH   1   3
HETATM    3  C   UNL     1     -41.982 -48.918  13.762  1.00  0.00     0.051 C 
HETATM    4  C   UNL     1     -42.619 -50.181  13.750  1.00  0.00     0.058 C 
HETATM    5  N   UNL     1     -41.671 -51.077  13.294  1.00  0.00    -0.354 N 
HETATM    6  C   UNL     1     -40.446 -50.500  13.132  1.00  0.00     0.044 A 
HETATM    7  H   UNL     1     -41.839 -52.061  13.152  1.00  0.00     0.166 HD
HETATM    8  C   UNL     1     -40.574 -49.170  13.513  1.00  0.00     0.007 A 
HETATM    9  C   UNL     1     -39.244 -51.075  12.691  1.00  0.00     0.030 A 
HETATM   10  C   UNL     1     -39.382 -48.417  13.527  1.00  0.00     0.015 A 
HETATM   11  C   UNL     1     -38.170 -48.960  13.092  1.00  0.00     0.001 A 
HETATM   12  C   UNL     1     -38.106 -50.272  12.661  1.00  0.00     0.002 A 
BRANCH   4  13
HETATM   13  C   UNL     1     -43.953 -50.707  14.143  1.00  0.00    -0.009 A 
HETATM   14  C   UNL     1     -44.380 -50.653  15.494  1.00  0.00     0.014 A 
HETATM   15  C   UNL     1     -45.694 -50.956  15.877  1.00  0.00     0.001 A 
HETATM   16  C   UNL     1     -46.620 -51.349  14.921  1.00  0.00     0.000 A 
HETATM   17  C   UNL     1     -46.216 -51.454  13.591  1.00  0.00     0.001 A 
HETATM   18  C   UNL     1     -44.900 -51.134  13.207  1.00  0.00     0.014 A 
ENDBRANCH   4  13
ENDBRANCH   1   3
BRANCH   1  19
HETATM   19  C   UNL     1     -42.973 -46.655  12.776  1.00  0.00     0.221 C 
BRANCH  19  20
HETATM   20  N   UNL     1     -41.954 -45.747  12.233  1.00  0.00    -0.256 N 
HETATM   21  C   UNL     1     -42.099 -44.384  12.520  1.00  0.00     0.334 C 
HETATM   22  N   UNL     1     -41.005 -43.575  12.187  1.00  0.00    -0.279 N 
HETATM   23  O   UNL     1     -43.096 -43.931  13.084  1.00  0.00    -0.246 OA
HETATM   24  C   UNL     1     -40.065 -44.004  11.272  1.00  0.00     0.146 C 
HETATM   25  C   UNL     1     -40.127 -45.222  10.740  1.00  0.00     0.200 C 
HETATM   26  C   UNL     1     -41.161 -46.184  11.185  1.00  0.00     0.292 C 
HETATM   27  F   UNL     1     -39.255 -45.638   9.802  1.00  0.00    -0.199 F 
HETATM   28  O   UNL     1     -41.274 -47.281  10.648  1.00  0.00    -0.264 OA
BRANCH  22  29
HETATM   29  C   UNL     1     -40.983 -42.220  12.745  1.00  0.00     0.232 C 
HETATM   30  O   UNL     1     -41.461 -41.234  11.808  1.00  0.00    -0.366 OA
HETATM   31  C   UNL     1     -40.754 -40.001  12.041  1.00  0.00     0.170 C 
HETATM   32  C   UNL     1     -39.765 -40.241  13.162  1.00  0.00     0.031 C 
HETATM   33  C   UNL     1     -39.582 -41.736  13.105  1.00  0.00     0.056 C 
ENDBRANCH  22  29
ENDBRANCH  19  20
ENDBRANCH   1  19
TORSDOF 5
ENDMDL
MODEL 8
REMARK VINA RESULT:      -7.1      2.822      6.105
REMARK  5 active torsions:
REMARK  status: ('A' for Active; 'I' for Inactive)
REMARK    1  A    between atoms: N_1  and  C_11 
REMARK    2  A    between atoms: N_2  and  C_14 
REMARK    3  A    between atoms: C_4  and  C_10 
REMARK    4  A    between atoms: C_5  and  C_16 
REMARK    5  A    between atoms: C_10  and  C_11 
ROOT
HETATM    1  C   UNL     1     -42.299 -51.748  12.874  1.00  0.00     0.181 C 
HETATM    2  O   UNL     1     -42.129 -52.352  11.809  1.00  0.00    -0.290 OA
ENDROOT
BRANCH   1   3
HETATM    3  C   UNL     1     -43.126 -52.363  13.943  1.00  0.00     0.051 C 
HETATM    4  C   UNL     1     -42.660 -53.266  14.927  1.00  0.00     0.058 C 
HETATM    5  N   UNL     1     -43.681 -53.377  15.851  1.00  0.00    -0.354 N 
HETATM    6  C   UNL     1     -44.806 -52.709  15.466  1.00  0.00     0.044 A 
HETATM    7  H   UNL     1     -43.633 -53.936  16.689  1.00  0.00     0.166 HD
HETATM    8  C   UNL     1     -44.533 -52.144  14.225  1.00  0.00     0.007 A 
HETATM    9  C   UNL     1     -46.038 -52.587  16.127  1.00  0.00     0.030 A 
HETATM   10  C   UNL     1     -45.615 -51.498  13.594  1.00  0.00     0.015 A 
HETATM   11  C   UNL     1     -46.853 -51.356  14.226  1.00  0.00     0.001 A 
HETATM   12  C   UNL     1     -47.056 -51.882  15.489  1.00  0.00     0.002 A 
BRANCH   4  13
HETATM   13  C   UNL     1     -41.437 -54.089  15.127  1.00  0.00    -0.009 A 
HETATM   14  C   UNL     1     -40.265 -53.833  14.372  1.00  0.00     0.014 A 
HETATM   15  C   UNL     1     -39.039 -54.451  14.661  1.00  0.00     0.001 A 
HETATM   16  C   UNL     1     -38.953 -55.365  15.701  1.00  0.00     0.000 A 
HETATM   17  C   UNL     1     -40.101 -55.668  16.432  1.00  0.00     0.001 A 
HETATM   18  C   UNL     1     -41.326 -55.036  16.150  1.00  0.00     0.014 A 
ENDBRANCH   4  13
ENDBRANCH   1   3
BRANCH   1  19
HETATM   19  C   UNL     1     -41.710 -50.322  12.992  1.00  0.00     0.221 C 
BRANCH  19  20
HETATM   20  N   UNL     1     -40.260 -50.095  13.055  1.00  0.00    -0.256 N 
HETATM   21  C   UNL     1     -39.725 -49.750  14.303  1.00  0.00     0.334 C 
HETATM   22  N   UNL     1     -38.327 -49.760  14.385  1.00  0.00    -0.279 N 
HETATM   23  O   UNL     1     -40.433 -49.513  15.282  1.00  0.00    -0.246 OA
HETATM   24  C   UNL     1     -37.553 -49.687  13.245  1.00  0.00     0.146 C 
HETATM   25  C   UNL     1     -38.108 -49.682  12.036  1.00  0.00     0.200 C 
HETATM   26  C   UNL     1     -39.572 -49.845  11.880  1.00  0.00     0.292 C 
HETATM   27  F   UNL     1     -37.375 -49.551  10.913  1.00  0.00    -0.199 F 
HETATM   28  O   UNL     1     -40.100 -49.766  10.776  1.00  0.00    -0.264 OA
BRANCH  22  29
HETATM   29  C   UNL     1     -37.737 -49.715  15.727  1.00  0.00     0.232 C 
HETATM   30  O   UNL     1     -36.368 -49.264  15.707  1.00  0.00    -0.366 OA
HETATM   31  C   UNL     1     -35.655 -49.923  16.772  1.00  0.00     0.170 C 
HETATM   32  C   UNL     1     -36.624 -50.853  17.470  1.00  0.00     0.031 C 
HETATM   33  C   UNL     1     -37.666 -51.080  16.404  1.00  0.00     0.056 C 
ENDBRANCH  22  29
ENDBRANCH  19  20
ENDBRANCH   1  19
TORSDOF 5
ENDMDL
MODEL 9
REMARK VINA RESULT:      -7.0      3.182      7.548
REMARK  5 active torsions:
REMARK  status: ('A' for Active; 'I' for Inactive)
REMARK    1  A    between atoms: N_1  and  C_11 
REMARK    2  A    between atoms: N_2  and  C_14 
REMARK    3  A    between atoms: C_4  and  C_10 
REMARK    4  A    between atoms: C_5  and  C_16 
REMARK    5  A    between atoms: C_10  and  C_11 
ROOT
HETATM    1  C   UNL     1     -39.134 -49.354  11.612  1.00  0.00     0.181 C 
HETATM    2  O   UNL     1     -38.006 -49.780  11.339  1.00  0.00    -0.290 OA
ENDROOT
BRANCH   1   3
HETATM    3  C   UNL     1     -39.275 -48.075  12.353  1.00  0.00     0.051 C 
HETATM    4  C   UNL     1     -38.687 -47.779  13.605  1.00  0.00     0.058 C 
HETATM    5  N   UNL     1     -38.862 -46.421  13.792  1.00  0.00    -0.354 N 
HETATM    6  C   UNL     1     -39.623 -45.855  12.812  1.00  0.00     0.044 A 
HETATM    7  H   UNL     1     -38.522 -45.908  14.591  1.00  0.00     0.166 HD
HETATM    8  C   UNL     1     -39.988 -46.878  11.945  1.00  0.00     0.007 A 
HETATM    9  C   UNL     1     -40.018 -44.517  12.654  1.00  0.00     0.030 A 
HETATM   10  C   UNL     1     -40.880 -46.519  10.913  1.00  0.00     0.015 A 
HETATM   11  C   UNL     1     -41.289 -45.196  10.727  1.00  0.00     0.001 A 
HETATM   12  C   UNL     1     -40.847 -44.201  11.580  1.00  0.00     0.002 A 
BRANCH   4  13
HETATM   13  C   UNL     1     -38.032 -48.560  14.688  1.00  0.00    -0.009 A 
HETATM   14  C   UNL     1     -36.852 -48.079  15.310  1.00  0.00     0.014 A 
HETATM   15  C   UNL     1     -36.313 -48.680  16.457  1.00  0.00     0.001 A 
HETATM   16  C   UNL     1     -36.924 -49.799  17.004  1.00  0.00     0.000 A 
HETATM   17  C   UNL     1     -38.060 -50.319  16.386  1.00  0.00     0.001 A 
HETATM   18  C   UNL     1     -38.609 -49.706  15.244  1.00  0.00     0.014 A 
ENDBRANCH   4  13
ENDBRANCH   1   3
BRANCH   1  19
HETATM   19  C   UNL     1     -40.345 -50.244  11.244  1.00  0.00     0.221 C 
BRANCH  19  20
HETATM   20  N   UNL     1     -41.071 -51.010  12.265  1.00  0.00    -0.256 N 
HETATM   21  C   UNL     1     -42.246 -50.441  12.771  1.00  0.00     0.334 C 
HETATM   22  N   UNL     1     -43.032 -51.283  13.568  1.00  0.00    -0.279 N 
HETATM   23  O   UNL     1     -42.601 -49.296  12.487  1.00  0.00    -0.246 OA
HETATM   24  C   UNL     1     -42.489 -52.408  14.154  1.00  0.00     0.146 C 
HETATM   25  C   UNL     1     -41.229 -52.767  13.917  1.00  0.00     0.200 C 
HETATM   26  C   UNL     1     -40.403 -52.014  12.946  1.00  0.00     0.292 C 
HETATM   27  F   UNL     1     -40.662 -53.827  14.524  1.00  0.00    -0.199 F 
HETATM   28  O   UNL     1     -39.221 -52.290  12.778  1.00  0.00    -0.264 OA
BRANCH  22  29
HETATM   29  C   UNL     1     -44.401 -50.843  13.857  1.00  0.00     0.232 C 
HETATM   30  O   UNL     1     -44.704 -50.887  15.266  1.00  0.00    -0.366 OA
HETATM   31  C   UNL     1     -46.101 -51.202  15.422  1.00  0.00     0.170 C 
HETATM   32  C   UNL     1     -46.689 -51.392  14.040  1.00  0.00     0.031 C 
HETATM   33  C   UNL     1     -45.469 -51.728  13.222  1.00  0.00     0.056 C 
ENDBRANCH  22  29
ENDBRANCH  19  20
ENDBRANCH   1  19
TORSDOF 5
ENDMDL
