MODEL 1
REMARK VINA RESULT:      -6.2      0.000      0.000
REMARK  5 active torsions:
REMARK  status: ('A' for Active; 'I' for Inactive)
REMARK    1  A    between atoms: C_4  and  C_5 
REMARK    2  A    between atoms: C_5  and  C_6 
REMARK    3  A    between atoms: C_6  and  N_7 
REMARK       I    between atoms: N_7  and  C_8 
REMARK       I    between atoms: C_8  and  N_10 
REMARK    4  A    between atoms: N_10  and  C_11 
REMARK    5  A    between atoms: C_11  and  C_12 
ROOT
HETATM    1  N   UNL     1     -41.877 -49.182  10.862  1.00  0.00    -0.343 N 
HETATM    2  C   UNL     1     -42.070 -49.654  12.138  1.00  0.00     0.316 C 
HETATM    3  O   UNL     1     -41.869 -48.992  13.148  1.00  0.00    -0.247 OA
HETATM    4  N   UNL     1     -42.467 -50.964  12.145  1.00  0.00    -0.342 N 
HETATM    5  H   UNL     1     -41.648 -49.897  10.186  1.00  0.00     0.164 HD
HETATM    6  H   UNL     1     -42.986 -51.277  11.336  1.00  0.00     0.164 HD
ENDROOT
BRANCH   1   7
HETATM    7  C   UNL     1     -41.235 -47.887  10.702  1.00  0.00     0.129 C 
BRANCH   7   8
HETATM    8  C   UNL     1     -42.197 -46.769  10.297  1.00  0.00     0.061 C 
BRANCH   8   9
HETATM    9  C   UNL     1     -43.371 -47.250   9.510  1.00  0.00    -0.023 A 
HETATM   10  C   UNL     1     -44.670 -47.450   9.939  1.00  0.00     0.118 A 
HETATM   11  N   UNL     1     -45.367 -47.898   8.853  1.00  0.00    -0.308 N 
HETATM   12  C   UNL     1     -46.767 -48.240   8.798  1.00  0.00     0.177 C 
HETATM   13  N   UNL     1     -44.613 -48.009   7.745  1.00  0.00    -0.310 N 
HETATM   14  C   UNL     1     -43.400 -47.629   8.149  1.00  0.00     0.115 A 
ATOM     15  HN  UNL     1     -44.902 -48.312   6.814  1.00  0.00     0.186 HD
ENDBRANCH   8   9
ENDBRANCH   7   8
ENDBRANCH   1   7
BRANCH   4  16
HETATM   16  C   UNL     1     -42.772 -51.628  13.403  1.00  0.00     0.144 C 
BRANCH  16  17
HETATM   17  C   UNL     1     -44.185 -52.244  13.462  1.00  0.00     0.020 C 
HETATM   18  C   UNL     1     -44.279 -53.388  12.439  1.00  0.00     0.028 C 
HETATM   19  C   UNL     1     -45.298 -51.207  13.219  1.00  0.00     0.022 C 
HETATM   20  C   UNL     1     -46.544 -51.525  14.058  1.00  0.00     0.012 C 
HETATM   21  C   UNL     1     -46.352 -52.794  14.868  1.00  0.00     0.075 C 
HETATM   22  S   UNL     1     -44.573 -52.889  15.128  1.00  0.00    -0.158 SA
ENDBRANCH  16  17
ENDBRANCH   4  16
TORSDOF 5
ENDMDL
MODEL 2
REMARK VINA RESULT:      -6.0      1.701      2.428
REMARK  5 active torsions:
REMARK  status: ('A' for Active; 'I' for Inactive)
REMARK    1  A    between atoms: C_4  and  C_5 
REMARK    2  A    between atoms: C_5  and  C_6 
REMARK    3  A    between atoms: C_6  and  N_7 
REMARK       I    between atoms: N_7  and  C_8 
REMARK       I    between atoms: C_8  and  N_10 
REMARK    4  A    between atoms: N_10  and  C_11 
REMARK    5  A    between atoms: C_11  and  C_12 
ROOT
HETATM    1  N   UNL     1     -41.671 -51.038  11.520  1.00  0.00    -0.343 N 
HETATM    2  C   UNL     1     -41.994 -51.987  12.459  1.00  0.00     0.316 C 
HETATM    3  O   UNL     1     -41.415 -52.113  13.530  1.00  0.00    -0.247 OA
HETATM    4  N   UNL     1     -43.007 -52.803  12.033  1.00  0.00    -0.342 N 
HETATM    5  H   UNL     1     -41.888 -51.303  10.570  1.00  0.00     0.164 HD
HETATM    6  H   UNL     1     -43.666 -52.396  11.384  1.00  0.00     0.164 HD
ENDROOT
BRANCH   1   7
HETATM    7  C   UNL     1     -40.466 -50.251  11.730  1.00  0.00     0.129 C 
BRANCH   7   8
HETATM    8  C   UNL     1     -40.739 -48.788  12.083  1.00  0.00     0.061 C 
BRANCH   8   9
HETATM    9  C   UNL     1     -41.894 -48.203  11.338  1.00  0.00    -0.023 A 
HETATM   10  C   UNL     1     -42.018 -47.982   9.979  1.00  0.00     0.118 A 
HETATM   11  N   UNL     1     -43.251 -47.427   9.792  1.00  0.00    -0.308 N 
HETATM   12  C   UNL     1     -43.844 -47.026   8.539  1.00  0.00     0.177 C 
HETATM   13  N   UNL     1     -43.941 -47.265  10.934  1.00  0.00    -0.310 N 
HETATM   14  C   UNL     1     -43.111 -47.723  11.873  1.00  0.00     0.115 A 
ATOM     15  HN  UNL     1     -44.879 -46.882  11.055  1.00  0.00     0.186 HD
ENDBRANCH   8   9
ENDBRANCH   7   8
ENDBRANCH   1   7
BRANCH   4  16
HETATM   16  C   UNL     1     -43.527 -53.841  12.911  1.00  0.00     0.144 C 
BRANCH  16  17
HETATM   17  C   UNL     1     -44.895 -53.507  13.538  1.00  0.00     0.020 C 
HETATM   18  C   UNL     1     -45.640 -54.816  13.850  1.00  0.00     0.028 C 
HETATM   19  C   UNL     1     -45.756 -52.596  12.643  1.00  0.00     0.022 C 
HETATM   20  C   UNL     1     -46.599 -51.628  13.486  1.00  0.00     0.012 C 
HETATM   21  C   UNL     1     -46.382 -51.860  14.970  1.00  0.00     0.075 C 
HETATM   22  S   UNL     1     -44.716 -52.533  15.075  1.00  0.00    -0.158 SA
ENDBRANCH  16  17
ENDBRANCH   4  16
TORSDOF 5
ENDMDL
MODEL 3
REMARK VINA RESULT:      -5.9      2.550      3.524
REMARK  5 active torsions:
REMARK  status: ('A' for Active; 'I' for Inactive)
REMARK    1  A    between atoms: C_4  and  C_5 
REMARK    2  A    between atoms: C_5  and  C_6 
REMARK    3  A    between atoms: C_6  and  N_7 
REMARK       I    between atoms: N_7  and  C_8 
REMARK       I    between atoms: C_8  and  N_10 
REMARK    4  A    between atoms: N_10  and  C_11 
REMARK    5  A    between atoms: C_11  and  C_12 
ROOT
HETATM    1  N   UNL     1     -41.883 -51.118  11.630  1.00  0.00    -0.343 N 
HETATM    2  C   UNL     1     -42.177 -52.216  12.402  1.00  0.00     0.316 C 
HETATM    3  O   UNL     1     -41.446 -52.644  13.286  1.00  0.00    -0.247 OA
HETATM    4  N   UNL     1     -43.359 -52.799  12.034  1.00  0.00    -0.342 N 
HETATM    5  H   UNL     1     -42.299 -51.136  10.710  1.00  0.00     0.164 HD
HETATM    6  H   UNL     1     -44.052 -52.186  11.627  1.00  0.00     0.164 HD
ENDROOT
BRANCH   1   7
HETATM    7  C   UNL     1     -40.557 -50.535  11.748  1.00  0.00     0.129 C 
BRANCH   7   8
HETATM    8  C   UNL     1     -40.529 -49.218  12.525  1.00  0.00     0.061 C 
BRANCH   8   9
HETATM    9  C   UNL     1     -40.608 -48.010  11.650  1.00  0.00    -0.023 A 
HETATM   10  C   UNL     1     -39.733 -46.942  11.578  1.00  0.00     0.118 A 
HETATM   11  N   UNL     1     -40.240 -46.095  10.635  1.00  0.00    -0.308 N 
HETATM   12  C   UNL     1     -39.676 -44.841  10.198  1.00  0.00     0.177 C 
HETATM   13  N   UNL     1     -41.388 -46.532  10.088  1.00  0.00    -0.310 N 
HETATM   14  C   UNL     1     -41.618 -47.687  10.715  1.00  0.00     0.115 A 
ATOM     15  HN  UNL     1     -41.951 -46.085   9.364  1.00  0.00     0.186 HD
ENDBRANCH   8   9
ENDBRANCH   7   8
ENDBRANCH   1   7
BRANCH   4  16
HETATM   16  C   UNL     1     -43.868 -53.947  12.769  1.00  0.00     0.144 C 
BRANCH  16  17
HETATM   17  C   UNL     1     -45.081 -53.632  13.667  1.00  0.00     0.020 C 
HETATM   18  C   UNL     1     -45.826 -54.939  13.984  1.00  0.00     0.028 C 
HETATM   19  C   UNL     1     -46.039 -52.603  13.036  1.00  0.00     0.022 C 
HETATM   20  C   UNL     1     -46.664 -51.699  14.109  1.00  0.00     0.012 C 
HETATM   21  C   UNL     1     -46.196 -52.090  15.499  1.00  0.00     0.075 C 
HETATM   22  S   UNL     1     -44.577 -52.829  15.230  1.00  0.00    -0.158 SA
ENDBRANCH  16  17
ENDBRANCH   4  16
TORSDOF 5
ENDMDL
MODEL 4
REMARK VINA RESULT:      -5.7      3.864      4.569
REMARK  5 active torsions:
REMARK  status: ('A' for Active; 'I' for Inactive)
REMARK    1  A    between atoms: C_4  and  C_5 
REMARK    2  A    between atoms: C_5  and  C_6 
REMARK    3  A    between atoms: C_6  and  N_7 
REMARK       I    between atoms: N_7  and  C_8 
REMARK       I    between atoms: C_8  and  N_10 
REMARK    4  A    between atoms: N_10  and  C_11 
REMARK    5  A    between atoms: C_11  and  C_12 
ROOT
HETATM    1  N   UNL     1     -41.208 -46.784  10.433  1.00  0.00    -0.343 N 
HETATM    2  C   UNL     1     -41.261 -48.044  10.976  1.00  0.00     0.316 C 
HETATM    3  O   UNL     1     -42.277 -48.543  11.445  1.00  0.00    -0.247 OA
HETATM    4  N   UNL     1     -40.036 -48.655  10.973  1.00  0.00    -0.342 N 
HETATM    5  H   UNL     1     -40.302 -46.342  10.498  1.00  0.00     0.164 HD
HETATM    6  H   UNL     1     -39.401 -48.377  10.239  1.00  0.00     0.164 HD
ENDROOT
BRANCH   1   7
HETATM    7  C   UNL     1     -42.374 -45.927  10.577  1.00  0.00     0.129 C 
BRANCH   7   8
HETATM    8  C   UNL     1     -43.062 -45.595   9.253  1.00  0.00     0.061 C 
BRANCH   8   9
HETATM    9  C   UNL     1     -43.918 -46.703   8.734  1.00  0.00    -0.023 A 
HETATM   10  C   UNL     1     -45.177 -47.088   9.156  1.00  0.00     0.118 A 
HETATM   11  N   UNL     1     -45.535 -48.149   8.375  1.00  0.00    -0.308 N 
HETATM   12  C   UNL     1     -46.770 -48.894   8.431  1.00  0.00     0.177 C 
HETATM   13  N   UNL     1     -44.597 -48.489   7.474  1.00  0.00    -0.310 N 
HETATM   14  C   UNL     1     -43.611 -47.620   7.702  1.00  0.00     0.115 A 
ATOM     15  HN  UNL     1     -44.631 -49.236   6.780  1.00  0.00     0.186 HD
ENDBRANCH   8   9
ENDBRANCH   7   8
ENDBRANCH   1   7
BRANCH   4  16
HETATM   16  C   UNL     1     -39.899 -50.019  11.462  1.00  0.00     0.144 C 
BRANCH  16  17
HETATM   17  C   UNL     1     -38.707 -50.227  12.418  1.00  0.00     0.020 C 
HETATM   18  C   UNL     1     -37.420 -50.387  11.591  1.00  0.00     0.028 C 
HETATM   19  C   UNL     1     -38.899 -51.433  13.357  1.00  0.00     0.022 C 
HETATM   20  C   UNL     1     -38.274 -51.166  14.734  1.00  0.00     0.012 C 
HETATM   21  C   UNL     1     -37.605 -49.804  14.780  1.00  0.00     0.075 C 
HETATM   22  S   UNL     1     -38.512 -48.824  13.574  1.00  0.00    -0.158 SA
ENDBRANCH  16  17
ENDBRANCH   4  16
TORSDOF 5
ENDMDL
MODEL 5
REMARK VINA RESULT:      -5.6      3.237      6.538
REMARK  5 active torsions:
REMARK  status: ('A' for Active; 'I' for Inactive)
REMARK    1  A    between atoms: C_4  and  C_5 
REMARK    2  A    between atoms: C_5  and  C_6 
REMARK    3  A    between atoms: C_6  and  N_7 
REMARK       I    between atoms: N_7  and  C_8 
REMARK       I    between atoms: C_8  and  N_10 
REMARK    4  A    between atoms: N_10  and  C_11 
REMARK    5  A    between atoms: C_11  and  C_12 
ROOT
HETATM    1  N   UNL     1     -41.962 -52.915  12.161  1.00  0.00    -0.343 N 
HETATM    2  C   UNL     1     -41.029 -51.911  12.069  1.00  0.00     0.316 C 
HETATM    3  O   UNL     1     -39.877 -52.011  12.475  1.00  0.00    -0.247 OA
HETATM    4  N   UNL     1     -41.552 -50.774  11.515  1.00  0.00    -0.342 N 
HETATM    5  H   UNL     1     -42.917 -52.589  12.214  1.00  0.00     0.164 HD
HETATM    6  H   UNL     1     -42.314 -50.905  10.865  1.00  0.00     0.164 HD
ENDROOT
BRANCH   1   7
HETATM    7  C   UNL     1     -41.622 -54.097  12.936  1.00  0.00     0.129 C 
BRANCH   7   8
HETATM    8  C   UNL     1     -42.484 -54.285  14.185  1.00  0.00     0.061 C 
BRANCH   8   9
HETATM    9  C   UNL     1     -43.875 -53.763  14.031  1.00  0.00    -0.023 A 
HETATM   10  C   UNL     1     -44.397 -52.563  14.477  1.00  0.00     0.118 A 
HETATM   11  N   UNL     1     -45.708 -52.551  14.096  1.00  0.00    -0.308 N 
HETATM   12  C   UNL     1     -46.672 -51.503  14.327  1.00  0.00     0.177 C 
HETATM   13  N   UNL     1     -46.081 -53.660  13.434  1.00  0.00    -0.310 N 
HETATM   14  C   UNL     1     -44.971 -54.401  13.408  1.00  0.00     0.115 A 
ATOM     15  HN  UNL     1     -46.997 -53.884  13.045  1.00  0.00     0.186 HD
ENDBRANCH   8   9
ENDBRANCH   7   8
ENDBRANCH   1   7
BRANCH   4  16
HETATM   16  C   UNL     1     -40.702 -49.615  11.287  1.00  0.00     0.144 C 
BRANCH  16  17
HETATM   17  C   UNL     1     -41.432 -48.264  11.423  1.00  0.00     0.020 C 
HETATM   18  C   UNL     1     -42.166 -48.223  12.774  1.00  0.00     0.028 C 
HETATM   19  C   UNL     1     -42.413 -47.996  10.267  1.00  0.00     0.022 C 
HETATM   20  C   UNL     1     -42.460 -46.501   9.916  1.00  0.00     0.012 C 
HETATM   21  C   UNL     1     -41.557 -45.694  10.830  1.00  0.00     0.075 C 
HETATM   22  S   UNL     1     -40.272 -46.854  11.322  1.00  0.00    -0.158 SA
ENDBRANCH  16  17
ENDBRANCH   4  16
TORSDOF 5
ENDMDL
MODEL 6
REMARK VINA RESULT:      -5.3      3.561      5.674
REMARK  5 active torsions:
REMARK  status: ('A' for Active; 'I' for Inactive)
REMARK    1  A    between atoms: C_4  and  C_5 
REMARK    2  A    between atoms: C_5  and  C_6 
REMARK    3  A    between atoms: C_6  and  N_7 
REMARK       I    between atoms: N_7  and  C_8 
REMARK       I    between atoms: C_8  and  N_10 
REMARK    4  A    between atoms: N_10  and  C_11 
REMARK    5  A    between atoms: C_11  and  C_12 
ROOT
HETATM    1  N   UNL     1     -41.081 -50.395  11.663  1.00  0.00    -0.343 N 
HETATM    2  C   UNL     1     -41.379 -51.693  12.001  1.00  0.00     0.316 C 
HETATM    3  O   UNL     1     -40.536 -52.563  12.176  1.00  0.00    -0.247 OA
HETATM    4  N   UNL     1     -42.729 -51.906  12.072  1.00  0.00    -0.342 N 
HETATM    5  H   UNL     1     -41.805 -49.927  11.137  1.00  0.00     0.164 HD
HETATM    6  H   UNL     1     -43.295 -51.107  12.323  1.00  0.00     0.164 HD
ENDROOT
BRANCH   1   7
HETATM    7  C   UNL     1     -39.703 -50.076  11.324  1.00  0.00     0.129 C 
BRANCH   7   8
HETATM    8  C   UNL     1     -39.189 -48.793  11.977  1.00  0.00     0.061 C 
BRANCH   8   9
HETATM    9  C   UNL     1     -38.345 -49.037  13.185  1.00  0.00    -0.023 A 
HETATM   10  C   UNL     1     -37.799 -48.111  14.055  1.00  0.00     0.118 A 
HETATM   11  N   UNL     1     -37.109 -48.826  14.991  1.00  0.00    -0.308 N 
HETATM   12  C   UNL     1     -36.372 -48.303  16.116  1.00  0.00     0.177 C 
HETATM   13  N   UNL     1     -37.162 -50.155  14.793  1.00  0.00    -0.310 N 
HETATM   14  C   UNL     1     -37.900 -50.281  13.688  1.00  0.00     0.115 A 
ATOM     15  HN  UNL     1     -36.737 -50.893  15.355  1.00  0.00     0.186 HD
ENDBRANCH   8   9
ENDBRANCH   7   8
ENDBRANCH   1   7
BRANCH   4  16
HETATM   16  C   UNL     1     -43.244 -53.208  12.467  1.00  0.00     0.144 C 
BRANCH  16  17
HETATM   17  C   UNL     1     -44.545 -53.146  13.293  1.00  0.00     0.020 C 
HETATM   18  C   UNL     1     -44.995 -54.577  13.631  1.00  0.00     0.028 C 
HETATM   19  C   UNL     1     -45.672 -52.380  12.574  1.00  0.00     0.022 C 
HETATM   20  C   UNL     1     -46.541 -51.606  13.576  1.00  0.00     0.012 C 
HETATM   21  C   UNL     1     -46.076 -51.839  15.002  1.00  0.00     0.075 C 
HETATM   22  S   UNL     1     -44.320 -52.202  14.842  1.00  0.00    -0.158 SA
ENDBRANCH  16  17
ENDBRANCH   4  16
TORSDOF 5
ENDMDL
MODEL 7
REMARK VINA RESULT:      -5.3      2.859      6.344
REMARK  5 active torsions:
REMARK  status: ('A' for Active; 'I' for Inactive)
REMARK    1  A    between atoms: C_4  and  C_5 
REMARK    2  A    between atoms: C_5  and  C_6 
REMARK    3  A    between atoms: C_6  and  N_7 
REMARK       I    between atoms: N_7  and  C_8 
REMARK       I    between atoms: C_8  and  N_10 
REMARK    4  A    between atoms: N_10  and  C_11 
REMARK    5  A    between atoms: C_11  and  C_12 
ROOT
HETATM    1  N   UNL     1     -42.378 -52.317  11.816  1.00  0.00    -0.343 N 
HETATM    2  C   UNL     1     -41.557 -51.290  12.215  1.00  0.00     0.316 C 
HETATM    3  O   UNL     1     -40.961 -51.269  13.284  1.00  0.00    -0.247 OA
HETATM    4  N   UNL     1     -41.522 -50.277  11.296  1.00  0.00    -0.342 N 
HETATM    5  H   UNL     1     -43.113 -52.037  11.182  1.00  0.00     0.164 HD
HETATM    6  H   UNL     1     -41.678 -50.541  10.333  1.00  0.00     0.164 HD
ENDROOT
BRANCH   1   7
HETATM    7  C   UNL     1     -42.698 -53.352  12.786  1.00  0.00     0.129 C 
BRANCH   7   8
HETATM    8  C   UNL     1     -44.123 -53.892  12.663  1.00  0.00     0.061 C 
BRANCH   8   9
HETATM    9  C   UNL     1     -45.151 -53.005  13.286  1.00  0.00    -0.023 A 
HETATM   10  C   UNL     1     -45.473 -52.870  14.624  1.00  0.00     0.118 A 
HETATM   11  N   UNL     1     -46.474 -51.943  14.685  1.00  0.00    -0.308 N 
HETATM   12  C   UNL     1     -47.140 -51.458  15.869  1.00  0.00     0.177 C 
HETATM   13  N   UNL     1     -46.832 -51.465  13.480  1.00  0.00    -0.310 N 
HETATM   14  C   UNL     1     -46.038 -52.121  12.631  1.00  0.00     0.115 A 
ATOM     15  HN  UNL     1     -47.543 -50.765  13.266  1.00  0.00     0.186 HD
ENDBRANCH   8   9
ENDBRANCH   7   8
ENDBRANCH   1   7
BRANCH   4  16
HETATM   16  C   UNL     1     -40.665 -49.121  11.515  1.00  0.00     0.144 C 
BRANCH  16  17
HETATM   17  C   UNL     1     -41.354 -47.768  11.248  1.00  0.00     0.020 C 
HETATM   18  C   UNL     1     -42.280 -47.906  10.028  1.00  0.00     0.028 C 
HETATM   19  C   UNL     1     -40.350 -46.618  11.037  1.00  0.00     0.022 C 
HETATM   20  C   UNL     1     -40.891 -45.299  11.607  1.00  0.00     0.012 C 
HETATM   21  C   UNL     1     -42.282 -45.481  12.188  1.00  0.00     0.075 C 
HETATM   22  S   UNL     1     -42.331 -47.210  12.688  1.00  0.00    -0.158 SA
ENDBRANCH  16  17
ENDBRANCH   4  16
TORSDOF 5
ENDMDL
MODEL 8
REMARK VINA RESULT:      -5.2      3.530      6.167
REMARK  5 active torsions:
REMARK  status: ('A' for Active; 'I' for Inactive)
REMARK    1  A    between atoms: C_4  and  C_5 
REMARK    2  A    between atoms: C_5  and  C_6 
REMARK    3  A    between atoms: C_6  and  N_7 
REMARK       I    between atoms: N_7  and  C_8 
REMARK       I    between atoms: C_8  and  N_10 
REMARK    4  A    between atoms: N_10  and  C_11 
REMARK    5  A    between atoms: C_11  and  C_12 
ROOT
HETATM    1  N   UNL     1     -41.468 -53.144  12.005  1.00  0.00    -0.343 N 
HETATM    2  C   UNL     1     -40.603 -52.086  12.142  1.00  0.00     0.316 C 
HETATM    3  O   UNL     1     -39.669 -52.067  12.933  1.00  0.00    -0.247 OA
HETATM    4  N   UNL     1     -40.939 -51.041  11.325  1.00  0.00    -0.342 N 
HETATM    5  H   UNL     1     -42.391 -52.887  11.685  1.00  0.00     0.164 HD
HETATM    6  H   UNL     1     -41.415 -51.280  10.467  1.00  0.00     0.164 HD
ENDROOT
BRANCH   1   7
HETATM    7  C   UNL     1     -41.379 -54.231  12.967  1.00  0.00     0.129 C 
BRANCH   7   8
HETATM    8  C   UNL     1     -42.157 -53.975  14.258  1.00  0.00     0.061 C 
BRANCH   8   9
HETATM    9  C   UNL     1     -43.574 -53.561  14.027  1.00  0.00    -0.023 A 
HETATM   10  C   UNL     1     -44.263 -52.501  14.587  1.00  0.00     0.118 A 
HETATM   11  N   UNL     1     -45.523 -52.545  14.063  1.00  0.00    -0.308 N 
HETATM   12  C   UNL     1     -46.611 -51.638  14.338  1.00  0.00     0.177 C 
HETATM   13  N   UNL     1     -45.708 -53.561  13.202  1.00  0.00    -0.310 N 
HETATM   14  C   UNL     1     -44.528 -54.185  13.192  1.00  0.00     0.115 A 
ATOM     15  HN  UNL     1     -46.552 -53.799  12.680  1.00  0.00     0.186 HD
ENDBRANCH   8   9
ENDBRANCH   7   8
ENDBRANCH   1   7
BRANCH   4  16
HETATM   16  C   UNL     1     -40.110 -49.845  11.290  1.00  0.00     0.144 C 
BRANCH  16  17
HETATM   17  C   UNL     1     -40.730 -48.629  12.008  1.00  0.00     0.020 C 
HETATM   18  C   UNL     1     -40.108 -47.341  11.444  1.00  0.00     0.028 C 
HETATM   19  C   UNL     1     -40.558 -48.687  13.538  1.00  0.00     0.022 C 
HETATM   20  C   UNL     1     -41.773 -48.080  14.255  1.00  0.00     0.012 C 
HETATM   21  C   UNL     1     -42.792 -47.554  13.260  1.00  0.00     0.075 C 
HETATM   22  S   UNL     1     -42.545 -48.568  11.794  1.00  0.00    -0.158 SA
ENDBRANCH  16  17
ENDBRANCH   4  16
TORSDOF 5
ENDMDL
MODEL 9
REMARK VINA RESULT:      -5.2      3.454      4.604
REMARK  5 active torsions:
REMARK  status: ('A' for Active; 'I' for Inactive)
REMARK    1  A    between atoms: C_4  and  C_5 
REMARK    2  A    between atoms: C_5  and  C_6 
REMARK    3  A    between atoms: C_6  and  N_7 
REMARK       I    between atoms: N_7  and  C_8 
REMARK       I    between atoms: C_8  and  N_10 
REMARK    4  A    between atoms: N_10  and  C_11 
REMARK    5  A    between atoms: C_11  and  C_12 
ROOT
HETATM    1  N   UNL     1     -41.459 -52.105  11.509  1.00  0.00    -0.343 N 
HETATM    2  C   UNL     1     -41.999 -52.624  12.660  1.00  0.00     0.316 C 
HETATM    3  O   UNL     1     -41.621 -52.326  13.786  1.00  0.00    -0.247 OA
HETATM    4  N   UNL     1     -42.975 -53.547  12.397  1.00  0.00    -0.342 N 
HETATM    5  H   UNL     1     -41.527 -52.716  10.707  1.00  0.00     0.164 HD
HETATM    6  H   UNL     1     -43.485 -53.423  11.534  1.00  0.00     0.164 HD
ENDROOT
BRANCH   1   7
HETATM    7  C   UNL     1     -40.260 -51.290  11.622  1.00  0.00     0.129 C 
BRANCH   7   8
HETATM    8  C   UNL     1     -40.464 -49.832  11.211  1.00  0.00     0.061 C 
BRANCH   8   9
HETATM    9  C   UNL     1     -39.955 -48.853  12.218  1.00  0.00    -0.023 A 
HETATM   10  C   UNL     1     -39.870 -47.477  12.114  1.00  0.00     0.118 A 
HETATM   11  N   UNL     1     -39.336 -47.037  13.290  1.00  0.00    -0.308 N 
HETATM   12  C   UNL     1     -39.060 -45.670  13.663  1.00  0.00     0.177 C 
HETATM   13  N   UNL     1     -39.060 -48.028  14.155  1.00  0.00    -0.310 N 
HETATM   14  C   UNL     1     -39.423 -49.131  13.498  1.00  0.00     0.115 A 
ATOM     15  HN  UNL     1     -38.666 -47.955  15.094  1.00  0.00     0.186 HD
ENDBRANCH   8   9
ENDBRANCH   7   8
ENDBRANCH   1   7
BRANCH   4  16
HETATM   16  C   UNL     1     -43.703 -54.172  13.491  1.00  0.00     0.144 C 
BRANCH  16  17
HETATM   17  C   UNL     1     -45.090 -53.553  13.758  1.00  0.00     0.020 C 
HETATM   18  C   UNL     1     -46.053 -54.658  14.226  1.00  0.00     0.028 C 
HETATM   19  C   UNL     1     -45.663 -52.820  12.530  1.00  0.00     0.022 C 
HETATM   20  C   UNL     1     -46.480 -51.590  12.951  1.00  0.00     0.012 C 
HETATM   21  C   UNL     1     -46.530 -51.454  14.462  1.00  0.00     0.075 C 
HETATM   22  S   UNL     1     -45.013 -52.241  15.029  1.00  0.00    -0.158 SA
ENDBRANCH  16  17
ENDBRANCH   4  16
TORSDOF 5
ENDMDL
