MODEL 1
REMARK VINA RESULT:      -5.7      0.000      0.000
REMARK  2 active torsions:
REMARK  status: ('A' for Active; 'I' for Inactive)
REMARK    1  A    between atoms: C_7  and  N_8 
REMARK    2  A    between atoms: N_8  and  C_9 
ROOT
HETATM    1  C   UNL     1     -46.981 -47.641   9.179  1.00  0.00     0.068 C 
HETATM    2  C   UNL     1     -45.559 -47.334   8.824  1.00  0.00     0.009 A 
HETATM    3  C   UNL     1     -44.863 -48.108   7.924  1.00  0.00     0.041 A 
HETATM    4  C   UNL     1     -43.547 -47.764   7.738  1.00  0.00     0.092 A 
HETATM    5  N   UNL     1     -42.945 -46.748   8.384  1.00  0.00    -0.343 N 
ATOM      6  HN  UNL     1     -41.954 -46.544   8.249  1.00  0.00     0.167 HD
HETATM    7  C   UNL     1     -43.702 -46.018   9.208  1.00  0.00     0.157 A 
HETATM    8  N   UNL     1     -44.992 -46.288   9.463  1.00  0.00    -0.337 N 
ATOM      9  HN  UNL     1     -45.527 -45.720  10.119  1.00  0.00     0.168 HD
ENDROOT
BRANCH   7  10
HETATM   10  N   UNL     1     -43.056 -44.997   9.910  1.00  0.00    -0.257 NA
HETATM   11  H   UNL     1     -42.311 -44.721   9.275  1.00  0.00     0.131 HD
BRANCH  10  12
HETATM   12  C   UNL     1     -42.514 -45.419  11.197  1.00  0.00     0.094 C 
HETATM   13  C   UNL     1     -42.356 -44.252  12.185  1.00  0.00     0.054 C 
HETATM   14  C   UNL     1     -40.904 -44.409  12.649  1.00  0.00     0.123 C 
HETATM   15  C   UNL     1     -39.939 -43.876  11.597  1.00  0.00     0.034 C 
HETATM   16  O   UNL     1     -40.678 -45.833  12.508  1.00  0.00    -0.379 OA
HETATM   17  C   UNL     1     -40.110 -44.900  10.475  1.00  0.00     0.036 C 
HETATM   18  C   UNL     1     -41.062 -45.921  11.110  1.00  0.00     0.140 C 
ENDBRANCH  10  12
ENDBRANCH   7  10
TORSDOF 2
ENDMDL
MODEL 2
REMARK VINA RESULT:      -5.6      6.803      7.332
REMARK  2 active torsions:
REMARK  status: ('A' for Active; 'I' for Inactive)
REMARK    1  A    between atoms: C_7  and  N_8 
REMARK    2  A    between atoms: N_8  and  C_9 
ROOT
HETATM    1  C   UNL     1     -42.575 -55.127  15.141  1.00  0.00     0.068 C 
HETATM    2  C   UNL     1     -42.590 -54.186  13.976  1.00  0.00     0.009 A 
HETATM    3  C   UNL     1     -43.736 -53.969  13.247  1.00  0.00     0.041 A 
HETATM    4  C   UNL     1     -43.601 -53.138  12.162  1.00  0.00     0.092 A 
HETATM    5  N   UNL     1     -42.437 -52.566  11.803  1.00  0.00    -0.343 N 
ATOM      6  HN  UNL     1     -42.365 -51.985  10.968  1.00  0.00     0.167 HD
HETATM    7  C   UNL     1     -41.380 -52.793  12.589  1.00  0.00     0.157 A 
HETATM    8  N   UNL     1     -41.415 -53.600  13.661  1.00  0.00    -0.337 N 
ATOM      9  HN  UNL     1     -40.578 -53.766  14.220  1.00  0.00     0.168 HD
ENDROOT
BRANCH   7  10
HETATM   10  N   UNL     1     -40.167 -52.234  12.180  1.00  0.00    -0.257 NA
HETATM   11  H   UNL     1     -39.479 -52.849  12.608  1.00  0.00     0.131 HD
BRANCH  10  12
HETATM   12  C   UNL     1     -39.977 -50.855  12.615  1.00  0.00     0.094 C 
HETATM   13  C   UNL     1     -39.942 -49.863  11.442  1.00  0.00     0.054 C 
HETATM   14  C   UNL     1     -38.656 -49.075  11.716  1.00  0.00     0.123 C 
HETATM   15  C   UNL     1     -37.431 -49.879  11.297  1.00  0.00     0.034 C 
HETATM   16  O   UNL     1     -38.536 -49.154  13.157  1.00  0.00    -0.379 OA
HETATM   17  C   UNL     1     -37.434 -51.004  12.331  1.00  0.00     0.036 C 
HETATM   18  C   UNL     1     -38.596 -50.603  13.246  1.00  0.00     0.140 C 
ENDBRANCH  10  12
ENDBRANCH   7  10
TORSDOF 2
ENDMDL
MODEL 3
REMARK VINA RESULT:      -5.4      6.513      8.184
REMARK  2 active torsions:
REMARK  status: ('A' for Active; 'I' for Inactive)
REMARK    1  A    between atoms: C_7  and  N_8 
REMARK    2  A    between atoms: N_8  and  C_9 
ROOT
HETATM    1  C   UNL     1     -37.719 -50.191  11.898  1.00  0.00     0.068 C 
HETATM    2  C   UNL     1     -39.200 -50.052  11.726  1.00  0.00     0.009 A 
HETATM    3  C   UNL     1     -39.789 -48.819  11.568  1.00  0.00     0.041 A 
HETATM    4  C   UNL     1     -41.160 -48.821  11.491  1.00  0.00     0.092 A 
HETATM    5  N   UNL     1     -41.908 -49.937  11.570  1.00  0.00    -0.343 N 
ATOM      6  HN  UNL     1     -42.927 -49.898  11.547  1.00  0.00     0.167 HD
HETATM    7  C   UNL     1     -41.256 -51.099  11.679  1.00  0.00     0.157 A 
HETATM    8  N   UNL     1     -39.921 -51.193  11.775  1.00  0.00    -0.337 N 
ATOM      9  HN  UNL     1     -39.465 -52.099  11.883  1.00  0.00     0.168 HD
ENDROOT
BRANCH   7  10
HETATM   10  N   UNL     1     -42.043 -52.246  11.809  1.00  0.00    -0.257 NA
HETATM   11  H   UNL     1     -42.885 -52.003  11.294  1.00  0.00     0.131 HD
BRANCH  10  12
HETATM   12  C   UNL     1     -42.357 -52.591  13.191  1.00  0.00     0.094 C 
HETATM   13  C   UNL     1     -42.274 -54.103  13.458  1.00  0.00     0.054 C 
HETATM   14  C   UNL     1     -43.621 -54.392  14.129  1.00  0.00     0.123 C 
HETATM   15  C   UNL     1     -44.737 -54.462  13.093  1.00  0.00     0.034 C 
HETATM   16  O   UNL     1     -43.938 -53.129  14.764  1.00  0.00    -0.379 OA
HETATM   17  C   UNL     1     -44.825 -53.006  12.637  1.00  0.00     0.036 C 
HETATM   18  C   UNL     1     -43.823 -52.313  13.567  1.00  0.00     0.140 C 
ENDBRANCH  10  12
ENDBRANCH   7  10
TORSDOF 2
ENDMDL
MODEL 4
REMARK VINA RESULT:      -5.2      7.875      9.413
REMARK  2 active torsions:
REMARK  status: ('A' for Active; 'I' for Inactive)
REMARK    1  A    between atoms: C_7  and  N_8 
REMARK    2  A    between atoms: N_8  and  C_9 
ROOT
HETATM    1  C   UNL     1     -39.204 -53.535  14.150  1.00  0.00     0.068 C 
HETATM    2  C   UNL     1     -40.304 -52.939  13.326  1.00  0.00     0.009 A 
HETATM    3  C   UNL     1     -40.154 -51.717  12.713  1.00  0.00     0.041 A 
HETATM    4  C   UNL     1     -41.260 -51.249  12.045  1.00  0.00     0.092 A 
HETATM    5  N   UNL     1     -42.428 -51.913  11.983  1.00  0.00    -0.343 N 
ATOM      6  HN  UNL     1     -43.241 -51.518  11.510  1.00  0.00     0.167 HD
HETATM    7  C   UNL     1     -42.476 -53.114  12.568  1.00  0.00     0.157 A 
HETATM    8  N   UNL     1     -41.452 -53.645  13.254  1.00  0.00    -0.337 N 
ATOM      9  HN  UNL     1     -41.540 -54.554  13.708  1.00  0.00     0.168 HD
ENDROOT
BRANCH   7  10
HETATM   10  N   UNL     1     -43.707 -53.773  12.540  1.00  0.00    -0.257 NA
HETATM   11  H   UNL     1     -44.345 -53.050  12.218  1.00  0.00     0.131 HD
BRANCH  10  12
HETATM   12  C   UNL     1     -44.124 -54.299  13.835  1.00  0.00     0.094 C 
HETATM   13  C   UNL     1     -45.449 -55.076  13.762  1.00  0.00     0.054 C 
HETATM   14  C   UNL     1     -46.273 -54.427  14.879  1.00  0.00     0.123 C 
HETATM   15  C   UNL     1     -46.836 -53.085  14.426  1.00  0.00     0.034 C 
HETATM   16  O   UNL     1     -45.254 -53.979  15.806  1.00  0.00    -0.379 OA
HETATM   17  C   UNL     1     -45.568 -52.238  14.325  1.00  0.00     0.036 C 
HETATM   18  C   UNL     1     -44.493 -53.198  14.846  1.00  0.00     0.140 C 
ENDBRANCH  10  12
ENDBRANCH   7  10
TORSDOF 2
ENDMDL
MODEL 5
REMARK VINA RESULT:      -5.2      4.315      5.688
REMARK  2 active torsions:
REMARK  status: ('A' for Active; 'I' for Inactive)
REMARK    1  A    between atoms: C_7  and  N_8 
REMARK    2  A    between atoms: N_8  and  C_9 
ROOT
HETATM    1  C   UNL     1     -40.636 -44.954  10.581  1.00  0.00     0.068 C 
HETATM    2  C   UNL     1     -41.225 -46.330  10.618  1.00  0.00     0.009 A 
HETATM    3  C   UNL     1     -42.586 -46.525  10.626  1.00  0.00     0.041 A 
HETATM    4  C   UNL     1     -42.998 -47.831  10.732  1.00  0.00     0.092 A 
HETATM    5  N   UNL     1     -42.152 -48.873  10.832  1.00  0.00    -0.343 N 
ATOM      6  HN  UNL     1     -42.494 -49.827  10.948  1.00  0.00     0.167 HD
HETATM    7  C   UNL     1     -40.845 -48.602  10.773  1.00  0.00     0.157 A 
HETATM    8  N   UNL     1     -40.350 -47.357  10.684  1.00  0.00    -0.337 N 
ATOM      9  HN  UNL     1     -39.344 -47.193  10.667  1.00  0.00     0.168 HD
ENDROOT
BRANCH   7  10
HETATM   10  N   UNL     1     -39.975 -49.684  10.927  1.00  0.00    -0.257 NA
HETATM   11  H   UNL     1     -40.572 -50.397  11.339  1.00  0.00     0.131 HD
BRANCH  10  12
HETATM   12  C   UNL     1     -38.829 -49.401  11.784  1.00  0.00     0.094 C 
HETATM   13  C   UNL     1     -37.720 -50.457  11.658  1.00  0.00     0.054 C 
HETATM   14  C   UNL     1     -37.456 -50.833  13.120  1.00  0.00     0.123 C 
HETATM   15  C   UNL     1     -38.533 -51.778  13.638  1.00  0.00     0.034 C 
HETATM   16  O   UNL     1     -37.812 -49.621  13.829  1.00  0.00    -0.379 OA
HETATM   17  C   UNL     1     -39.754 -50.859  13.679  1.00  0.00     0.036 C 
HETATM   18  C   UNL     1     -39.154 -49.504  13.285  1.00  0.00     0.140 C 
ENDBRANCH  10  12
ENDBRANCH   7  10
TORSDOF 2
ENDMDL
MODEL 6
REMARK VINA RESULT:      -5.2      4.519      6.186
REMARK  2 active torsions:
REMARK  status: ('A' for Active; 'I' for Inactive)
REMARK    1  A    between atoms: C_7  and  N_8 
REMARK    2  A    between atoms: N_8  and  C_9 
ROOT
HETATM    1  C   UNL     1     -39.084 -52.122  14.266  1.00  0.00     0.068 C 
HETATM    2  C   UNL     1     -38.835 -51.298  13.040  1.00  0.00     0.009 A 
HETATM    3  C   UNL     1     -37.557 -51.035  12.603  1.00  0.00     0.041 A 
HETATM    4  C   UNL     1     -37.462 -50.211  11.509  1.00  0.00     0.092 A 
HETATM    5  N   UNL     1     -38.527 -49.672  10.888  1.00  0.00    -0.343 N 
ATOM      6  HN  UNL     1     -38.417 -49.033  10.101  1.00  0.00     0.167 HD
HETATM    7  C   UNL     1     -39.735 -50.012  11.348  1.00  0.00     0.157 A 
HETATM    8  N   UNL     1     -39.925 -50.799  12.418  1.00  0.00    -0.337 N 
ATOM      9  HN  UNL     1     -40.864 -51.014  12.752  1.00  0.00     0.168 HD
ENDROOT
BRANCH   7  10
HETATM   10  N   UNL     1     -40.832 -49.409  10.728  1.00  0.00    -0.257 NA
HETATM   11  H   UNL     1     -40.500 -49.257   9.779  1.00  0.00     0.131 HD
BRANCH  10  12
HETATM   12  C   UNL     1     -41.241 -48.153  11.346  1.00  0.00     0.094 C 
HETATM   13  C   UNL     1     -42.512 -48.298  12.199  1.00  0.00     0.054 C 
HETATM   14  C   UNL     1     -43.398 -47.169  11.662  1.00  0.00     0.123 C 
HETATM   15  C   UNL     1     -44.035 -47.566  10.336  1.00  0.00     0.034 C 
HETATM   16  O   UNL     1     -42.429 -46.196  11.202  1.00  0.00    -0.379 OA
HETATM   17  C   UNL     1     -42.822 -47.592   9.408  1.00  0.00     0.036 C 
HETATM   18  C   UNL     1     -41.699 -47.096  10.326  1.00  0.00     0.140 C 
ENDBRANCH  10  12
ENDBRANCH   7  10
TORSDOF 2
ENDMDL
MODEL 7
REMARK VINA RESULT:      -5.1      7.276      7.926
REMARK  2 active torsions:
REMARK  status: ('A' for Active; 'I' for Inactive)
REMARK    1  A    between atoms: C_7  and  N_8 
REMARK    2  A    between atoms: N_8  and  C_9 
ROOT
HETATM    1  C   UNL     1     -46.961 -51.534  15.112  1.00  0.00     0.068 C 
HETATM    2  C   UNL     1     -46.221 -52.633  14.413  1.00  0.00     0.009 A 
HETATM    3  C   UNL     1     -46.504 -53.955  14.662  1.00  0.00     0.041 A 
HETATM    4  C   UNL     1     -45.708 -54.865  14.010  1.00  0.00     0.092 A 
HETATM    5  N   UNL     1     -44.704 -54.519  13.184  1.00  0.00    -0.343 N 
ATOM      6  HN  UNL     1     -44.108 -55.221  12.747  1.00  0.00     0.167 HD
HETATM    7  C   UNL     1     -44.523 -53.213  12.962  1.00  0.00     0.157 A 
HETATM    8  N   UNL     1     -45.242 -52.253  13.564  1.00  0.00    -0.337 N 
ATOM      9  HN  UNL     1     -45.054 -51.267  13.386  1.00  0.00     0.168 HD
ENDROOT
BRANCH   7  10
HETATM   10  N   UNL     1     -43.448 -52.863  12.142  1.00  0.00    -0.257 NA
HETATM   11  H   UNL     1     -43.644 -53.368  11.282  1.00  0.00     0.131 HD
BRANCH  10  12
HETATM   12  C   UNL     1     -42.146 -53.238  12.684  1.00  0.00     0.094 C 
HETATM   13  C   UNL     1     -41.922 -52.709  14.110  1.00  0.00     0.054 C 
HETATM   14  C   UNL     1     -40.560 -52.017  13.993  1.00  0.00     0.123 C 
HETATM   15  C   UNL     1     -40.700 -50.655  13.324  1.00  0.00     0.034 C 
HETATM   16  O   UNL     1     -39.916 -52.761  12.930  1.00  0.00    -0.379 OA
HETATM   17  C   UNL     1     -41.068 -51.051  11.894  1.00  0.00     0.036 C 
HETATM   18  C   UNL     1     -40.968 -52.580  11.945  1.00  0.00     0.140 C 
ENDBRANCH  10  12
ENDBRANCH   7  10
TORSDOF 2
ENDMDL
MODEL 8
REMARK VINA RESULT:      -5.0      6.808      7.512
REMARK  2 active torsions:
REMARK  status: ('A' for Active; 'I' for Inactive)
REMARK    1  A    between atoms: C_7  and  N_8 
REMARK    2  A    between atoms: N_8  and  C_9 
ROOT
HETATM    1  C   UNL     1     -46.075 -50.930  16.560  1.00  0.00     0.068 C 
HETATM    2  C   UNL     1     -45.849 -51.146  15.095  1.00  0.00     0.009 A 
HETATM    3  C   UNL     1     -46.848 -51.625  14.281  1.00  0.00     0.041 A 
HETATM    4  C   UNL     1     -46.494 -51.845  12.973  1.00  0.00     0.092 A 
HETATM    5  N   UNL     1     -45.257 -51.624  12.490  1.00  0.00    -0.343 N 
ATOM      6  HN  UNL     1     -45.019 -51.835  11.521  1.00  0.00     0.167 HD
HETATM    7  C   UNL     1     -44.356 -51.117  13.336  1.00  0.00     0.157 A 
HETATM    8  N   UNL     1     -44.608 -50.883  14.633  1.00  0.00    -0.337 N 
ATOM      9  HN  UNL     1     -43.883 -50.518  15.251  1.00  0.00     0.168 HD
ENDROOT
BRANCH   7  10
HETATM   10  N   UNL     1     -43.063 -50.938  12.838  1.00  0.00    -0.257 NA
HETATM   11  H   UNL     1     -43.207 -50.303  12.056  1.00  0.00     0.131 HD
BRANCH  10  12
HETATM   12  C   UNL     1     -42.426 -52.173  12.396  1.00  0.00     0.094 C 
HETATM   13  C   UNL     1     -42.259 -53.194  13.533  1.00  0.00     0.054 C 
HETATM   14  C   UNL     1     -40.776 -53.564  13.428  1.00  0.00     0.123 C 
HETATM   15  C   UNL     1     -39.903 -52.478  14.044  1.00  0.00     0.034 C 
HETATM   16  O   UNL     1     -40.495 -53.355  12.023  1.00  0.00    -0.379 OA
HETATM   17  C   UNL     1     -40.096 -51.330  13.054  1.00  0.00     0.036 C 
HETATM   18  C   UNL     1     -40.960 -51.980  11.967  1.00  0.00     0.140 C 
ENDBRANCH  10  12
ENDBRANCH   7  10
TORSDOF 2
ENDMDL
MODEL 9
REMARK VINA RESULT:      -4.9      6.071      6.753
REMARK  2 active torsions:
REMARK  status: ('A' for Active; 'I' for Inactive)
REMARK    1  A    between atoms: C_7  and  N_8 
REMARK    2  A    between atoms: N_8  and  C_9 
ROOT
HETATM    1  C   UNL     1     -46.932 -51.891  11.761  1.00  0.00     0.068 C 
HETATM    2  C   UNL     1     -46.121 -51.549  12.973  1.00  0.00     0.009 A 
HETATM    3  C   UNL     1     -46.687 -51.520  14.226  1.00  0.00     0.041 A 
HETATM    4  C   UNL     1     -45.854 -51.124  15.244  1.00  0.00     0.092 A 
HETATM    5  N   UNL     1     -44.568 -50.773  15.060  1.00  0.00    -0.343 N 
ATOM      6  HN  UNL     1     -43.989 -50.447  15.834  1.00  0.00     0.167 HD
HETATM    7  C   UNL     1     -44.083 -50.871  13.818  1.00  0.00     0.157 A 
HETATM    8  N   UNL     1     -44.825 -51.235  12.760  1.00  0.00    -0.337 N 
ATOM      9  HN  UNL     1     -44.422 -51.272  11.824  1.00  0.00     0.168 HD
ENDROOT
BRANCH   7  10
HETATM   10  N   UNL     1     -42.762 -50.459  13.629  1.00  0.00    -0.257 NA
HETATM   11  H   UNL     1     -42.816 -49.909  12.775  1.00  0.00     0.131 HD
BRANCH  10  12
HETATM   12  C   UNL     1     -41.816 -51.559  13.483  1.00  0.00     0.094 C 
HETATM   13  C   UNL     1     -40.545 -51.363  14.324  1.00  0.00     0.054 C 
HETATM   14  C   UNL     1     -39.432 -51.587  13.295  1.00  0.00     0.123 C 
HETATM   15  C   UNL     1     -39.250 -50.354  12.419  1.00  0.00     0.034 C 
HETATM   16  O   UNL     1     -40.053 -52.488  12.346  1.00  0.00    -0.379 OA
HETATM   17  C   UNL     1     -40.546 -50.358  11.609  1.00  0.00     0.036 C 
HETATM   18  C   UNL     1     -41.214 -51.658  12.071  1.00  0.00     0.140 C 
ENDBRANCH  10  12
ENDBRANCH   7  10
TORSDOF 2
ENDMDL
