MODEL 1
REMARK VINA RESULT:      -5.4      0.000      0.000
REMARK  2 active torsions:
REMARK  status: ('A' for Active; 'I' for Inactive)
REMARK       I    between atoms: N_2  and  C_3 
REMARK    1  A    between atoms: C_3  and  C_5 
REMARK    2  A    between atoms: N_7  and  C_11 
ROOT
HETATM    1  C   UNL     1     -41.166 -53.178  12.669  1.00  0.00     0.231 C 
HETATM    2  C   UNL     1     -42.482 -53.879  13.051  1.00  0.00     0.166 C 
HETATM    3  N   UNL     1     -43.013 -53.332  14.312  1.00  0.00    -0.362 N 
HETATM    4  C   UNL     1     -42.038 -53.350  15.411  1.00  0.00     0.150 C 
HETATM    5  C   UNL     1     -40.714 -52.714  14.955  1.00  0.00     0.189 C 
HETATM    6  O   UNL     1     -40.217 -53.319  13.749  1.00  0.00    -0.373 OA
ENDROOT
BRANCH   3   7
HETATM    7  C   UNL     1     -44.207 -52.648  14.316  1.00  0.00     0.103 A 
HETATM    8  C   UNL     1     -44.775 -52.128  15.477  1.00  0.00     0.048 A 
HETATM    9  C   UNL     1     -46.001 -51.465  15.431  1.00  0.00     0.006 A 
HETATM   10  C   UNL     1     -46.672 -51.360  14.226  1.00  0.00     0.025 A 
HETATM   11  C   UNL     1     -46.081 -51.913  13.103  1.00  0.00     0.007 A 
HETATM   12  C   UNL     1     -46.802 -51.923  11.789  1.00  0.00     0.068 C 
HETATM   13  N   UNL     1     -44.861 -52.513  13.136  1.00  0.00    -0.346 N 
ATOM     14  HN  UNL     1     -44.439 -52.860  12.275  1.00  0.00     0.167 HD
ENDBRANCH   3   7
BRANCH   1  15
HETATM   15  C   UNL     1     -41.280 -51.716  12.162  1.00  0.00     0.247 C 
HETATM   16  N   UNL     1     -40.133 -51.123  11.674  1.00  0.00    -0.363 N 
HETATM   17  C   UNL     1     -40.202 -49.774  11.170  1.00  0.00     0.149 C 
HETATM   18  H   UNL     1     -39.448 -51.733  11.230  1.00  0.00     0.162 HD
HETATM   19  O   UNL     1     -42.339 -51.087  12.248  1.00  0.00    -0.271 OA
ENDBRANCH   1  15
TORSDOF 2
ENDMDL
MODEL 2
REMARK VINA RESULT:      -5.1      1.874      2.404
REMARK  2 active torsions:
REMARK  status: ('A' for Active; 'I' for Inactive)
REMARK       I    between atoms: N_2  and  C_3 
REMARK    1  A    between atoms: C_3  and  C_5 
REMARK    2  A    between atoms: N_7  and  C_11 
ROOT
HETATM    1  C   UNL     1     -40.541 -51.293  12.514  1.00  0.00     0.231 C 
HETATM    2  C   UNL     1     -41.497 -52.257  11.789  1.00  0.00     0.166 C 
HETATM    3  N   UNL     1     -41.849 -53.391  12.662  1.00  0.00    -0.362 N 
HETATM    4  C   UNL     1     -40.678 -54.085  13.214  1.00  0.00     0.150 C 
HETATM    5  C   UNL     1     -39.714 -53.072  13.854  1.00  0.00     0.189 C 
HETATM    6  O   UNL     1     -39.366 -52.015  12.944  1.00  0.00    -0.373 OA
ENDROOT
BRANCH   3   7
HETATM    7  C   UNL     1     -43.147 -53.556  13.084  1.00  0.00     0.103 A 
HETATM    8  C   UNL     1     -43.526 -54.544  13.991  1.00  0.00     0.048 A 
HETATM    9  C   UNL     1     -44.861 -54.686  14.368  1.00  0.00     0.006 A 
HETATM   10  C   UNL     1     -45.817 -53.861  13.805  1.00  0.00     0.025 A 
HETATM   11  C   UNL     1     -45.399 -52.910  12.891  1.00  0.00     0.007 A 
HETATM   12  C   UNL     1     -46.396 -52.055  12.168  1.00  0.00     0.068 C 
HETATM   13  N   UNL     1     -44.091 -52.734  12.561  1.00  0.00    -0.346 N 
ATOM     14  HN  UNL     1     -43.820 -51.986  11.924  1.00  0.00     0.167 HD
ENDBRANCH   3   7
BRANCH   1  15
HETATM   15  C   UNL     1     -41.155 -50.427  13.646  1.00  0.00     0.247 C 
HETATM   16  N   UNL     1     -40.282 -49.730  14.457  1.00  0.00    -0.363 N 
HETATM   17  C   UNL     1     -40.814 -48.894  15.503  1.00  0.00     0.149 C 
HETATM   18  H   UNL     1     -39.407 -49.419  14.036  1.00  0.00     0.162 HD
HETATM   19  O   UNL     1     -42.372 -50.410  13.854  1.00  0.00    -0.271 OA
ENDBRANCH   1  15
TORSDOF 2
ENDMDL
MODEL 3
REMARK VINA RESULT:      -5.1      2.592      5.329
REMARK  2 active torsions:
REMARK  status: ('A' for Active; 'I' for Inactive)
REMARK       I    between atoms: N_2  and  C_3 
REMARK    1  A    between atoms: C_3  and  C_5 
REMARK    2  A    between atoms: N_7  and  C_11 
ROOT
HETATM    1  C   UNL     1     -46.095 -54.193  14.908  1.00  0.00     0.231 C 
HETATM    2  C   UNL     1     -45.338 -54.636  13.642  1.00  0.00     0.166 C 
HETATM    3  N   UNL     1     -44.806 -53.466  12.921  1.00  0.00    -0.362 N 
HETATM    4  C   UNL     1     -45.826 -52.451  12.627  1.00  0.00     0.150 C 
HETATM    5  C   UNL     1     -46.609 -52.102  13.905  1.00  0.00     0.189 C 
HETATM    6  O   UNL     1     -47.147 -53.274  14.540  1.00  0.00    -0.373 OA
ENDROOT
BRANCH   3   7
HETATM    7  C   UNL     1     -43.447 -53.289  12.806  1.00  0.00     0.103 A 
HETATM    8  C   UNL     1     -42.524 -54.259  13.192  1.00  0.00     0.048 A 
HETATM    9  C   UNL     1     -41.155 -54.020  13.080  1.00  0.00     0.006 A 
HETATM   10  C   UNL     1     -40.715 -52.793  12.617  1.00  0.00     0.025 A 
HETATM   11  C   UNL     1     -41.668 -51.851  12.268  1.00  0.00     0.007 A 
HETATM   12  C   UNL     1     -41.258 -50.469  11.857  1.00  0.00     0.068 C 
HETATM   13  N   UNL     1     -43.003 -52.101  12.326  1.00  0.00    -0.346 N 
ATOM     14  HN  UNL     1     -43.669 -51.397  12.009  1.00  0.00     0.167 HD
ENDBRANCH   3   7
BRANCH   1  15
HETATM   15  C   UNL     1     -45.230 -53.670  16.086  1.00  0.00     0.247 C 
HETATM   16  N   UNL     1     -44.007 -54.275  16.291  1.00  0.00    -0.363 N 
HETATM   17  C   UNL     1     -43.162 -53.803  17.359  1.00  0.00     0.149 C 
HETATM   18  H   UNL     1     -43.527 -54.643  15.470  1.00  0.00     0.162 HD
HETATM   19  O   UNL     1     -45.646 -52.792  16.848  1.00  0.00    -0.271 OA
ENDBRANCH   1  15
TORSDOF 2
ENDMDL
MODEL 4
REMARK VINA RESULT:      -5.0      2.959      5.942
REMARK  2 active torsions:
REMARK  status: ('A' for Active; 'I' for Inactive)
REMARK       I    between atoms: N_2  and  C_3 
REMARK    1  A    between atoms: C_3  and  C_5 
REMARK    2  A    between atoms: N_7  and  C_11 
ROOT
HETATM    1  C   UNL     1     -46.282 -54.263  14.672  1.00  0.00     0.231 C 
HETATM    2  C   UNL     1     -45.215 -55.015  13.856  1.00  0.00     0.166 C 
HETATM    3  N   UNL     1     -44.151 -54.093  13.421  1.00  0.00    -0.362 N 
HETATM    4  C   UNL     1     -44.659 -52.911  12.712  1.00  0.00     0.150 C 
HETATM    5  C   UNL     1     -45.778 -52.243  13.528  1.00  0.00     0.189 C 
HETATM    6  O   UNL     1     -46.813 -53.176  13.882  1.00  0.00    -0.373 OA
ENDROOT
BRANCH   3   7
HETATM    7  C   UNL     1     -42.870 -54.248  13.898  1.00  0.00     0.103 A 
HETATM    8  C   UNL     1     -41.745 -53.822  13.195  1.00  0.00     0.048 A 
HETATM    9  C   UNL     1     -40.466 -54.026  13.710  1.00  0.00     0.006 A 
HETATM   10  C   UNL     1     -40.317 -54.692  14.913  1.00  0.00     0.025 A 
HETATM   11  C   UNL     1     -41.461 -55.119  15.566  1.00  0.00     0.007 A 
HETATM   12  C   UNL     1     -41.364 -55.934  16.820  1.00  0.00     0.068 C 
HETATM   13  N   UNL     1     -42.712 -54.874  15.091  1.00  0.00    -0.346 N 
ATOM     14  HN  UNL     1     -43.528 -55.159  15.630  1.00  0.00     0.167 HD
ENDBRANCH   3   7
BRANCH   1  15
HETATM   15  C   UNL     1     -45.876 -53.819  16.102  1.00  0.00     0.247 C 
HETATM   16  N   UNL     1     -46.497 -52.700  16.619  1.00  0.00    -0.363 N 
HETATM   17  C   UNL     1     -46.167 -52.268  17.954  1.00  0.00     0.149 C 
HETATM   18  H   UNL     1     -47.452 -52.517  16.313  1.00  0.00     0.162 HD
HETATM   19  O   UNL     1     -44.987 -54.404  16.729  1.00  0.00    -0.271 OA
ENDBRANCH   1  15
TORSDOF 2
ENDMDL
MODEL 5
REMARK VINA RESULT:      -4.9      1.860      3.320
REMARK  2 active torsions:
REMARK  status: ('A' for Active; 'I' for Inactive)
REMARK       I    between atoms: N_2  and  C_3 
REMARK    1  A    between atoms: C_3  and  C_5 
REMARK    2  A    between atoms: N_7  and  C_11 
ROOT
HETATM    1  C   UNL     1     -40.526 -52.170  14.495  1.00  0.00     0.231 C 
HETATM    2  C   UNL     1     -41.663 -51.187  14.163  1.00  0.00     0.166 C 
HETATM    3  N   UNL     1     -42.539 -51.743  13.117  1.00  0.00    -0.362 N 
HETATM    4  C   UNL     1     -41.811 -52.172  11.915  1.00  0.00     0.150 C 
HETATM    5  C   UNL     1     -40.636 -53.084  12.306  1.00  0.00     0.189 C 
HETATM    6  O   UNL     1     -39.787 -52.472  13.291  1.00  0.00    -0.373 OA
ENDROOT
BRANCH   3   7
HETATM    7  C   UNL     1     -43.849 -52.047  13.407  1.00  0.00     0.103 A 
HETATM    8  C   UNL     1     -44.800 -51.075  13.711  1.00  0.00     0.048 A 
HETATM    9  C   UNL     1     -46.110 -51.437  14.023  1.00  0.00     0.006 A 
HETATM   10  C   UNL     1     -46.452 -52.777  14.068  1.00  0.00     0.025 A 
HETATM   11  C   UNL     1     -45.469 -53.709  13.783  1.00  0.00     0.007 A 
HETATM   12  C   UNL     1     -45.747 -55.175  13.914  1.00  0.00     0.068 C 
HETATM   13  N   UNL     1     -44.205 -53.356  13.426  1.00  0.00    -0.346 N 
ATOM     14  HN  UNL     1     -43.526 -54.073  13.172  1.00  0.00     0.167 HD
ENDBRANCH   3   7
BRANCH   1  15
HETATM   15  C   UNL     1     -40.919 -53.443  15.290  1.00  0.00     0.247 C 
HETATM   16  N   UNL     1     -39.920 -54.357  15.559  1.00  0.00    -0.363 N 
HETATM   17  C   UNL     1     -40.239 -55.541  16.317  1.00  0.00     0.149 C 
HETATM   18  H   UNL     1     -38.976 -53.990  15.675  1.00  0.00     0.162 HD
HETATM   19  O   UNL     1     -42.090 -53.661  15.616  1.00  0.00    -0.271 OA
ENDBRANCH   1  15
TORSDOF 2
ENDMDL
MODEL 6
REMARK VINA RESULT:      -4.9      5.526      7.974
REMARK  2 active torsions:
REMARK  status: ('A' for Active; 'I' for Inactive)
REMARK       I    between atoms: N_2  and  C_3 
REMARK    1  A    between atoms: C_3  and  C_5 
REMARK    2  A    between atoms: N_7  and  C_11 
ROOT
HETATM    1  C   UNL     1     -42.433 -44.269  11.236  1.00  0.00     0.231 C 
HETATM    2  C   UNL     1     -42.337 -45.513  10.334  1.00  0.00     0.166 C 
HETATM    3  N   UNL     1     -41.002 -46.129  10.441  1.00  0.00    -0.362 N 
HETATM    4  C   UNL     1     -39.904 -45.183  10.198  1.00  0.00     0.150 C 
HETATM    5  C   UNL     1     -40.090 -43.923  11.061  1.00  0.00     0.189 C 
HETATM    6  O   UNL     1     -41.390 -43.337  10.879  1.00  0.00    -0.373 OA
ENDROOT
BRANCH   3   7
HETATM    7  C   UNL     1     -40.867 -47.388  10.979  1.00  0.00     0.103 A 
HETATM    8  C   UNL     1     -41.957 -48.207  11.266  1.00  0.00     0.048 A 
HETATM    9  C   UNL     1     -41.769 -49.466  11.834  1.00  0.00     0.006 A 
HETATM   10  C   UNL     1     -40.488 -49.884  12.148  1.00  0.00     0.025 A 
HETATM   11  C   UNL     1     -39.437 -49.028  11.867  1.00  0.00     0.007 A 
HETATM   12  C   UNL     1     -38.038 -49.378  12.276  1.00  0.00     0.068 C 
HETATM   13  N   UNL     1     -39.614 -47.822  11.264  1.00  0.00    -0.346 N 
ATOM     14  HN  UNL     1     -38.808 -47.245  11.027  1.00  0.00     0.167 HD
ENDBRANCH   3   7
BRANCH   1  15
HETATM   15  C   UNL     1     -42.509 -44.525  12.765  1.00  0.00     0.247 C 
HETATM   16  N   UNL     1     -43.234 -45.621  13.189  1.00  0.00    -0.363 N 
HETATM   17  C   UNL     1     -43.308 -45.909  14.599  1.00  0.00     0.149 C 
HETATM   18  H   UNL     1     -43.264 -46.427  12.565  1.00  0.00     0.162 HD
HETATM   19  O   UNL     1     -41.995 -43.746  13.573  1.00  0.00    -0.271 OA
ENDBRANCH   1  15
TORSDOF 2
ENDMDL
MODEL 7
REMARK VINA RESULT:      -4.8      2.457      3.815
REMARK  2 active torsions:
REMARK  status: ('A' for Active; 'I' for Inactive)
REMARK       I    between atoms: N_2  and  C_3 
REMARK    1  A    between atoms: C_3  and  C_5 
REMARK    2  A    between atoms: N_7  and  C_11 
ROOT
HETATM    1  C   UNL     1     -44.872 -53.123  12.442  1.00  0.00     0.231 C 
HETATM    2  C   UNL     1     -46.109 -52.421  13.032  1.00  0.00     0.166 C 
HETATM    3  N   UNL     1     -46.299 -52.806  14.442  1.00  0.00    -0.362 N 
HETATM    4  C   UNL     1     -46.337 -54.260  14.649  1.00  0.00     0.150 C 
HETATM    5  C   UNL     1     -45.126 -54.923  13.971  1.00  0.00     0.189 C 
HETATM    6  O   UNL     1     -45.018 -54.553  12.586  1.00  0.00    -0.373 OA
ENDROOT
BRANCH   3   7
HETATM    7  C   UNL     1     -46.174 -51.862  15.435  1.00  0.00     0.103 A 
HETATM    8  C   UNL     1     -45.015 -51.111  15.622  1.00  0.00     0.048 A 
HETATM    9  C   UNL     1     -44.930 -50.184  16.659  1.00  0.00     0.006 A 
HETATM   10  C   UNL     1     -45.995 -50.039  17.530  1.00  0.00     0.025 A 
HETATM   11  C   UNL     1     -47.117 -50.823  17.321  1.00  0.00     0.007 A 
HETATM   12  C   UNL     1     -48.262 -50.789  18.287  1.00  0.00     0.068 C 
HETATM   13  N   UNL     1     -47.222 -51.689  16.278  1.00  0.00    -0.346 N 
ATOM     14  HN  UNL     1     -48.088 -52.208  16.130  1.00  0.00     0.167 HD
ENDBRANCH   3   7
BRANCH   1  15
HETATM   15  C   UNL     1     -43.488 -52.612  12.925  1.00  0.00     0.247 C 
HETATM   16  N   UNL     1     -43.121 -51.334  12.555  1.00  0.00    -0.363 N 
HETATM   17  C   UNL     1     -41.854 -50.812  13.004  1.00  0.00     0.149 C 
HETATM   18  H   UNL     1     -43.870 -50.652  12.436  1.00  0.00     0.162 HD
HETATM   19  O   UNL     1     -42.720 -53.340  13.559  1.00  0.00    -0.271 OA
ENDBRANCH   1  15
TORSDOF 2
ENDMDL
MODEL 8
REMARK VINA RESULT:      -4.8      4.484      6.193
REMARK  2 active torsions:
REMARK  status: ('A' for Active; 'I' for Inactive)
REMARK       I    between atoms: N_2  and  C_3 
REMARK    1  A    between atoms: C_3  and  C_5 
REMARK    2  A    between atoms: N_7  and  C_11 
ROOT
HETATM    1  C   UNL     1     -37.812 -49.882  12.857  1.00  0.00     0.231 C 
HETATM    2  C   UNL     1     -38.393 -49.648  11.451  1.00  0.00     0.166 C 
HETATM    3  N   UNL     1     -39.866 -49.674  11.488  1.00  0.00    -0.362 N 
HETATM    4  C   UNL     1     -40.411 -50.885  12.117  1.00  0.00     0.150 C 
HETATM    5  C   UNL     1     -39.740 -51.121  13.481  1.00  0.00     0.189 C 
HETATM    6  O   UNL     1     -38.307 -51.135  13.378  1.00  0.00    -0.373 OA
ENDROOT
BRANCH   3   7
HETATM    7  C   UNL     1     -40.581 -48.536  11.194  1.00  0.00     0.103 A 
HETATM    8  C   UNL     1     -41.966 -48.532  11.046  1.00  0.00     0.048 A 
HETATM    9  C   UNL     1     -42.642 -47.357  10.722  1.00  0.00     0.006 A 
HETATM   10  C   UNL     1     -41.921 -46.195  10.511  1.00  0.00     0.025 A 
HETATM   11  C   UNL     1     -40.544 -46.251  10.646  1.00  0.00     0.007 A 
HETATM   12  C   UNL     1     -39.698 -45.055  10.331  1.00  0.00     0.068 C 
HETATM   13  N   UNL     1     -39.888 -47.384  11.014  1.00  0.00    -0.346 N 
ATOM     14  HN  UNL     1     -38.878 -47.368  11.153  1.00  0.00     0.167 HD
ENDBRANCH   3   7
BRANCH   1  15
HETATM   15  C   UNL     1     -37.957 -48.716  13.870  1.00  0.00     0.247 C 
HETATM   16  N   UNL     1     -37.509 -48.934  15.158  1.00  0.00    -0.363 N 
HETATM   17  C   UNL     1     -37.603 -47.868  16.123  1.00  0.00     0.149 C 
HETATM   18  H   UNL     1     -36.725 -49.575  15.273  1.00  0.00     0.162 HD
HETATM   19  O   UNL     1     -38.508 -47.656  13.556  1.00  0.00    -0.271 OA
ENDBRANCH   1  15
TORSDOF 2
ENDMDL
MODEL 9
REMARK VINA RESULT:      -4.7      4.418      6.970
REMARK  2 active torsions:
REMARK  status: ('A' for Active; 'I' for Inactive)
REMARK       I    between atoms: N_2  and  C_3 
REMARK    1  A    between atoms: C_3  and  C_5 
REMARK    2  A    between atoms: N_7  and  C_11 
ROOT
HETATM    1  C   UNL     1     -41.958 -45.392  11.149  1.00  0.00     0.231 C 
HETATM    2  C   UNL     1     -42.497 -46.544  12.016  1.00  0.00     0.166 C 
HETATM    3  N   UNL     1     -42.583 -47.788  11.230  1.00  0.00    -0.362 N 
HETATM    4  C   UNL     1     -43.340 -47.635   9.981  1.00  0.00     0.150 C 
HETATM    5  C   UNL     1     -42.819 -46.423   9.190  1.00  0.00     0.189 C 
HETATM    6  O   UNL     1     -42.803 -45.229   9.989  1.00  0.00    -0.373 OA
ENDROOT
BRANCH   3   7
HETATM    7  C   UNL     1     -41.790 -48.863  11.557  1.00  0.00     0.103 A 
HETATM    8  C   UNL     1     -42.268 -49.968  12.259  1.00  0.00     0.048 A 
HETATM    9  C   UNL     1     -41.418 -51.022  12.589  1.00  0.00     0.006 A 
HETATM   10  C   UNL     1     -40.080 -50.947  12.246  1.00  0.00     0.025 A 
HETATM   11  C   UNL     1     -39.644 -49.820  11.570  1.00  0.00     0.007 A 
HETATM   12  C   UNL     1     -38.189 -49.631  11.261  1.00  0.00     0.068 C 
HETATM   13  N   UNL     1     -40.483 -48.815  11.201  1.00  0.00    -0.346 N 
ATOM     14  HN  UNL     1     -40.130 -48.028  10.658  1.00  0.00     0.167 HD
ENDBRANCH   3   7
BRANCH   1  15
HETATM   15  C   UNL     1     -40.450 -45.445  10.786  1.00  0.00     0.247 C 
HETATM   16  N   UNL     1     -40.057 -44.824   9.617  1.00  0.00    -0.363 N 
HETATM   17  C   UNL     1     -38.661 -44.828   9.257  1.00  0.00     0.149 C 
HETATM   18  H   UNL     1     -40.594 -44.009   9.322  1.00  0.00     0.162 HD
HETATM   19  O   UNL     1     -39.643 -46.069  11.481  1.00  0.00    -0.271 OA
ENDBRANCH   1  15
TORSDOF 2
ENDMDL
