MODEL 1
REMARK VINA RESULT:      -6.5      0.000      0.000
REMARK  4 active torsions:
REMARK  status: ('A' for Active; 'I' for Inactive)
REMARK    1  A    between atoms: C_4  and  N_5 
REMARK       I    between atoms: N_5  and  C_6 
REMARK       I    between atoms: C_6  and  N_8 
REMARK    2  A    between atoms: N_8  and  C_9 
REMARK    3  A    between atoms: C_11  and  C_12 
REMARK    4  A    between atoms: C_12  and  O_13 
ROOT
HETATM    1  N   UNL     1     -41.978 -48.185   9.784  1.00  0.00    -0.309 N 
HETATM    2  C   UNL     1     -41.236 -48.162  10.947  1.00  0.00     0.321 C 
HETATM    3  O   UNL     1     -41.449 -47.474  11.937  1.00  0.00    -0.247 OA
HETATM    4  N   UNL     1     -40.149 -49.007  10.866  1.00  0.00    -0.335 N 
HETATM    5  H   UNL     1     -41.626 -48.775   9.047  1.00  0.00     0.170 HD
HETATM    6  H   UNL     1     -40.193 -49.776  10.217  1.00  0.00     0.164 HD
ENDROOT
BRANCH   1   7
HETATM    7  C   UNL     1     -43.118 -47.407   9.480  1.00  0.00     0.039 A 
HETATM    8  C   UNL     1     -44.405 -47.929   9.382  1.00  0.00     0.054 A 
HETATM    9  C   UNL     1     -45.467 -47.072   9.106  1.00  0.00     0.007 A 
HETATM   10  C   UNL     1     -46.871 -47.597   9.055  1.00  0.00     0.068 C 
HETATM   11  N   UNL     1     -45.304 -45.743   8.912  1.00  0.00    -0.369 N 
HETATM   12  C   UNL     1     -44.048 -45.259   9.002  1.00  0.00     0.090 A 
ATOM     13  HN  UNL     1     -46.096 -45.134   8.706  1.00  0.00     0.165 HD
HETATM   14  C   UNL     1     -42.938 -46.038   9.285  1.00  0.00     0.046 A 
ENDBRANCH   1   7
BRANCH   4  15
HETATM   15  C   UNL     1     -39.245 -49.136  11.982  1.00  0.00     0.109 C 
HETATM   16  C   UNL     1     -39.732 -50.131  13.043  1.00  0.00     0.040 C 
HETATM   17  C   UNL     1     -38.468 -50.864  13.528  1.00  0.00     0.034 C 
HETATM   18  C   UNL     1     -37.554 -50.720  12.341  1.00  0.00    -0.022 C 
HETATM   19  C   UNL     1     -37.983 -49.772  11.500  1.00  0.00    -0.005 C 
BRANCH  17  20
HETATM   20  C   UNL     1     -38.755 -52.314  13.920  1.00  0.00     0.172 C 
BRANCH  20  21
HETATM   21  O   UNL     1     -39.708 -52.900  13.035  1.00  0.00    -0.400 OA
HETATM   22  H   UNL     1     -39.347 -53.750  12.735  1.00  0.00     0.209 HD
ENDBRANCH  20  21
ENDBRANCH  17  20
ENDBRANCH   4  15
TORSDOF 4
ENDMDL
MODEL 2
REMARK VINA RESULT:      -5.9      3.560      4.458
REMARK  4 active torsions:
REMARK  status: ('A' for Active; 'I' for Inactive)
REMARK    1  A    between atoms: C_4  and  N_5 
REMARK       I    between atoms: N_5  and  C_6 
REMARK       I    between atoms: C_6  and  N_8 
REMARK    2  A    between atoms: N_8  and  C_9 
REMARK    3  A    between atoms: C_11  and  C_12 
REMARK    4  A    between atoms: C_12  and  O_13 
ROOT
HETATM    1  N   UNL     1     -41.842 -49.742  11.304  1.00  0.00    -0.309 N 
HETATM    2  C   UNL     1     -42.267 -50.197  12.534  1.00  0.00     0.321 C 
HETATM    3  O   UNL     1     -42.716 -49.520  13.450  1.00  0.00    -0.247 OA
HETATM    4  N   UNL     1     -42.094 -51.561  12.652  1.00  0.00    -0.335 N 
HETATM    5  H   UNL     1     -41.451 -50.436  10.686  1.00  0.00     0.170 HD
HETATM    6  H   UNL     1     -42.055 -52.109  11.808  1.00  0.00     0.164 HD
ENDROOT
BRANCH   1   7
HETATM    7  C   UNL     1     -41.808 -48.403  10.851  1.00  0.00     0.039 A 
HETATM    8  C   UNL     1     -42.827 -47.813  10.108  1.00  0.00     0.054 A 
HETATM    9  C   UNL     1     -42.710 -46.477   9.734  1.00  0.00     0.007 A 
HETATM   10  C   UNL     1     -43.820 -45.800   8.985  1.00  0.00     0.068 C 
HETATM   11  N   UNL     1     -41.635 -45.720  10.050  1.00  0.00    -0.369 N 
HETATM   12  C   UNL     1     -40.655 -46.313  10.763  1.00  0.00     0.090 A 
ATOM     13  HN  UNL     1     -41.568 -44.744   9.762  1.00  0.00     0.165 HD
HETATM   14  C   UNL     1     -40.696 -47.631  11.186  1.00  0.00     0.046 A 
ENDBRANCH   1   7
BRANCH   4  15
HETATM   15  C   UNL     1     -42.483 -52.239  13.863  1.00  0.00     0.109 C 
HETATM   16  C   UNL     1     -43.955 -52.669  13.870  1.00  0.00     0.040 C 
HETATM   17  C   UNL     1     -43.978 -54.045  14.559  1.00  0.00     0.034 C 
HETATM   18  C   UNL     1     -42.579 -54.541  14.304  1.00  0.00    -0.022 C 
HETATM   19  C   UNL     1     -41.766 -53.548  13.925  1.00  0.00    -0.005 C 
BRANCH  17  20
HETATM   20  C   UNL     1     -45.072 -54.955  13.999  1.00  0.00     0.172 C 
BRANCH  20  21
HETATM   21  O   UNL     1     -45.723 -54.342  12.889  1.00  0.00    -0.400 OA
HETATM   22  H   UNL     1     -46.258 -53.606  13.230  1.00  0.00     0.209 HD
ENDBRANCH  20  21
ENDBRANCH  17  20
ENDBRANCH   4  15
TORSDOF 4
ENDMDL
MODEL 3
REMARK VINA RESULT:      -5.8      3.960      6.943
REMARK  4 active torsions:
REMARK  status: ('A' for Active; 'I' for Inactive)
REMARK    1  A    between atoms: C_4  and  N_5 
REMARK       I    between atoms: N_5  and  C_6 
REMARK       I    between atoms: C_6  and  N_8 
REMARK    2  A    between atoms: N_8  and  C_9 
REMARK    3  A    between atoms: C_11  and  C_12 
REMARK    4  A    between atoms: C_12  and  O_13 
ROOT
HETATM    1  N   UNL     1     -42.364 -51.552  12.142  1.00  0.00    -0.309 N 
HETATM    2  C   UNL     1     -42.597 -50.230  12.460  1.00  0.00     0.321 C 
HETATM    3  O   UNL     1     -43.091 -49.802  13.495  1.00  0.00    -0.247 OA
HETATM    4  N   UNL     1     -42.233 -49.394  11.425  1.00  0.00    -0.335 N 
HETATM    5  H   UNL     1     -41.996 -51.727  11.220  1.00  0.00     0.170 HD
HETATM    6  H   UNL     1     -41.545 -49.724  10.767  1.00  0.00     0.164 HD
ENDROOT
BRANCH   1   7
HETATM    7  C   UNL     1     -42.668 -52.688  12.927  1.00  0.00     0.039 A 
HETATM    8  C   UNL     1     -43.925 -53.285  12.966  1.00  0.00     0.054 A 
HETATM    9  C   UNL     1     -44.114 -54.419  13.751  1.00  0.00     0.007 A 
HETATM   10  C   UNL     1     -45.441 -55.118  13.764  1.00  0.00     0.068 C 
HETATM   11  N   UNL     1     -43.128 -54.966  14.497  1.00  0.00    -0.369 N 
HETATM   12  C   UNL     1     -41.920 -54.367  14.453  1.00  0.00     0.090 A 
ATOM     13  HN  UNL     1     -43.290 -55.795  15.069  1.00  0.00     0.165 HD
HETATM   14  C   UNL     1     -41.642 -53.244  13.690  1.00  0.00     0.046 A 
ENDBRANCH   1   7
BRANCH   4  15
HETATM   15  C   UNL     1     -42.391 -47.966  11.556  1.00  0.00     0.109 C 
HETATM   16  C   UNL     1     -41.071 -47.235  11.836  1.00  0.00     0.040 C 
HETATM   17  C   UNL     1     -41.150 -45.925  11.032  1.00  0.00     0.034 C 
HETATM   18  C   UNL     1     -42.115 -46.292   9.937  1.00  0.00    -0.022 C 
HETATM   19  C   UNL     1     -42.792 -47.409  10.230  1.00  0.00    -0.005 C 
BRANCH  17  20
HETATM   20  C   UNL     1     -39.779 -45.472  10.527  1.00  0.00     0.172 C 
BRANCH  20  21
HETATM   21  O   UNL     1     -39.885 -44.874   9.237  1.00  0.00    -0.400 OA
HETATM   22  H   UNL     1     -40.072 -43.930   9.364  1.00  0.00     0.209 HD
ENDBRANCH  20  21
ENDBRANCH  17  20
ENDBRANCH   4  15
TORSDOF 4
ENDMDL
MODEL 4
REMARK VINA RESULT:      -5.6      4.924      6.566
REMARK  4 active torsions:
REMARK  status: ('A' for Active; 'I' for Inactive)
REMARK    1  A    between atoms: C_4  and  N_5 
REMARK       I    between atoms: N_5  and  C_6 
REMARK       I    between atoms: C_6  and  N_8 
REMARK    2  A    between atoms: N_8  and  C_9 
REMARK    3  A    between atoms: C_11  and  C_12 
REMARK    4  A    between atoms: C_12  and  O_13 
ROOT
HETATM    1  N   UNL     1     -44.615 -50.694  12.676  1.00  0.00    -0.309 N 
HETATM    2  C   UNL     1     -43.318 -50.295  12.925  1.00  0.00     0.321 C 
HETATM    3  O   UNL     1     -42.544 -50.788  13.736  1.00  0.00    -0.247 OA
HETATM    4  N   UNL     1     -42.972 -49.205  12.155  1.00  0.00    -0.335 N 
HETATM    5  H   UNL     1     -45.128 -50.139  12.009  1.00  0.00     0.170 HD
HETATM    6  H   UNL     1     -43.476 -49.050  11.296  1.00  0.00     0.164 HD
ENDROOT
BRANCH   1   7
HETATM    7  C   UNL     1     -45.331 -51.730  13.318  1.00  0.00     0.039 A 
HETATM    8  C   UNL     1     -45.050 -53.083  13.148  1.00  0.00     0.054 A 
HETATM    9  C   UNL     1     -45.797 -54.026  13.849  1.00  0.00     0.007 A 
HETATM   10  C   UNL     1     -45.476 -55.486  13.730  1.00  0.00     0.068 C 
HETATM   11  N   UNL     1     -46.803 -53.687  14.687  1.00  0.00    -0.369 N 
HETATM   12  C   UNL     1     -47.065 -52.372  14.831  1.00  0.00     0.090 A 
ATOM     13  HN  UNL     1     -47.340 -54.395  15.187  1.00  0.00     0.165 HD
HETATM   14  C   UNL     1     -46.363 -51.368  14.182  1.00  0.00     0.046 A 
ENDBRANCH   1   7
BRANCH   4  15
HETATM   15  C   UNL     1     -41.651 -48.634  12.258  1.00  0.00     0.109 C 
HETATM   16  C   UNL     1     -41.184 -47.954  10.965  1.00  0.00     0.040 C 
HETATM   17  C   UNL     1     -40.415 -46.699  11.417  1.00  0.00     0.034 C 
HETATM   18  C   UNL     1     -41.028 -46.431  12.765  1.00  0.00    -0.022 C 
HETATM   19  C   UNL     1     -41.701 -47.493  13.221  1.00  0.00    -0.005 C 
BRANCH  17  20
HETATM   20  C   UNL     1     -40.561 -45.543  10.426  1.00  0.00     0.172 C 
BRANCH  20  21
HETATM   21  O   UNL     1     -41.651 -45.772   9.536  1.00  0.00    -0.400 OA
HETATM   22  H   UNL     1     -42.233 -44.996   9.577  1.00  0.00     0.209 HD
ENDBRANCH  20  21
ENDBRANCH  17  20
ENDBRANCH   4  15
TORSDOF 4
ENDMDL
MODEL 5
REMARK VINA RESULT:      -5.2      4.774      5.607
REMARK  4 active torsions:
REMARK  status: ('A' for Active; 'I' for Inactive)
REMARK    1  A    between atoms: C_4  and  N_5 
REMARK       I    between atoms: N_5  and  C_6 
REMARK       I    between atoms: C_6  and  N_8 
REMARK    2  A    between atoms: N_8  and  C_9 
REMARK    3  A    between atoms: C_11  and  C_12 
REMARK    4  A    between atoms: C_12  and  O_13 
ROOT
HETATM    1  N   UNL     1     -43.732 -51.001  12.883  1.00  0.00    -0.309 N 
HETATM    2  C   UNL     1     -42.523 -50.683  13.467  1.00  0.00     0.321 C 
HETATM    3  O   UNL     1     -42.145 -51.005  14.586  1.00  0.00    -0.247 OA
HETATM    4  N   UNL     1     -41.756 -49.894  12.637  1.00  0.00    -0.335 N 
HETATM    5  H   UNL     1     -43.898 -50.607  11.970  1.00  0.00     0.170 HD
HETATM    6  H   UNL     1     -41.932 -49.935  11.646  1.00  0.00     0.164 HD
ENDROOT
BRANCH   1   7
HETATM    7  C   UNL     1     -44.793 -51.737  13.456  1.00  0.00     0.039 A 
HETATM    8  C   UNL     1     -45.625 -51.240  14.456  1.00  0.00     0.054 A 
HETATM    9  C   UNL     1     -46.663 -52.036  14.935  1.00  0.00     0.007 A 
HETATM   10  C   UNL     1     -47.611 -51.504  15.968  1.00  0.00     0.068 C 
HETATM   11  N   UNL     1     -46.893 -53.289  14.481  1.00  0.00    -0.369 N 
HETATM   12  C   UNL     1     -46.070 -53.755  13.519  1.00  0.00     0.090 A 
ATOM     13  HN  UNL     1     -47.657 -53.857  14.849  1.00  0.00     0.165 HD
HETATM   14  C   UNL     1     -45.024 -53.026  12.978  1.00  0.00     0.046 A 
ENDBRANCH   1   7
BRANCH   4  15
HETATM   15  C   UNL     1     -40.449 -49.455  13.058  1.00  0.00     0.109 C 
HETATM   16  C   UNL     1     -39.319 -50.379  12.586  1.00  0.00     0.040 C 
HETATM   17  C   UNL     1     -38.153 -49.446  12.214  1.00  0.00     0.034 C 
HETATM   18  C   UNL     1     -38.875 -48.165  11.892  1.00  0.00    -0.022 C 
HETATM   19  C   UNL     1     -40.129 -48.175  12.357  1.00  0.00    -0.005 C 
BRANCH  17  20
HETATM   20  C   UNL     1     -37.317 -49.997  11.058  1.00  0.00     0.172 C 
BRANCH  20  21
HETATM   21  O   UNL     1     -37.128 -51.403  11.193  1.00  0.00    -0.400 OA
HETATM   22  H   UNL     1     -37.020 -51.774  10.303  1.00  0.00     0.209 HD
ENDBRANCH  20  21
ENDBRANCH  17  20
ENDBRANCH   4  15
TORSDOF 4
ENDMDL
MODEL 6
REMARK VINA RESULT:      -5.2      4.902      7.587
REMARK  4 active torsions:
REMARK  status: ('A' for Active; 'I' for Inactive)
REMARK    1  A    between atoms: C_4  and  N_5 
REMARK       I    between atoms: N_5  and  C_6 
REMARK       I    between atoms: C_6  and  N_8 
REMARK    2  A    between atoms: N_8  and  C_9 
REMARK    3  A    between atoms: C_11  and  C_12 
REMARK    4  A    between atoms: C_12  and  O_13 
ROOT
HETATM    1  N   UNL     1     -42.325 -52.337  11.973  1.00  0.00    -0.309 N 
HETATM    2  C   UNL     1     -43.457 -52.333  12.760  1.00  0.00     0.321 C 
HETATM    3  O   UNL     1     -43.533 -51.986  13.932  1.00  0.00    -0.247 OA
HETATM    4  N   UNL     1     -44.549 -52.820  12.072  1.00  0.00    -0.335 N 
HETATM    5  H   UNL     1     -42.435 -52.706  11.042  1.00  0.00     0.170 HD
HETATM    6  H   UNL     1     -44.537 -52.770  11.065  1.00  0.00     0.164 HD
ENDROOT
BRANCH   1   7
HETATM    7  C   UNL     1     -41.014 -51.969  12.356  1.00  0.00     0.039 A 
HETATM    8  C   UNL     1     -40.340 -50.866  11.841  1.00  0.00     0.054 A 
HETATM    9  C   UNL     1     -39.061 -50.572  12.305  1.00  0.00     0.007 A 
HETATM   10  C   UNL     1     -38.336 -49.355  11.812  1.00  0.00     0.068 C 
HETATM   11  N   UNL     1     -38.429 -51.326  13.234  1.00  0.00    -0.369 N 
HETATM   12  C   UNL     1     -39.096 -52.396  13.714  1.00  0.00     0.090 A 
ATOM     13  HN  UNL     1     -37.489 -51.095  13.557  1.00  0.00     0.165 HD
HETATM   14  C   UNL     1     -40.374 -52.752  13.316  1.00  0.00     0.046 A 
ENDBRANCH   1   7
BRANCH   4  15
HETATM   15  C   UNL     1     -45.838 -52.894  12.714  1.00  0.00     0.109 C 
HETATM   16  C   UNL     1     -45.787 -53.557  14.096  1.00  0.00     0.040 C 
HETATM   17  C   UNL     1     -46.778 -52.764  14.968  1.00  0.00     0.034 C 
HETATM   18  C   UNL     1     -46.801 -51.429  14.272  1.00  0.00    -0.022 C 
HETATM   19  C   UNL     1     -46.287 -51.508  13.039  1.00  0.00    -0.005 C 
BRANCH  17  20
HETATM   20  C   UNL     1     -46.335 -52.695  16.430  1.00  0.00     0.172 C 
BRANCH  20  21
HETATM   21  O   UNL     1     -44.923 -52.524  16.526  1.00  0.00    -0.400 OA
HETATM   22  H   UNL     1     -44.740 -51.571  16.510  1.00  0.00     0.209 HD
ENDBRANCH  20  21
ENDBRANCH  17  20
ENDBRANCH   4  15
TORSDOF 4
ENDMDL
MODEL 7
REMARK VINA RESULT:      -5.1      4.583      5.458
REMARK  4 active torsions:
REMARK  status: ('A' for Active; 'I' for Inactive)
REMARK    1  A    between atoms: C_4  and  N_5 
REMARK       I    between atoms: N_5  and  C_6 
REMARK       I    between atoms: C_6  and  N_8 
REMARK    2  A    between atoms: N_8  and  C_9 
REMARK    3  A    between atoms: C_11  and  C_12 
REMARK    4  A    between atoms: C_12  and  O_13 
ROOT
HETATM    1  N   UNL     1     -43.279 -49.183  11.983  1.00  0.00    -0.309 N 
HETATM    2  C   UNL     1     -42.886 -50.259  12.752  1.00  0.00     0.321 C 
HETATM    3  O   UNL     1     -41.894 -50.325  13.465  1.00  0.00    -0.247 OA
HETATM    4  N   UNL     1     -43.748 -51.325  12.600  1.00  0.00    -0.335 N 
HETATM    5  H   UNL     1     -44.099 -49.322  11.414  1.00  0.00     0.170 HD
HETATM    6  H   UNL     1     -44.691 -51.134  12.301  1.00  0.00     0.164 HD
ENDROOT
BRANCH   1   7
HETATM    7  C   UNL     1     -42.610 -47.946  11.836  1.00  0.00     0.039 A 
HETATM    8  C   UNL     1     -42.935 -46.802  12.559  1.00  0.00     0.054 A 
HETATM    9  C   UNL     1     -42.195 -45.639  12.360  1.00  0.00     0.007 A 
HETATM   10  C   UNL     1     -42.484 -44.409  13.169  1.00  0.00     0.068 C 
HETATM   11  N   UNL     1     -41.173 -45.564  11.477  1.00  0.00    -0.369 N 
HETATM   12  C   UNL     1     -40.880 -46.681  10.781  1.00  0.00     0.090 A 
ATOM     13  HN  UNL     1     -40.646 -44.700  11.344  1.00  0.00     0.165 HD
HETATM   14  C   UNL     1     -41.556 -47.882  10.926  1.00  0.00     0.046 A 
ENDBRANCH   1   7
BRANCH   4  15
HETATM   15  C   UNL     1     -43.520 -52.551  13.325  1.00  0.00     0.109 C 
HETATM   16  C   UNL     1     -44.267 -52.610  14.663  1.00  0.00     0.040 C 
HETATM   17  C   UNL     1     -44.745 -54.067  14.802  1.00  0.00     0.034 C 
HETATM   18  C   UNL     1     -44.813 -54.508  13.365  1.00  0.00    -0.022 C 
HETATM   19  C   UNL     1     -44.140 -53.675  12.562  1.00  0.00    -0.005 C 
BRANCH  17  20
HETATM   20  C   UNL     1     -46.076 -54.171  15.549  1.00  0.00     0.172 C 
BRANCH  20  21
HETATM   21  O   UNL     1     -45.868 -54.554  16.906  1.00  0.00    -0.400 OA
HETATM   22  H   UNL     1     -45.338 -53.859  17.330  1.00  0.00     0.209 HD
ENDBRANCH  20  21
ENDBRANCH  17  20
ENDBRANCH   4  15
TORSDOF 4
ENDMDL
MODEL 8
REMARK VINA RESULT:      -5.1      4.202      7.014
REMARK  4 active torsions:
REMARK  status: ('A' for Active; 'I' for Inactive)
REMARK    1  A    between atoms: C_4  and  N_5 
REMARK       I    between atoms: N_5  and  C_6 
REMARK       I    between atoms: C_6  and  N_8 
REMARK    2  A    between atoms: N_8  and  C_9 
REMARK    3  A    between atoms: C_11  and  C_12 
REMARK    4  A    between atoms: C_12  and  O_13 
ROOT
HETATM    1  N   UNL     1     -43.448 -51.341  12.874  1.00  0.00    -0.309 N 
HETATM    2  C   UNL     1     -42.284 -50.915  12.268  1.00  0.00     0.321 C 
HETATM    3  O   UNL     1     -41.298 -51.596  12.018  1.00  0.00    -0.247 OA
HETATM    4  N   UNL     1     -42.328 -49.565  11.990  1.00  0.00    -0.335 N 
HETATM    5  H   UNL     1     -44.141 -50.630  13.051  1.00  0.00     0.170 HD
HETATM    6  H   UNL     1     -43.231 -49.129  11.891  1.00  0.00     0.164 HD
ENDROOT
BRANCH   1   7
HETATM    7  C   UNL     1     -43.738 -52.638  13.356  1.00  0.00     0.039 A 
HETATM    8  C   UNL     1     -42.945 -53.313  14.280  1.00  0.00     0.054 A 
HETATM    9  C   UNL     1     -43.334 -54.578  14.713  1.00  0.00     0.007 A 
HETATM   10  C   UNL     1     -42.532 -55.302  15.753  1.00  0.00     0.068 C 
HETATM   11  N   UNL     1     -44.450 -55.195  14.262  1.00  0.00    -0.369 N 
HETATM   12  C   UNL     1     -45.198 -54.528  13.360  1.00  0.00     0.090 A 
ATOM     13  HN  UNL     1     -44.713 -56.125  14.589  1.00  0.00     0.165 HD
HETATM   14  C   UNL     1     -44.892 -53.263  12.886  1.00  0.00     0.046 A 
ENDBRANCH   1   7
BRANCH   4  15
HETATM   15  C   UNL     1     -41.209 -48.920  11.349  1.00  0.00     0.109 C 
HETATM   16  C   UNL     1     -41.606 -47.664  10.561  1.00  0.00     0.040 C 
HETATM   17  C   UNL     1     -40.464 -46.658  10.793  1.00  0.00     0.034 C 
HETATM   18  C   UNL     1     -39.901 -47.127  12.108  1.00  0.00    -0.022 C 
HETATM   19  C   UNL     1     -40.311 -48.365  12.405  1.00  0.00    -0.005 C 
BRANCH  17  20
HETATM   20  C   UNL     1     -40.962 -45.212  10.810  1.00  0.00     0.172 C 
BRANCH  20  21
HETATM   21  O   UNL     1     -40.148 -44.384   9.982  1.00  0.00    -0.400 OA
HETATM   22  H   UNL     1     -39.225 -44.653  10.114  1.00  0.00     0.209 HD
ENDBRANCH  20  21
ENDBRANCH  17  20
ENDBRANCH   4  15
TORSDOF 4
ENDMDL
MODEL 9
REMARK VINA RESULT:      -5.0      2.279      3.074
REMARK  4 active torsions:
REMARK  status: ('A' for Active; 'I' for Inactive)
REMARK    1  A    between atoms: C_4  and  N_5 
REMARK       I    between atoms: N_5  and  C_6 
REMARK       I    between atoms: C_6  and  N_8 
REMARK    2  A    between atoms: N_8  and  C_9 
REMARK    3  A    between atoms: C_11  and  C_12 
REMARK    4  A    between atoms: C_12  and  O_13 
ROOT
HETATM    1  N   UNL     1     -41.999 -48.954  12.492  1.00  0.00    -0.309 N 
HETATM    2  C   UNL     1     -41.111 -49.932  12.093  1.00  0.00     0.321 C 
HETATM    3  O   UNL     1     -40.484 -49.966  11.042  1.00  0.00    -0.247 OA
HETATM    4  N   UNL     1     -41.021 -50.941  13.029  1.00  0.00    -0.335 N 
HETATM    5  H   UNL     1     -42.467 -49.114  13.370  1.00  0.00     0.170 HD
HETATM    6  H   UNL     1     -41.264 -50.726  13.983  1.00  0.00     0.164 HD
ENDROOT
BRANCH   1   7
HETATM    7  C   UNL     1     -42.392 -47.806  11.767  1.00  0.00     0.039 A 
HETATM    8  C   UNL     1     -43.264 -47.840  10.682  1.00  0.00     0.054 A 
HETATM    9  C   UNL     1     -43.611 -46.648  10.051  1.00  0.00     0.007 A 
HETATM   10  C   UNL     1     -44.595 -46.648   8.919  1.00  0.00     0.068 C 
HETATM   11  N   UNL     1     -43.125 -45.447  10.439  1.00  0.00    -0.369 N 
HETATM   12  C   UNL     1     -42.275 -45.437  11.486  1.00  0.00     0.090 A 
ATOM     13  HN  UNL     1     -43.389 -44.586   9.960  1.00  0.00     0.165 HD
HETATM   14  C   UNL     1     -41.887 -46.574  12.177  1.00  0.00     0.046 A 
ENDBRANCH   1   7
BRANCH   4  15
HETATM   15  C   UNL     1     -40.139 -52.060  12.807  1.00  0.00     0.109 C 
HETATM   16  C   UNL     1     -39.281 -52.406  14.030  1.00  0.00     0.040 C 
HETATM   17  C   UNL     1     -39.209 -53.943  14.059  1.00  0.00     0.034 C 
HETATM   18  C   UNL     1     -40.465 -54.325  13.321  1.00  0.00    -0.022 C 
HETATM   19  C   UNL     1     -40.968 -53.291  12.637  1.00  0.00    -0.005 C 
BRANCH  17  20
HETATM   20  C   UNL     1     -39.134 -54.493  15.484  1.00  0.00     0.172 C 
BRANCH  20  21
HETATM   21  O   UNL     1     -38.593 -55.812  15.492  1.00  0.00    -0.400 OA
HETATM   22  H   UNL     1     -38.854 -56.233  16.327  1.00  0.00     0.209 HD
ENDBRANCH  20  21
ENDBRANCH  17  20
ENDBRANCH   4  15
TORSDOF 4
ENDMDL
