MODEL 1
REMARK VINA RESULT:      -6.5      0.000      0.000
REMARK  3 active torsions:
REMARK  status: ('A' for Active; 'I' for Inactive)
REMARK    1  A    between atoms: C_2  and  C_3 
REMARK    2  A    between atoms: C_2  and  N_11 
REMARK    3  A    between atoms: C_3  and  N_4 
REMARK       I    between atoms: N_11  and  C_12 
REMARK       I    between atoms: C_12  and  N_14 
ROOT
HETATM    1  N   UNL     1     -42.279 -49.358  11.426  1.00  0.00    -0.337 N 
HETATM    2  C   UNL     1     -42.646 -49.714  12.700  1.00  0.00     0.318 C 
HETATM    3  O   UNL     1     -43.041 -48.871  13.500  1.00  0.00    -0.247 OA
HETATM    4  N   UNL     1     -42.585 -51.072  12.984  1.00  0.00    -0.334 N 
HETATM    5  C   UNL     1     -42.156 -52.120  12.052  1.00  0.00     0.127 C 
HETATM    6  C   UNL     1     -40.833 -52.729  12.492  1.00  0.00     0.021 C 
HETATM    7  C   UNL     1     -40.934 -53.907  13.466  1.00  0.00     0.010 C 
HETATM    8  C   UNL     1     -41.987 -53.850  14.604  1.00  0.00    -0.046 C 
HETATM    9  C   UNL     1     -43.298 -54.551  14.185  1.00  0.00     0.015 C 
HETATM   10  C   UNL     1     -41.433 -54.683  15.790  1.00  0.00     0.015 C 
HETATM   11  C   UNL     1     -42.229 -52.407  15.111  1.00  0.00     0.028 C 
HETATM   12  C   UNL     1     -43.140 -51.512  14.265  1.00  0.00     0.128 C 
HETATM   13  H   UNL     1     -41.504 -49.892  11.064  1.00  0.00     0.164 HD
ENDROOT
BRANCH   1  14
HETATM   14  C   UNL     1     -42.333 -47.961  10.967  1.00  0.00     0.102 C 
HETATM   15  C   UNL     1     -40.971 -47.318  11.245  1.00  0.00     0.034 C 
BRANCH  14  16
HETATM   16  C   UNL     1     -42.723 -47.850   9.477  1.00  0.00     0.174 C 
BRANCH  16  17
HETATM   17  N   UNL     1     -44.044 -47.303   9.261  1.00  0.00    -0.285 N 
HETATM   18  C   UNL     1     -44.371 -46.041   8.876  1.00  0.00     0.201 A 
HETATM   19  N   UNL     1     -45.679 -45.924   8.831  1.00  0.00    -0.346 N 
HETATM   20  C   UNL     1     -46.111 -47.158   9.223  1.00  0.00     0.198 A 
ATOM     21  HN  UNL     1     -46.234 -45.110   8.567  1.00  0.00     0.167 HD
HETATM   22  N   UNL     1     -45.146 -48.039   9.496  1.00  0.00    -0.293 N 
ATOM     23  HN  UNL     1     -45.223 -49.010   9.801  1.00  0.00     0.188 HD
ENDBRANCH  16  17
ENDBRANCH  14  16
ENDBRANCH   1  14
TORSDOF 3
ENDMDL
MODEL 2
REMARK VINA RESULT:      -6.3      2.694      4.942
REMARK  3 active torsions:
REMARK  status: ('A' for Active; 'I' for Inactive)
REMARK    1  A    between atoms: C_2  and  C_3 
REMARK    2  A    between atoms: C_2  and  N_11 
REMARK    3  A    between atoms: C_3  and  N_4 
REMARK       I    between atoms: N_11  and  C_12 
REMARK       I    between atoms: C_12  and  N_14 
ROOT
HETATM    1  N   UNL     1     -42.285 -49.700  11.856  1.00  0.00    -0.337 N 
HETATM    2  C   UNL     1     -42.075 -51.028  12.139  1.00  0.00     0.318 C 
HETATM    3  O   UNL     1     -41.083 -51.612  11.713  1.00  0.00    -0.247 OA
HETATM    4  N   UNL     1     -43.020 -51.622  12.965  1.00  0.00    -0.334 N 
HETATM    5  C   UNL     1     -44.200 -50.957  13.527  1.00  0.00     0.127 C 
HETATM    6  C   UNL     1     -45.478 -51.511  12.915  1.00  0.00     0.021 C 
HETATM    7  C   UNL     1     -46.075 -52.736  13.616  1.00  0.00     0.010 C 
HETATM    8  C   UNL     1     -45.119 -53.843  14.134  1.00  0.00    -0.046 C 
HETATM    9  C   UNL     1     -44.761 -53.617  15.619  1.00  0.00     0.015 C 
HETATM   10  C   UNL     1     -45.898 -55.184  14.095  1.00  0.00     0.015 C 
HETATM   11  C   UNL     1     -43.861 -53.999  13.244  1.00  0.00     0.028 C 
HETATM   12  C   UNL     1     -42.736 -52.978  13.438  1.00  0.00     0.128 C 
HETATM   13  H   UNL     1     -43.257 -49.465  11.725  1.00  0.00     0.164 HD
ENDROOT
BRANCH   1  14
HETATM   14  C   UNL     1     -41.345 -48.927  11.030  1.00  0.00     0.102 C 
HETATM   15  C   UNL     1     -42.147 -47.872  10.262  1.00  0.00     0.034 C 
BRANCH  14  16
HETATM   16  C   UNL     1     -40.219 -48.287  11.871  1.00  0.00     0.174 C 
BRANCH  16  17
HETATM   17  N   UNL     1     -39.072 -49.148  12.056  1.00  0.00    -0.285 N 
HETATM   18  C   UNL     1     -38.351 -49.344  13.191  1.00  0.00     0.201 A 
HETATM   19  N   UNL     1     -37.361 -50.170  12.943  1.00  0.00    -0.346 N 
HETATM   20  C   UNL     1     -37.512 -50.439  11.612  1.00  0.00     0.198 A 
ATOM     21  HN  UNL     1     -36.652 -50.523  13.586  1.00  0.00     0.167 HD
HETATM   22  N   UNL     1     -38.549 -49.838  11.024  1.00  0.00    -0.293 N 
ATOM     23  HN  UNL     1     -38.861 -49.887  10.054  1.00  0.00     0.188 HD
ENDBRANCH  16  17
ENDBRANCH  14  16
ENDBRANCH   1  14
TORSDOF 3
ENDMDL
MODEL 3
REMARK VINA RESULT:      -5.9      3.030      7.475
REMARK  3 active torsions:
REMARK  status: ('A' for Active; 'I' for Inactive)
REMARK    1  A    between atoms: C_2  and  C_3 
REMARK    2  A    between atoms: C_2  and  N_11 
REMARK    3  A    between atoms: C_3  and  N_4 
REMARK       I    between atoms: N_11  and  C_12 
REMARK       I    between atoms: C_12  and  N_14 
ROOT
HETATM    1  N   UNL     1     -39.293 -48.565  11.744  1.00  0.00    -0.337 N 
HETATM    2  C   UNL     1     -40.557 -48.150  11.402  1.00  0.00     0.318 C 
HETATM    3  O   UNL     1     -41.336 -48.911  10.835  1.00  0.00    -0.247 OA
HETATM    4  N   UNL     1     -40.888 -46.857  11.785  1.00  0.00    -0.334 N 
HETATM    5  C   UNL     1     -40.005 -45.926  12.494  1.00  0.00     0.127 C 
HETATM    6  C   UNL     1     -39.612 -44.761  11.598  1.00  0.00     0.021 C 
HETATM    7  C   UNL     1     -40.566 -43.562  11.609  1.00  0.00     0.010 C 
HETATM    8  C   UNL     1     -42.095 -43.821  11.635  1.00  0.00    -0.046 C 
HETATM    9  C   UNL     1     -42.637 -43.805  13.082  1.00  0.00     0.015 C 
HETATM   10  C   UNL     1     -42.780 -42.625  10.924  1.00  0.00     0.015 C 
HETATM   11  C   UNL     1     -42.487 -45.112  10.875  1.00  0.00     0.028 C 
HETATM   12  C   UNL     1     -42.280 -46.443  11.604  1.00  0.00     0.128 C 
HETATM   13  H   UNL     1     -38.595 -47.843  11.659  1.00  0.00     0.164 HD
ENDROOT
BRANCH   1  14
HETATM   14  C   UNL     1     -38.817 -49.924  11.442  1.00  0.00     0.102 C 
HETATM   15  C   UNL     1     -37.348 -49.827  11.019  1.00  0.00     0.034 C 
BRANCH  14  16
HETATM   16  C   UNL     1     -39.004 -50.887  12.634  1.00  0.00     0.174 C 
BRANCH  16  17
HETATM   17  N   UNL     1     -40.311 -51.505  12.681  1.00  0.00    -0.285 N 
HETATM   18  C   UNL     1     -41.018 -51.879  13.779  1.00  0.00     0.201 A 
HETATM   19  N   UNL     1     -42.144 -52.442  13.404  1.00  0.00    -0.346 N 
HETATM   20  C   UNL     1     -42.065 -52.405  12.041  1.00  0.00     0.198 A 
ATOM     21  HN  UNL     1     -42.892 -52.815  13.988  1.00  0.00     0.167 HD
HETATM   22  N   UNL     1     -40.962 -51.838  11.550  1.00  0.00    -0.293 N 
ATOM     23  HN  UNL     1     -40.685 -51.695  10.578  1.00  0.00     0.188 HD
ENDBRANCH  16  17
ENDBRANCH  14  16
ENDBRANCH   1  14
TORSDOF 3
ENDMDL
MODEL 4
REMARK VINA RESULT:      -5.9      2.478      3.438
REMARK  3 active torsions:
REMARK  status: ('A' for Active; 'I' for Inactive)
REMARK    1  A    between atoms: C_2  and  C_3 
REMARK    2  A    between atoms: C_2  and  N_11 
REMARK    3  A    between atoms: C_3  and  N_4 
REMARK       I    between atoms: N_11  and  C_12 
REMARK       I    between atoms: C_12  and  N_14 
ROOT
HETATM    1  N   UNL     1     -42.322 -48.725  10.920  1.00  0.00    -0.337 N 
HETATM    2  C   UNL     1     -41.153 -49.072  11.550  1.00  0.00     0.318 C 
HETATM    3  O   UNL     1     -40.131 -48.410  11.389  1.00  0.00    -0.247 OA
HETATM    4  N   UNL     1     -41.231 -50.168  12.400  1.00  0.00    -0.334 N 
HETATM    5  C   UNL     1     -42.434 -50.967  12.652  1.00  0.00     0.127 C 
HETATM    6  C   UNL     1     -42.288 -52.367  12.075  1.00  0.00     0.021 C 
HETATM    7  C   UNL     1     -41.641 -53.403  13.000  1.00  0.00     0.010 C 
HETATM    8  C   UNL     1     -40.434 -52.976  13.876  1.00  0.00    -0.046 C 
HETATM    9  C   UNL     1     -40.895 -52.539  15.284  1.00  0.00     0.015 C 
HETATM   10  C   UNL     1     -39.555 -54.235  14.100  1.00  0.00     0.015 C 
HETATM   11  C   UNL     1     -39.556 -51.902  13.187  1.00  0.00     0.028 C 
HETATM   12  C   UNL     1     -40.058 -50.456  13.228  1.00  0.00     0.128 C 
HETATM   13  H   UNL     1     -42.877 -49.517  10.636  1.00  0.00     0.164 HD
ENDROOT
BRANCH   1  14
HETATM   14  C   UNL     1     -42.403 -47.561  10.024  1.00  0.00     0.102 C 
HETATM   15  C   UNL     1     -43.527 -47.817   9.015  1.00  0.00     0.034 C 
BRANCH  14  16
HETATM   16  C   UNL     1     -42.620 -46.243  10.797  1.00  0.00     0.174 C 
BRANCH  16  17
HETATM   17  N   UNL     1     -41.487 -45.345  10.745  1.00  0.00    -0.285 N 
HETATM   18  C   UNL     1     -41.395 -44.089  11.253  1.00  0.00     0.201 A 
HETATM   19  N   UNL     1     -40.216 -43.586  10.964  1.00  0.00    -0.346 N 
HETATM   20  C   UNL     1     -39.623 -44.587  10.249  1.00  0.00     0.198 A 
ATOM     21  HN  UNL     1     -39.838 -42.672  11.214  1.00  0.00     0.167 HD
HETATM   22  N   UNL     1     -40.361 -45.687  10.090  1.00  0.00    -0.293 N 
ATOM     23  HN  UNL     1     -40.134 -46.554   9.603  1.00  0.00     0.188 HD
ENDBRANCH  16  17
ENDBRANCH  14  16
ENDBRANCH   1  14
TORSDOF 3
ENDMDL
MODEL 5
REMARK VINA RESULT:      -5.9      2.479      3.814
REMARK  3 active torsions:
REMARK  status: ('A' for Active; 'I' for Inactive)
REMARK    1  A    between atoms: C_2  and  C_3 
REMARK    2  A    between atoms: C_2  and  N_11 
REMARK    3  A    between atoms: C_3  and  N_4 
REMARK       I    between atoms: N_11  and  C_12 
REMARK       I    between atoms: C_12  and  N_14 
ROOT
HETATM    1  N   UNL     1     -42.944 -49.186  12.123  1.00  0.00    -0.337 N 
HETATM    2  C   UNL     1     -42.500 -50.476  12.284  1.00  0.00     0.318 C 
HETATM    3  O   UNL     1     -41.431 -50.838  11.800  1.00  0.00    -0.247 OA
HETATM    4  N   UNL     1     -43.309 -51.297  13.057  1.00  0.00    -0.334 N 
HETATM    5  C   UNL     1     -44.574 -50.902  13.684  1.00  0.00     0.127 C 
HETATM    6  C   UNL     1     -45.750 -51.614  13.033  1.00  0.00     0.021 C 
HETATM    7  C   UNL     1     -46.108 -52.982  13.623  1.00  0.00     0.010 C 
HETATM    8  C   UNL     1     -44.963 -53.945  14.033  1.00  0.00    -0.046 C 
HETATM    9  C   UNL     1     -44.618 -53.793  15.530  1.00  0.00     0.015 C 
HETATM   10  C   UNL     1     -45.498 -55.393  13.877  1.00  0.00     0.015 C 
HETATM   11  C   UNL     1     -43.717 -53.800  13.125  1.00  0.00     0.028 C 
HETATM   12  C   UNL     1     -42.783 -52.619  13.404  1.00  0.00     0.128 C 
HETATM   13  H   UNL     1     -43.944 -49.114  12.020  1.00  0.00     0.164 HD
ENDROOT
BRANCH   1  14
HETATM   14  C   UNL     1     -42.171 -48.190  11.365  1.00  0.00     0.102 C 
HETATM   15  C   UNL     1     -43.134 -47.458  10.426  1.00  0.00     0.034 C 
BRANCH  14  16
HETATM   16  C   UNL     1     -41.418 -47.209  12.289  1.00  0.00     0.174 C 
BRANCH  16  17
HETATM   17  N   UNL     1     -40.757 -46.135  11.580  1.00  0.00    -0.285 N 
HETATM   18  C   UNL     1     -40.917 -44.798  11.755  1.00  0.00     0.201 A 
HETATM   19  N   UNL     1     -40.168 -44.151  10.891  1.00  0.00    -0.346 N 
HETATM   20  C   UNL     1     -39.574 -45.159  10.186  1.00  0.00     0.198 A 
ATOM     21  HN  UNL     1     -40.058 -43.144  10.775  1.00  0.00     0.167 HD
HETATM   22  N   UNL     1     -39.901 -46.394  10.573  1.00  0.00    -0.293 N 
ATOM     23  HN  UNL     1     -39.588 -47.292  10.204  1.00  0.00     0.188 HD
ENDBRANCH  16  17
ENDBRANCH  14  16
ENDBRANCH   1  14
TORSDOF 3
ENDMDL
MODEL 6
REMARK VINA RESULT:      -5.8      1.146      1.397
REMARK  3 active torsions:
REMARK  status: ('A' for Active; 'I' for Inactive)
REMARK    1  A    between atoms: C_2  and  C_3 
REMARK    2  A    between atoms: C_2  and  N_11 
REMARK    3  A    between atoms: C_3  and  N_4 
REMARK       I    between atoms: N_11  and  C_12 
REMARK       I    between atoms: C_12  and  N_14 
ROOT
HETATM    1  N   UNL     1     -41.693 -49.260  12.105  1.00  0.00    -0.337 N 
HETATM    2  C   UNL     1     -42.511 -49.741  13.098  1.00  0.00     0.318 C 
HETATM    3  O   UNL     1     -43.053 -48.977  13.891  1.00  0.00    -0.247 OA
HETATM    4  N   UNL     1     -42.709 -51.116  13.098  1.00  0.00    -0.334 N 
HETATM    5  C   UNL     1     -42.113 -52.063  12.151  1.00  0.00     0.127 C 
HETATM    6  C   UNL     1     -41.099 -52.960  12.846  1.00  0.00     0.021 C 
HETATM    7  C   UNL     1     -41.662 -54.240  13.473  1.00  0.00     0.010 C 
HETATM    8  C   UNL     1     -43.025 -54.175  14.211  1.00  0.00    -0.046 C 
HETATM    9  C   UNL     1     -44.187 -54.556  13.268  1.00  0.00     0.015 C 
HETATM   10  C   UNL     1     -43.009 -55.269  15.311  1.00  0.00     0.015 C 
HETATM   11  C   UNL     1     -43.256 -52.810  14.905  1.00  0.00     0.028 C 
HETATM   12  C   UNL     1     -43.714 -51.645  14.022  1.00  0.00     0.128 C 
HETATM   13  H   UNL     1     -40.910 -49.860  11.901  1.00  0.00     0.164 HD
ENDROOT
BRANCH   1  14
HETATM   14  C   UNL     1     -41.426 -47.821  11.952  1.00  0.00     0.102 C 
HETATM   15  C   UNL     1     -40.075 -47.519  12.609  1.00  0.00     0.034 C 
BRANCH  14  16
HETATM   16  C   UNL     1     -41.453 -47.375  10.474  1.00  0.00     0.174 C 
BRANCH  16  17
HETATM   17  N   UNL     1     -42.758 -47.484   9.860  1.00  0.00    -0.285 N 
HETATM   18  C   UNL     1     -43.969 -47.518  10.475  1.00  0.00     0.201 A 
HETATM   19  N   UNL     1     -44.913 -47.664   9.573  1.00  0.00    -0.346 N 
HETATM   20  C   UNL     1     -44.212 -47.734   8.403  1.00  0.00     0.198 A 
ATOM     21  HN  UNL     1     -45.923 -47.712   9.713  1.00  0.00     0.167 HD
HETATM   22  N   UNL     1     -42.887 -47.626   8.527  1.00  0.00    -0.293 N 
ATOM     23  HN  UNL     1     -42.166 -47.646   7.805  1.00  0.00     0.188 HD
ENDBRANCH  16  17
ENDBRANCH  14  16
ENDBRANCH   1  14
TORSDOF 3
ENDMDL
MODEL 7
REMARK VINA RESULT:      -5.7      2.676      3.989
REMARK  3 active torsions:
REMARK  status: ('A' for Active; 'I' for Inactive)
REMARK    1  A    between atoms: C_2  and  C_3 
REMARK    2  A    between atoms: C_2  and  N_11 
REMARK    3  A    between atoms: C_3  and  N_4 
REMARK       I    between atoms: N_11  and  C_12 
REMARK       I    between atoms: C_12  and  N_14 
ROOT
HETATM    1  N   UNL     1     -40.673 -51.141  13.005  1.00  0.00    -0.337 N 
HETATM    2  C   UNL     1     -41.806 -50.619  13.579  1.00  0.00     0.318 C 
HETATM    3  O   UNL     1     -41.758 -49.582  14.235  1.00  0.00    -0.247 OA
HETATM    4  N   UNL     1     -42.983 -51.310  13.320  1.00  0.00    -0.334 N 
HETATM    5  C   UNL     1     -43.095 -52.530  12.514  1.00  0.00     0.127 C 
HETATM    6  C   UNL     1     -43.464 -53.722  13.383  1.00  0.00     0.021 C 
HETATM    7  C   UNL     1     -44.964 -53.955  13.594  1.00  0.00     0.010 C 
HETATM    8  C   UNL     1     -45.887 -52.729  13.819  1.00  0.00    -0.046 C 
HETATM    9  C   UNL     1     -46.514 -52.254  12.489  1.00  0.00     0.015 C 
HETATM   10  C   UNL     1     -47.079 -53.200  14.693  1.00  0.00     0.015 C 
HETATM   11  C   UNL     1     -45.171 -51.581  14.573  1.00  0.00     0.028 C 
HETATM   12  C   UNL     1     -44.233 -50.687  13.757  1.00  0.00     0.128 C 
HETATM   13  H   UNL     1     -40.650 -52.149  13.002  1.00  0.00     0.164 HD
ENDROOT
BRANCH   1  14
HETATM   14  C   UNL     1     -39.360 -50.494  13.156  1.00  0.00     0.102 C 
HETATM   15  C   UNL     1     -38.339 -51.574  13.526  1.00  0.00     0.034 C 
BRANCH  14  16
HETATM   16  C   UNL     1     -38.940 -49.722  11.886  1.00  0.00     0.174 C 
BRANCH  16  17
HETATM   17  N   UNL     1     -39.949 -48.806  11.403  1.00  0.00    -0.285 N 
HETATM   18  C   UNL     1     -40.178 -47.529  11.808  1.00  0.00     0.201 A 
HETATM   19  N   UNL     1     -41.210 -47.042  11.157  1.00  0.00    -0.346 N 
HETATM   20  C   UNL     1     -41.595 -48.088  10.367  1.00  0.00     0.198 A 
ATOM     21  HN  UNL     1     -41.622 -46.112  11.225  1.00  0.00     0.167 HD
HETATM   22  N   UNL     1     -40.851 -49.191  10.481  1.00  0.00    -0.293 N 
ATOM     23  HN  UNL     1     -40.942 -50.085   9.998  1.00  0.00     0.188 HD
ENDBRANCH  16  17
ENDBRANCH  14  16
ENDBRANCH   1  14
TORSDOF 3
ENDMDL
MODEL 8
REMARK VINA RESULT:      -5.6     13.593     16.343
REMARK  3 active torsions:
REMARK  status: ('A' for Active; 'I' for Inactive)
REMARK    1  A    between atoms: C_2  and  C_3 
REMARK    2  A    between atoms: C_2  and  N_11 
REMARK    3  A    between atoms: C_3  and  N_4 
REMARK       I    between atoms: N_11  and  C_12 
REMARK       I    between atoms: C_12  and  N_14 
ROOT
HETATM    1  N   UNL     1     -51.606 -52.270  -0.835  1.00  0.00    -0.337 N 
HETATM    2  C   UNL     1     -50.457 -51.719  -0.322  1.00  0.00     0.318 C 
HETATM    3  O   UNL     1     -49.511 -52.430   0.005  1.00  0.00    -0.247 OA
HETATM    4  N   UNL     1     -50.434 -50.333  -0.255  1.00  0.00    -0.334 N 
HETATM    5  C   UNL     1     -51.523 -49.441  -0.667  1.00  0.00     0.127 C 
HETATM    6  C   UNL     1     -52.139 -48.744   0.536  1.00  0.00     0.021 C 
HETATM    7  C   UNL     1     -51.477 -47.426   0.953  1.00  0.00     0.010 C 
HETATM    8  C   UNL     1     -49.930 -47.319   0.913  1.00  0.00    -0.046 C 
HETATM    9  C   UNL     1     -49.448 -46.720  -0.426  1.00  0.00     0.015 C 
HETATM   10  C   UNL     1     -49.508 -46.296   2.000  1.00  0.00     0.015 C 
HETATM   11  C   UNL     1     -49.237 -48.666   1.236  1.00  0.00     0.028 C 
HETATM   12  C   UNL     1     -49.164 -49.702   0.111  1.00  0.00     0.128 C 
HETATM   13  H   UNL     1     -52.444 -51.786  -0.555  1.00  0.00     0.164 HD
ENDROOT
BRANCH   1  14
HETATM   14  C   UNL     1     -51.758 -53.723  -1.006  1.00  0.00     0.102 C 
HETATM   15  C   UNL     1     -53.128 -54.124  -0.451  1.00  0.00     0.034 C 
BRANCH  14  16
HETATM   16  C   UNL     1     -51.588 -54.159  -2.477  1.00  0.00     0.174 C 
BRANCH  16  17
HETATM   17  N   UNL     1     -50.541 -55.137  -2.676  1.00  0.00    -0.285 N 
HETATM   18  C   UNL     1     -49.228 -55.032  -2.343  1.00  0.00     0.201 A 
HETATM   19  N   UNL     1     -48.592 -56.116  -2.725  1.00  0.00    -0.346 N 
HETATM   20  C   UNL     1     -49.576 -56.856  -3.315  1.00  0.00     0.198 A 
ATOM     21  HN  UNL     1     -47.605 -56.347  -2.609  1.00  0.00     0.167 HD
HETATM   22  N   UNL     1     -50.789 -56.300  -3.308  1.00  0.00    -0.293 N 
ATOM     23  HN  UNL     1     -51.668 -56.659  -3.682  1.00  0.00     0.188 HD
ENDBRANCH  16  17
ENDBRANCH  14  16
ENDBRANCH   1  14
TORSDOF 3
ENDMDL
MODEL 9
REMARK VINA RESULT:      -5.5      1.528      2.478
REMARK  3 active torsions:
REMARK  status: ('A' for Active; 'I' for Inactive)
REMARK    1  A    between atoms: C_2  and  C_3 
REMARK    2  A    between atoms: C_2  and  N_11 
REMARK    3  A    between atoms: C_3  and  N_4 
REMARK       I    between atoms: N_11  and  C_12 
REMARK       I    between atoms: C_12  and  N_14 
ROOT
HETATM    1  N   UNL     1     -42.964 -47.446  11.478  1.00  0.00    -0.337 N 
HETATM    2  C   UNL     1     -42.167 -48.545  11.269  1.00  0.00     0.318 C 
HETATM    3  O   UNL     1     -41.401 -48.592  10.310  1.00  0.00    -0.247 OA
HETATM    4  N   UNL     1     -42.257 -49.543  12.229  1.00  0.00    -0.334 N 
HETATM    5  C   UNL     1     -43.128 -49.516  13.408  1.00  0.00     0.127 C 
HETATM    6  C   UNL     1     -44.229 -50.560  13.294  1.00  0.00     0.021 C 
HETATM    7  C   UNL     1     -43.880 -51.955  13.824  1.00  0.00     0.010 C 
HETATM    8  C   UNL     1     -42.466 -52.529  13.549  1.00  0.00    -0.046 C 
HETATM    9  C   UNL     1     -41.509 -52.238  14.726  1.00  0.00     0.015 C 
HETATM   10  C   UNL     1     -42.595 -54.074  13.493  1.00  0.00     0.015 C 
HETATM   11  C   UNL     1     -41.890 -52.053  12.193  1.00  0.00     0.028 C 
HETATM   12  C   UNL     1     -41.294 -50.643  12.142  1.00  0.00     0.128 C 
HETATM   13  H   UNL     1     -43.871 -47.672  11.856  1.00  0.00     0.164 HD
ENDROOT
BRANCH   1  14
HETATM   14  C   UNL     1     -42.944 -46.290  10.568  1.00  0.00     0.102 C 
HETATM   15  C   UNL     1     -41.571 -45.621  10.684  1.00  0.00     0.034 C 
BRANCH  14  16
HETATM   16  C   UNL     1     -43.262 -46.689   9.111  1.00  0.00     0.174 C 
BRANCH  16  17
HETATM   17  N   UNL     1     -44.624 -47.136   8.915  1.00  0.00    -0.285 N 
HETATM   18  C   UNL     1     -45.066 -48.135   8.108  1.00  0.00     0.201 A 
HETATM   19  N   UNL     1     -46.376 -48.206   8.177  1.00  0.00    -0.346 N 
HETATM   20  C   UNL     1     -46.692 -47.196   9.041  1.00  0.00     0.198 A 
ATOM     21  HN  UNL     1     -47.002 -48.856   7.702  1.00  0.00     0.167 HD
HETATM   22  N   UNL     1     -45.652 -46.513   9.523  1.00  0.00    -0.293 N 
ATOM     23  HN  UNL     1     -45.639 -45.728  10.175  1.00  0.00     0.188 HD
ENDBRANCH  16  17
ENDBRANCH  14  16
ENDBRANCH   1  14
TORSDOF 3
ENDMDL
