MODEL 1
REMARK VINA RESULT:      -6.0      0.000      0.000
REMARK  4 active torsions:
REMARK  status: ('A' for Active; 'I' for Inactive)
REMARK    1  A    between atoms: N_2  and  C_4 
REMARK    2  A    between atoms: C_4  and  C_5 
REMARK    3  A    between atoms: C_5  and  N_6 
REMARK       I    between atoms: N_6  and  C_7 
REMARK       I    between atoms: C_7  and  N_9 
REMARK    4  A    between atoms: N_9  and  C_10 
ROOT
HETATM    1  N   UNL     1     -42.463 -53.034  12.289  1.00  0.00    -0.340 N 
HETATM    2  C   UNL     1     -41.849 -51.798  12.203  1.00  0.00     0.322 C 
HETATM    3  O   UNL     1     -42.425 -50.758  12.487  1.00  0.00    -0.247 OA
HETATM    4  N   UNL     1     -40.531 -51.922  11.841  1.00  0.00    -0.288 N 
HETATM    5  H   UNL     1     -42.146 -53.780  11.686  1.00  0.00     0.164 HD
HETATM    6  H   UNL     1     -40.097 -52.825  11.906  1.00  0.00     0.172 HD
ENDROOT
BRANCH   1   7
HETATM    7  C   UNL     1     -43.835 -53.171  12.773  1.00  0.00     0.166 C 
BRANCH   7   8
HETATM    8  C   UNL     1     -43.935 -53.400  14.329  1.00  0.00     0.174 C 
HETATM    9  C   UNL     1     -44.210 -52.038  15.051  1.00  0.00     0.043 C 
HETATM   10  C   UNL     1     -45.292 -51.120  14.476  1.00  0.00     0.003 C 
HETATM   11  C   UNL     1     -46.751 -51.487  14.722  1.00  0.00     0.000 C 
HETATM   12  C   UNL     1     -47.060 -52.905  15.171  1.00  0.00     0.000 C 
HETATM   13  C   UNL     1     -46.524 -53.982  14.238  1.00  0.00     0.003 C 
HETATM   14  C   UNL     1     -45.098 -54.415  14.588  1.00  0.00     0.043 C 
BRANCH   8  15
HETATM   15  N   UNL     1     -42.639 -54.038  14.823  1.00  0.00     0.091 N 
HETATM   16  C   UNL     1     -41.883 -53.221  15.787  1.00  0.00     0.310 C 
HETATM   17  C   UNL     1     -42.804 -55.376  15.415  1.00  0.00     0.310 C 
ENDBRANCH   8  15
ENDBRANCH   7   8
ENDBRANCH   1   7
BRANCH   4  18
HETATM   18  C   UNL     1     -39.708 -50.832  11.745  1.00  0.00     0.168 A 
HETATM   19  N   UNL     1     -39.716 -49.822  10.908  1.00  0.00    -0.279 N 
HETATM   20  N   UNL     1     -38.715 -48.907  11.190  1.00  0.00    -0.303 N 
ATOM     21  HN  UNL     1     -40.381 -49.721  10.140  1.00  0.00     0.189 HD
HETATM   22  C   UNL     1     -38.004 -49.274  12.234  1.00  0.00     0.160 A 
ATOM     23  HN  UNL     1     -38.549 -48.055  10.654  1.00  0.00     0.186 HD
HETATM   24  S   UNL     1     -38.467 -50.776  12.922  1.00  0.00    -0.046 SA
ENDBRANCH   4  18
TORSDOF 4
ENDMDL
MODEL 2
REMARK VINA RESULT:      -6.0      1.439      1.948
REMARK  4 active torsions:
REMARK  status: ('A' for Active; 'I' for Inactive)
REMARK    1  A    between atoms: N_2  and  C_4 
REMARK    2  A    between atoms: C_4  and  C_5 
REMARK    3  A    between atoms: C_5  and  N_6 
REMARK       I    between atoms: N_6  and  C_7 
REMARK       I    between atoms: C_7  and  N_9 
REMARK    4  A    between atoms: N_9  and  C_10 
ROOT
HETATM    1  N   UNL     1     -43.880 -51.832  12.639  1.00  0.00    -0.340 N 
HETATM    2  C   UNL     1     -42.777 -50.998  12.576  1.00  0.00     0.322 C 
HETATM    3  O   UNL     1     -42.693 -49.970  13.232  1.00  0.00    -0.247 OA
HETATM    4  N   UNL     1     -41.806 -51.521  11.759  1.00  0.00    -0.288 N 
HETATM    5  H   UNL     1     -44.110 -52.398  11.835  1.00  0.00     0.164 HD
HETATM    6  H   UNL     1     -41.866 -52.489  11.498  1.00  0.00     0.172 HD
ENDROOT
BRANCH   1   7
HETATM    7  C   UNL     1     -44.997 -51.550  13.538  1.00  0.00     0.166 C 
BRANCH   7   8
HETATM    8  C   UNL     1     -45.136 -52.588  14.716  1.00  0.00     0.174 C 
HETATM    9  C   UNL     1     -44.286 -52.117  15.944  1.00  0.00     0.043 C 
HETATM   10  C   UNL     1     -44.391 -50.652  16.377  1.00  0.00     0.003 C 
HETATM   11  C   UNL     1     -45.638 -50.213  17.136  1.00  0.00     0.000 C 
HETATM   12  C   UNL     1     -46.854 -51.122  17.086  1.00  0.00     0.000 C 
HETATM   13  C   UNL     1     -47.331 -51.444  15.676  1.00  0.00     0.003 C 
HETATM   14  C   UNL     1     -46.653 -52.684  15.089  1.00  0.00     0.043 C 
BRANCH   8  15
HETATM   15  N   UNL     1     -44.687 -53.962  14.225  1.00  0.00     0.091 N 
HETATM   16  C   UNL     1     -43.643 -54.595  15.048  1.00  0.00     0.310 C 
HETATM   17  C   UNL     1     -45.776 -54.940  14.066  1.00  0.00     0.310 C 
ENDBRANCH   8  15
ENDBRANCH   7   8
ENDBRANCH   1   7
BRANCH   4  18
HETATM   18  C   UNL     1     -40.601 -50.895  11.587  1.00  0.00     0.168 A 
HETATM   19  N   UNL     1     -40.166 -50.123  10.618  1.00  0.00    -0.279 N 
HETATM   20  N   UNL     1     -38.881 -49.665  10.859  1.00  0.00    -0.303 N 
ATOM     21  HN  UNL     1     -40.708 -49.889   9.787  1.00  0.00     0.189 HD
HETATM   22  C   UNL     1     -38.414 -50.111  12.005  1.00  0.00     0.160 A 
ATOM     23  HN  UNL     1     -38.361 -49.056  10.226  1.00  0.00     0.186 HD
HETATM   24  S   UNL     1     -39.479 -51.156  12.852  1.00  0.00    -0.046 SA
ENDBRANCH   4  18
TORSDOF 4
ENDMDL
MODEL 3
REMARK VINA RESULT:      -6.0      2.833      6.884
REMARK  4 active torsions:
REMARK  status: ('A' for Active; 'I' for Inactive)
REMARK    1  A    between atoms: N_2  and  C_4 
REMARK    2  A    between atoms: C_4  and  C_5 
REMARK    3  A    between atoms: C_5  and  N_6 
REMARK       I    between atoms: N_6  and  C_7 
REMARK       I    between atoms: C_7  and  N_9 
REMARK    4  A    between atoms: N_9  and  C_10 
ROOT
HETATM    1  N   UNL     1     -42.268 -52.228  11.668  1.00  0.00    -0.340 N 
HETATM    2  C   UNL     1     -43.046 -52.778  12.672  1.00  0.00     0.322 C 
HETATM    3  O   UNL     1     -42.606 -53.017  13.787  1.00  0.00    -0.247 OA
HETATM    4  N   UNL     1     -44.347 -52.933  12.262  1.00  0.00    -0.288 N 
HETATM    5  H   UNL     1     -42.502 -52.425  10.706  1.00  0.00     0.164 HD
HETATM    6  H   UNL     1     -44.653 -52.451  11.436  1.00  0.00     0.172 HD
ENDROOT
BRANCH   1   7
HETATM    7  C   UNL     1     -40.875 -51.857  11.902  1.00  0.00     0.166 C 
BRANCH   7   8
HETATM    8  C   UNL     1     -40.682 -50.341  12.291  1.00  0.00     0.174 C 
HETATM    9  C   UNL     1     -40.584 -50.199  13.847  1.00  0.00     0.043 C 
HETATM   10  C   UNL     1     -39.672 -51.166  14.606  1.00  0.00     0.003 C 
HETATM   11  C   UNL     1     -38.166 -50.936  14.541  1.00  0.00     0.000 C 
HETATM   12  C   UNL     1     -37.635 -50.027  13.445  1.00  0.00     0.000 C 
HETATM   13  C   UNL     1     -38.042 -50.446  12.039  1.00  0.00     0.003 C 
HETATM   14  C   UNL     1     -39.374 -49.834  11.599  1.00  0.00     0.043 C 
BRANCH   8  15
HETATM   15  N   UNL     1     -41.850 -49.532  11.733  1.00  0.00     0.091 N 
HETATM   16  C   UNL     1     -42.688 -48.882  12.754  1.00  0.00     0.310 C 
HETATM   17  C   UNL     1     -41.466 -48.498  10.757  1.00  0.00     0.310 C 
ENDBRANCH   8  15
ENDBRANCH   7   8
ENDBRANCH   1   7
BRANCH   4  18
HETATM   18  C   UNL     1     -45.312 -53.410  13.108  1.00  0.00     0.168 A 
HETATM   19  N   UNL     1     -45.607 -54.637  13.468  1.00  0.00    -0.279 N 
HETATM   20  N   UNL     1     -46.647 -54.672  14.382  1.00  0.00    -0.303 N 
ATOM     21  HN  UNL     1     -45.128 -55.466  13.116  1.00  0.00     0.189 HD
HETATM   22  C   UNL     1     -47.080 -53.465  14.671  1.00  0.00     0.160 A 
ATOM     23  HN  UNL     1     -47.030 -55.529  14.782  1.00  0.00     0.186 HD
HETATM   24  S   UNL     1     -46.291 -52.200  13.821  1.00  0.00    -0.046 SA
ENDBRANCH   4  18
TORSDOF 4
ENDMDL
MODEL 4
REMARK VINA RESULT:      -5.8      2.724      3.107
REMARK  4 active torsions:
REMARK  status: ('A' for Active; 'I' for Inactive)
REMARK    1  A    between atoms: N_2  and  C_4 
REMARK    2  A    between atoms: C_4  and  C_5 
REMARK    3  A    between atoms: C_5  and  N_6 
REMARK       I    between atoms: N_6  and  C_7 
REMARK       I    between atoms: C_7  and  N_9 
REMARK    4  A    between atoms: N_9  and  C_10 
ROOT
HETATM    1  N   UNL     1     -43.226 -50.613  12.530  1.00  0.00    -0.340 N 
HETATM    2  C   UNL     1     -42.521 -49.424  12.478  1.00  0.00     0.322 C 
HETATM    3  O   UNL     1     -42.032 -48.907  13.471  1.00  0.00    -0.247 OA
HETATM    4  N   UNL     1     -42.397 -48.977  11.185  1.00  0.00    -0.288 N 
HETATM    5  H   UNL     1     -43.938 -50.790  11.836  1.00  0.00     0.164 HD
HETATM    6  H   UNL     1     -42.591 -49.615  10.434  1.00  0.00     0.172 HD
ENDROOT
BRANCH   1   7
HETATM    7  C   UNL     1     -43.386 -51.349  13.782  1.00  0.00     0.166 C 
BRANCH   7   8
HETATM    8  C   UNL     1     -42.866 -52.835  13.712  1.00  0.00     0.174 C 
HETATM    9  C   UNL     1     -43.055 -53.533  15.101  1.00  0.00     0.043 C 
HETATM   10  C   UNL     1     -44.399 -53.366  15.816  1.00  0.00     0.003 C 
HETATM   11  C   UNL     1     -45.590 -54.171  15.307  1.00  0.00     0.000 C 
HETATM   12  C   UNL     1     -45.492 -54.780  13.918  1.00  0.00     0.000 C 
HETATM   13  C   UNL     1     -45.184 -53.772  12.819  1.00  0.00     0.003 C 
HETATM   14  C   UNL     1     -43.682 -53.573  12.599  1.00  0.00     0.043 C 
BRANCH   8  15
HETATM   15  N   UNL     1     -41.399 -52.830  13.289  1.00  0.00     0.091 N 
HETATM   16  C   UNL     1     -40.487 -52.192  14.254  1.00  0.00     0.310 C 
HETATM   17  C   UNL     1     -40.848 -54.159  12.976  1.00  0.00     0.310 C 
ENDBRANCH   8  15
ENDBRANCH   7   8
ENDBRANCH   1   7
BRANCH   4  18
HETATM   18  C   UNL     1     -41.691 -47.844  10.884  1.00  0.00     0.168 A 
HETATM   19  N   UNL     1     -40.402 -47.652  10.724  1.00  0.00    -0.279 N 
HETATM   20  N   UNL     1     -40.112 -46.340  10.387  1.00  0.00    -0.303 N 
ATOM     21  HN  UNL     1     -39.699 -48.382  10.834  1.00  0.00     0.189 HD
HETATM   22  C   UNL     1     -41.201 -45.609  10.305  1.00  0.00     0.160 A 
ATOM     23  HN  UNL     1     -39.169 -45.986  10.224  1.00  0.00     0.186 HD
HETATM   24  S   UNL     1     -42.654 -46.444  10.674  1.00  0.00    -0.046 SA
ENDBRANCH   4  18
TORSDOF 4
ENDMDL
MODEL 5
REMARK VINA RESULT:      -5.8      2.850      4.534
REMARK  4 active torsions:
REMARK  status: ('A' for Active; 'I' for Inactive)
REMARK    1  A    between atoms: N_2  and  C_4 
REMARK    2  A    between atoms: C_4  and  C_5 
REMARK    3  A    between atoms: C_5  and  N_6 
REMARK       I    between atoms: N_6  and  C_7 
REMARK       I    between atoms: C_7  and  N_9 
REMARK    4  A    between atoms: N_9  and  C_10 
ROOT
HETATM    1  N   UNL     1     -41.921 -51.156  11.743  1.00  0.00    -0.340 N 
HETATM    2  C   UNL     1     -41.214 -49.969  11.661  1.00  0.00     0.322 C 
HETATM    3  O   UNL     1     -40.064 -49.861  12.061  1.00  0.00    -0.247 OA
HETATM    4  N   UNL     1     -41.944 -49.000  11.018  1.00  0.00    -0.288 N 
HETATM    5  H   UNL     1     -42.929 -51.121  11.806  1.00  0.00     0.164 HD
HETATM    6  H   UNL     1     -42.753 -49.277  10.492  1.00  0.00     0.172 HD
ENDROOT
BRANCH   1   7
HETATM    7  C   UNL     1     -41.310 -52.371  12.277  1.00  0.00     0.166 C 
BRANCH   7   8
HETATM    8  C   UNL     1     -41.953 -52.856  13.633  1.00  0.00     0.174 C 
HETATM    9  C   UNL     1     -41.450 -54.299  13.974  1.00  0.00     0.043 C 
HETATM   10  C   UNL     1     -39.953 -54.593  13.843  1.00  0.00     0.003 C 
HETATM   11  C   UNL     1     -39.019 -54.066  14.927  1.00  0.00     0.000 C 
HETATM   12  C   UNL     1     -39.544 -52.976  15.846  1.00  0.00     0.000 C 
HETATM   13  C   UNL     1     -40.055 -51.741  15.116  1.00  0.00     0.003 C 
HETATM   14  C   UNL     1     -41.537 -51.840  14.748  1.00  0.00     0.043 C 
BRANCH   8  15
HETATM   15  N   UNL     1     -43.474 -52.815  13.506  1.00  0.00     0.091 N 
HETATM   16  C   UNL     1     -44.057 -53.943  12.762  1.00  0.00     0.310 C 
HETATM   17  C   UNL     1     -44.191 -52.715  14.787  1.00  0.00     0.310 C 
ENDBRANCH   8  15
ENDBRANCH   7   8
ENDBRANCH   1   7
BRANCH   4  18
HETATM   18  C   UNL     1     -41.426 -47.758  10.774  1.00  0.00     0.168 A 
HETATM   19  N   UNL     1     -40.185 -47.362  10.609  1.00  0.00    -0.279 N 
HETATM   20  N   UNL     1     -40.105 -46.005  10.344  1.00  0.00    -0.303 N 
ATOM     21  HN  UNL     1     -39.376 -47.981  10.669  1.00  0.00     0.189 HD
HETATM   22  C   UNL     1     -41.294 -45.446  10.315  1.00  0.00     0.160 A 
ATOM     23  HN  UNL     1     -39.231 -45.502  10.189  1.00  0.00     0.186 HD
HETATM   24  S   UNL     1     -42.595 -46.513  10.654  1.00  0.00    -0.046 SA
ENDBRANCH   4  18
TORSDOF 4
ENDMDL
MODEL 6
REMARK VINA RESULT:      -5.6      2.925      4.041
REMARK  4 active torsions:
REMARK  status: ('A' for Active; 'I' for Inactive)
REMARK    1  A    between atoms: N_2  and  C_4 
REMARK    2  A    between atoms: C_4  and  C_5 
REMARK    3  A    between atoms: C_5  and  N_6 
REMARK       I    between atoms: N_6  and  C_7 
REMARK       I    between atoms: C_7  and  N_9 
REMARK    4  A    between atoms: N_9  and  C_10 
ROOT
HETATM    1  N   UNL     1     -43.343 -50.143  12.637  1.00  0.00    -0.340 N 
HETATM    2  C   UNL     1     -42.521 -49.035  12.533  1.00  0.00     0.322 C 
HETATM    3  O   UNL     1     -41.883 -48.600  13.481  1.00  0.00    -0.247 OA
HETATM    4  N   UNL     1     -42.476 -48.570  11.242  1.00  0.00    -0.288 N 
HETATM    5  H   UNL     1     -44.135 -50.224  12.015  1.00  0.00     0.164 HD
HETATM    6  H   UNL     1     -42.811 -49.163  10.504  1.00  0.00     0.172 HD
ENDROOT
BRANCH   1   7
HETATM    7  C   UNL     1     -43.460 -50.890  13.887  1.00  0.00     0.166 C 
BRANCH   7   8
HETATM    8  C   UNL     1     -44.513 -52.061  13.827  1.00  0.00     0.174 C 
HETATM    9  C   UNL     1     -44.020 -53.171  12.839  1.00  0.00     0.043 C 
HETATM   10  C   UNL     1     -42.564 -53.635  12.942  1.00  0.00     0.003 C 
HETATM   11  C   UNL     1     -42.183 -54.560  14.092  1.00  0.00     0.000 C 
HETATM   12  C   UNL     1     -43.139 -54.660  15.268  1.00  0.00     0.000 C 
HETATM   13  C   UNL     1     -43.468 -53.322  15.916  1.00  0.00     0.003 C 
HETATM   14  C   UNL     1     -44.674 -52.632  15.276  1.00  0.00     0.043 C 
BRANCH   8  15
HETATM   15  N   UNL     1     -45.863 -51.495  13.396  1.00  0.00     0.091 N 
HETATM   16  C   UNL     1     -46.499 -52.213  12.278  1.00  0.00     0.310 C 
HETATM   17  C   UNL     1     -46.858 -51.394  14.476  1.00  0.00     0.310 C 
ENDBRANCH   8  15
ENDBRANCH   7   8
ENDBRANCH   1   7
BRANCH   4  18
HETATM   18  C   UNL     1     -41.683 -47.511  10.889  1.00  0.00     0.168 A 
HETATM   19  N   UNL     1     -40.390 -47.440  10.678  1.00  0.00    -0.279 N 
HETATM   20  N   UNL     1     -39.996 -46.167  10.301  1.00  0.00    -0.303 N 
ATOM     21  HN  UNL     1     -39.750 -48.229  10.780  1.00  0.00     0.189 HD
HETATM   22  C   UNL     1     -41.018 -45.342  10.241  1.00  0.00     0.160 A 
ATOM     23  HN  UNL     1     -39.032 -45.902  10.096  1.00  0.00     0.186 HD
HETATM   24  S   UNL     1     -42.524 -46.035  10.681  1.00  0.00    -0.046 SA
ENDBRANCH   4  18
TORSDOF 4
ENDMDL
MODEL 7
REMARK VINA RESULT:      -5.5      3.841      7.007
REMARK  4 active torsions:
REMARK  status: ('A' for Active; 'I' for Inactive)
REMARK    1  A    between atoms: N_2  and  C_4 
REMARK    2  A    between atoms: C_4  and  C_5 
REMARK    3  A    between atoms: C_5  and  N_6 
REMARK       I    between atoms: N_6  and  C_7 
REMARK       I    between atoms: C_7  and  N_9 
REMARK    4  A    between atoms: N_9  and  C_10 
ROOT
HETATM    1  N   UNL     1     -41.101 -48.651  11.429  1.00  0.00    -0.340 N 
HETATM    2  C   UNL     1     -40.661 -49.934  11.698  1.00  0.00     0.322 C 
HETATM    3  O   UNL     1     -39.489 -50.190  11.937  1.00  0.00    -0.247 OA
HETATM    4  N   UNL     1     -41.708 -50.822  11.731  1.00  0.00    -0.288 N 
HETATM    5  H   UNL     1     -41.920 -48.527  10.852  1.00  0.00     0.164 HD
HETATM    6  H   UNL     1     -42.643 -50.461  11.799  1.00  0.00     0.172 HD
ENDROOT
BRANCH   1   7
HETATM    7  C   UNL     1     -40.187 -47.511  11.460  1.00  0.00     0.166 C 
BRANCH   7   8
HETATM    8  C   UNL     1     -40.313 -46.637  12.766  1.00  0.00     0.174 C 
HETATM    9  C   UNL     1     -39.502 -45.309  12.599  1.00  0.00     0.043 C 
HETATM   10  C   UNL     1     -39.662 -44.522  11.295  1.00  0.00     0.003 C 
HETATM   11  C   UNL     1     -40.936 -43.709  11.097  1.00  0.00     0.000 C 
HETATM   12  C   UNL     1     -42.121 -44.018  11.996  1.00  0.00     0.000 C 
HETATM   13  C   UNL     1     -42.562 -45.476  11.964  1.00  0.00     0.003 C 
HETATM   14  C   UNL     1     -41.833 -46.340  12.996  1.00  0.00     0.043 C 
BRANCH   8  15
HETATM   15  N   UNL     1     -39.811 -47.448  13.958  1.00  0.00     0.091 N 
HETATM   16  C   UNL     1     -38.346 -47.474  14.106  1.00  0.00     0.310 C 
HETATM   17  C   UNL     1     -40.377 -47.043  15.255  1.00  0.00     0.310 C 
ENDBRANCH   8  15
ENDBRANCH   7   8
ENDBRANCH   1   7
BRANCH   4  18
HETATM   18  C   UNL     1     -41.518 -52.143  12.034  1.00  0.00     0.168 A 
HETATM   19  N   UNL     1     -40.875 -53.088  11.388  1.00  0.00    -0.279 N 
HETATM   20  N   UNL     1     -40.899 -54.291  12.072  1.00  0.00    -0.303 N 
ATOM     21  HN  UNL     1     -40.413 -52.951  10.489  1.00  0.00     0.189 HD
HETATM   22  C   UNL     1     -41.556 -54.191  13.207  1.00  0.00     0.160 A 
ATOM     23  HN  UNL     1     -40.462 -55.150  11.737  1.00  0.00     0.186 HD
HETATM   24  S   UNL     1     -42.233 -52.643  13.506  1.00  0.00    -0.046 SA
ENDBRANCH   4  18
TORSDOF 4
ENDMDL
MODEL 8
REMARK VINA RESULT:      -5.5      3.639      7.321
REMARK  4 active torsions:
REMARK  status: ('A' for Active; 'I' for Inactive)
REMARK    1  A    between atoms: N_2  and  C_4 
REMARK    2  A    between atoms: C_4  and  C_5 
REMARK    3  A    between atoms: C_5  and  N_6 
REMARK       I    between atoms: N_6  and  C_7 
REMARK       I    between atoms: C_7  and  N_9 
REMARK    4  A    between atoms: N_9  and  C_10 
ROOT
HETATM    1  N   UNL     1     -40.468 -49.392  10.784  1.00  0.00    -0.340 N 
HETATM    2  C   UNL     1     -40.551 -50.323  11.804  1.00  0.00     0.322 C 
HETATM    3  O   UNL     1     -40.209 -50.073  12.950  1.00  0.00    -0.247 OA
HETATM    4  N   UNL     1     -41.124 -51.491  11.364  1.00  0.00    -0.288 N 
HETATM    5  H   UNL     1     -40.351 -49.716   9.835  1.00  0.00     0.164 HD
HETATM    6  H   UNL     1     -41.615 -51.486  10.488  1.00  0.00     0.172 HD
ENDROOT
BRANCH   1   7
HETATM    7  C   UNL     1     -40.005 -48.029  11.034  1.00  0.00     0.166 C 
BRANCH   7   8
HETATM    8  C   UNL     1     -41.174 -46.982  11.181  1.00  0.00     0.174 C 
HETATM    9  C   UNL     1     -41.359 -46.597  12.687  1.00  0.00     0.043 C 
HETATM   10  C   UNL     1     -40.110 -46.268  13.508  1.00  0.00     0.003 C 
HETATM   11  C   UNL     1     -39.446 -44.913  13.297  1.00  0.00     0.000 C 
HETATM   12  C   UNL     1     -39.807 -44.134  12.043  1.00  0.00     0.000 C 
HETATM   13  C   UNL     1     -39.581 -44.903  10.748  1.00  0.00     0.003 C 
HETATM   14  C   UNL     1     -40.799 -45.726  10.324  1.00  0.00     0.043 C 
BRANCH   8  15
HETATM   15  N   UNL     1     -42.453 -47.579  10.599  1.00  0.00     0.091 N 
HETATM   16  C   UNL     1     -43.527 -47.800  11.582  1.00  0.00     0.310 C 
HETATM   17  C   UNL     1     -43.031 -46.815   9.481  1.00  0.00     0.310 C 
ENDBRANCH   8  15
ENDBRANCH   7   8
ENDBRANCH   1   7
BRANCH   4  18
HETATM   18  C   UNL     1     -41.357 -52.538  12.213  1.00  0.00     0.168 A 
HETATM   19  N   UNL     1     -40.525 -53.323  12.857  1.00  0.00    -0.279 N 
HETATM   20  N   UNL     1     -41.191 -54.245  13.649  1.00  0.00    -0.303 N 
ATOM     21  HN  UNL     1     -39.510 -53.262  12.784  1.00  0.00     0.189 HD
HETATM   22  C   UNL     1     -42.495 -54.103  13.565  1.00  0.00     0.160 A 
ATOM     23  HN  UNL     1     -40.726 -54.947  14.225  1.00  0.00     0.186 HD
HETATM   24  S   UNL     1     -43.013 -52.873  12.487  1.00  0.00    -0.046 SA
ENDBRANCH   4  18
TORSDOF 4
ENDMDL
MODEL 9
REMARK VINA RESULT:      -5.3      1.482      3.113
REMARK  4 active torsions:
REMARK  status: ('A' for Active; 'I' for Inactive)
REMARK    1  A    between atoms: N_2  and  C_4 
REMARK    2  A    between atoms: C_4  and  C_5 
REMARK    3  A    between atoms: C_5  and  N_6 
REMARK       I    between atoms: N_6  and  C_7 
REMARK       I    between atoms: C_7  and  N_9 
REMARK    4  A    between atoms: N_9  and  C_10 
ROOT
HETATM    1  N   UNL     1     -42.963 -51.739  12.949  1.00  0.00    -0.340 N 
HETATM    2  C   UNL     1     -41.706 -51.759  12.372  1.00  0.00     0.322 C 
HETATM    3  O   UNL     1     -41.282 -52.726  11.756  1.00  0.00    -0.247 OA
HETATM    4  N   UNL     1     -41.070 -50.552  12.525  1.00  0.00    -0.288 N 
HETATM    5  H   UNL     1     -43.119 -51.155  13.759  1.00  0.00     0.164 HD
HETATM    6  H   UNL     1     -41.613 -49.753  12.797  1.00  0.00     0.172 HD
ENDROOT
BRANCH   1   7
HETATM    7  C   UNL     1     -43.881 -52.867  12.814  1.00  0.00     0.166 C 
BRANCH   7   8
HETATM    8  C   UNL     1     -44.851 -53.042  14.044  1.00  0.00     0.174 C 
HETATM    9  C   UNL     1     -44.903 -54.547  14.474  1.00  0.00     0.043 C 
HETATM   10  C   UNL     1     -43.580 -55.308  14.599  1.00  0.00     0.003 C 
HETATM   11  C   UNL     1     -42.709 -55.041  15.822  1.00  0.00     0.000 C 
HETATM   12  C   UNL     1     -42.992 -53.788  16.633  1.00  0.00     0.000 C 
HETATM   13  C   UNL     1     -42.954 -52.501  15.821  1.00  0.00     0.003 C 
HETATM   14  C   UNL     1     -44.311 -52.146  15.208  1.00  0.00     0.043 C 
BRANCH   8  15
HETATM   15  N   UNL     1     -46.237 -52.527  13.663  1.00  0.00     0.091 N 
HETATM   16  C   UNL     1     -46.684 -51.350  14.427  1.00  0.00     0.310 C 
HETATM   17  C   UNL     1     -46.400 -52.211  12.234  1.00  0.00     0.310 C 
ENDBRANCH   8  15
ENDBRANCH   7   8
ENDBRANCH   1   7
BRANCH   4  18
HETATM   18  C   UNL     1     -39.833 -50.321  11.986  1.00  0.00     0.168 A 
HETATM   19  N   UNL     1     -39.474 -50.010  10.763  1.00  0.00    -0.279 N 
HETATM   20  N   UNL     1     -38.105 -49.828  10.655  1.00  0.00    -0.303 N 
ATOM     21  HN  UNL     1     -40.125 -49.913   9.984  1.00  0.00     0.189 HD
HETATM   22  C   UNL     1     -37.500 -50.007  11.809  1.00  0.00     0.160 A 
ATOM     23  HN  UNL     1     -37.625 -49.586   9.788  1.00  0.00     0.186 HD
HETATM   24  S   UNL     1     -38.540 -50.453  13.100  1.00  0.00    -0.046 SA
ENDBRANCH   4  18
TORSDOF 4
ENDMDL
