MODEL 1
REMARK VINA RESULT:      -5.6      0.000      0.000
REMARK  5 active torsions:
REMARK  status: ('A' for Active; 'I' for Inactive)
REMARK    1  A    between atoms: O_2  and  C_3 
REMARK    2  A    between atoms: C_3  and  C_4 
REMARK    3  A    between atoms: C_4  and  N_6 
REMARK       I    between atoms: N_6  and  C_7 
REMARK       I    between atoms: C_7  and  N_9 
REMARK    4  A    between atoms: N_9  and  C_10 
REMARK    5  A    between atoms: C_15  and  C_17 
ROOT
HETATM    1  N   UNL     1     -40.427 -47.005  11.465  1.00  0.00    -0.337 N 
HETATM    2  C   UNL     1     -40.942 -48.280  11.320  1.00  0.00     0.322 C 
HETATM    3  O   UNL     1     -41.839 -48.524  10.521  1.00  0.00    -0.247 OA
HETATM    4  N   UNL     1     -40.287 -49.189  12.114  1.00  0.00    -0.288 N 
HETATM    5  H   UNL     1     -40.125 -46.739  12.392  1.00  0.00     0.164 HD
HETATM    6  H   UNL     1     -39.414 -48.935  12.545  1.00  0.00     0.172 HD
ENDROOT
BRANCH   4   7
HETATM    7  C   UNL     1     -40.599 -50.523  12.038  1.00  0.00     0.169 A 
HETATM    8  N   UNL     1     -40.843 -51.265  10.987  1.00  0.00    -0.279 N 
HETATM    9  N   UNL     1     -41.097 -52.579  11.328  1.00  0.00    -0.296 N 
ATOM     10  HN  UNL     1     -40.847 -50.914  10.029  1.00  0.00     0.189 HD
HETATM   11  C   UNL     1     -41.028 -52.769  12.626  1.00  0.00     0.074 A 
ATOM     12  HN  UNL     1     -41.312 -53.314  10.653  1.00  0.00     0.187 HD
HETATM   13  S   UNL     1     -40.673 -51.353  13.533  1.00  0.00    -0.037 SA
BRANCH  11  14
HETATM   14  C   UNL     1     -41.269 -54.137  13.264  1.00  0.00     0.044 A 
HETATM   15  C   UNL     1     -42.574 -54.389  13.998  1.00  0.00     0.012 A 
HETATM   16  C   UNL     1     -41.321 -54.200  14.780  1.00  0.00     0.012 A 
ENDBRANCH  11  14
ENDBRANCH   4   7
BRANCH   1  17
HETATM   17  C   UNL     1     -40.882 -45.936  10.569  1.00  0.00     0.105 C 
HETATM   18  C   UNL     1     -39.721 -44.994  10.256  1.00  0.00     0.034 C 
BRANCH  17  19
HETATM   19  C   UNL     1     -42.102 -45.170  11.118  1.00  0.00     0.191 C 
BRANCH  19  20
HETATM   20  O   UNL     1     -42.901 -44.708  10.025  1.00  0.00    -0.394 OA
HETATM   21  C   UNL     1     -43.559 -45.771   9.352  1.00  0.00     0.201 C 
ENDBRANCH  19  20
ENDBRANCH  17  19
ENDBRANCH   1  17
TORSDOF 5
ENDMDL
MODEL 2
REMARK VINA RESULT:      -5.4      1.459      2.150
REMARK  5 active torsions:
REMARK  status: ('A' for Active; 'I' for Inactive)
REMARK    1  A    between atoms: O_2  and  C_3 
REMARK    2  A    between atoms: C_3  and  C_4 
REMARK    3  A    between atoms: C_4  and  N_6 
REMARK       I    between atoms: N_6  and  C_7 
REMARK       I    between atoms: C_7  and  N_9 
REMARK    4  A    between atoms: N_9  and  C_10 
REMARK    5  A    between atoms: C_15  and  C_17 
ROOT
HETATM    1  N   UNL     1     -41.232 -48.305  10.468  1.00  0.00    -0.337 N 
HETATM    2  C   UNL     1     -41.456 -49.432  11.237  1.00  0.00     0.322 C 
HETATM    3  O   UNL     1     -42.458 -49.547  11.934  1.00  0.00    -0.247 OA
HETATM    4  N   UNL     1     -40.474 -50.376  11.058  1.00  0.00    -0.288 N 
HETATM    5  H   UNL     1     -40.271 -48.017  10.354  1.00  0.00     0.164 HD
HETATM    6  H   UNL     1     -39.834 -50.287  10.288  1.00  0.00     0.172 HD
ENDROOT
BRANCH   4   7
HETATM    7  C   UNL     1     -40.573 -51.600  11.670  1.00  0.00     0.169 A 
HETATM    8  N   UNL     1     -41.114 -52.710  11.234  1.00  0.00    -0.279 N 
HETATM    9  N   UNL     1     -40.990 -53.741  12.145  1.00  0.00    -0.296 N 
ATOM     10  HN  UNL     1     -41.574 -52.803  10.327  1.00  0.00     0.189 HD
HETATM   11  C   UNL     1     -40.355 -53.359  13.230  1.00  0.00     0.074 A 
ATOM     12  HN  UNL     1     -41.349 -54.685  11.993  1.00  0.00     0.187 HD
HETATM   13  S   UNL     1     -39.883 -51.707  13.231  1.00  0.00    -0.037 SA
BRANCH  11  14
HETATM   14  C   UNL     1     -40.086 -54.312  14.395  1.00  0.00     0.044 A 
HETATM   15  C   UNL     1     -41.184 -54.555  15.416  1.00  0.00     0.012 A 
HETATM   16  C   UNL     1     -40.015 -53.708  15.786  1.00  0.00     0.012 A 
ENDBRANCH  11  14
ENDBRANCH   4   7
BRANCH   1  17
HETATM   17  C   UNL     1     -42.265 -47.265  10.394  1.00  0.00     0.105 C 
HETATM   18  C   UNL     1     -43.160 -47.510   9.180  1.00  0.00     0.034 C 
BRANCH  17  19
HETATM   19  C   UNL     1     -41.680 -45.838  10.387  1.00  0.00     0.191 C 
BRANCH  19  20
HETATM   20  O   UNL     1     -40.307 -45.889  10.788  1.00  0.00    -0.394 OA
HETATM   21  C   UNL     1     -39.492 -45.006  10.031  1.00  0.00     0.201 C 
ENDBRANCH  19  20
ENDBRANCH  17  19
ENDBRANCH   1  17
TORSDOF 5
ENDMDL
MODEL 3
REMARK VINA RESULT:      -5.3      2.994      7.567
REMARK  5 active torsions:
REMARK  status: ('A' for Active; 'I' for Inactive)
REMARK    1  A    between atoms: O_2  and  C_3 
REMARK    2  A    between atoms: C_3  and  C_4 
REMARK    3  A    between atoms: C_4  and  N_6 
REMARK       I    between atoms: N_6  and  C_7 
REMARK       I    between atoms: C_7  and  N_9 
REMARK    4  A    between atoms: N_9  and  C_10 
REMARK    5  A    between atoms: C_15  and  C_17 
ROOT
HETATM    1  N   UNL     1     -40.343 -52.409  13.623  1.00  0.00    -0.337 N 
HETATM    2  C   UNL     1     -40.803 -51.745  12.501  1.00  0.00     0.322 C 
HETATM    3  O   UNL     1     -41.241 -52.351  11.529  1.00  0.00    -0.247 OA
HETATM    4  N   UNL     1     -40.760 -50.382  12.661  1.00  0.00    -0.288 N 
HETATM    5  H   UNL     1     -39.572 -51.984  14.118  1.00  0.00     0.164 HD
HETATM    6  H   UNL     1     -40.617 -49.992  13.577  1.00  0.00     0.172 HD
ENDROOT
BRANCH   4   7
HETATM    7  C   UNL     1     -41.262 -49.556  11.686  1.00  0.00     0.169 A 
HETATM    8  N   UNL     1     -40.849 -49.368  10.457  1.00  0.00    -0.279 N 
HETATM    9  N   UNL     1     -41.641 -48.464   9.776  1.00  0.00    -0.296 N 
ATOM     10  HN  UNL     1     -40.038 -49.835  10.050  1.00  0.00     0.189 HD
HETATM   11  C   UNL     1     -42.621 -48.012  10.526  1.00  0.00     0.074 A 
ATOM     12  HN  UNL     1     -41.483 -48.181   8.808  1.00  0.00     0.187 HD
HETATM   13  S   UNL     1     -42.636 -48.637  12.127  1.00  0.00    -0.037 SA
BRANCH  11  14
HETATM   14  C   UNL     1     -43.641 -46.997  10.010  1.00  0.00     0.044 A 
HETATM   15  C   UNL     1     -44.989 -47.493   9.516  1.00  0.00     0.012 A 
HETATM   16  C   UNL     1     -43.972 -47.034   8.529  1.00  0.00     0.012 A 
ENDBRANCH  11  14
ENDBRANCH   4   7
BRANCH   1  17
HETATM   17  C   UNL     1     -40.479 -53.867  13.706  1.00  0.00     0.105 C 
HETATM   18  C   UNL     1     -41.655 -54.228  14.612  1.00  0.00     0.034 C 
BRANCH  17  19
HETATM   19  C   UNL     1     -39.181 -54.567  14.157  1.00  0.00     0.191 C 
BRANCH  19  20
HETATM   20  O   UNL     1     -39.193 -54.712  15.580  1.00  0.00    -0.394 OA
HETATM   21  C   UNL     1     -38.229 -55.651  16.034  1.00  0.00     0.201 C 
ENDBRANCH  19  20
ENDBRANCH  17  19
ENDBRANCH   1  17
TORSDOF 5
ENDMDL
MODEL 4
REMARK VINA RESULT:      -5.0      3.396      6.614
REMARK  5 active torsions:
REMARK  status: ('A' for Active; 'I' for Inactive)
REMARK    1  A    between atoms: O_2  and  C_3 
REMARK    2  A    between atoms: C_3  and  C_4 
REMARK    3  A    between atoms: C_4  and  N_6 
REMARK       I    between atoms: N_6  and  C_7 
REMARK       I    between atoms: C_7  and  N_9 
REMARK    4  A    between atoms: N_9  and  C_10 
REMARK    5  A    between atoms: C_15  and  C_17 
ROOT
HETATM    1  N   UNL     1     -40.269 -49.728  13.819  1.00  0.00    -0.337 N 
HETATM    2  C   UNL     1     -40.894 -49.705  12.587  1.00  0.00     0.322 C 
HETATM    3  O   UNL     1     -41.146 -50.737  11.974  1.00  0.00    -0.247 OA
HETATM    4  N   UNL     1     -41.229 -48.429  12.207  1.00  0.00    -0.288 N 
HETATM    5  H   UNL     1     -39.645 -48.961  14.027  1.00  0.00     0.164 HD
HETATM    6  H   UNL     1     -41.199 -47.685  12.883  1.00  0.00     0.172 HD
ENDROOT
BRANCH   4   7
HETATM    7  C   UNL     1     -41.938 -48.215  11.052  1.00  0.00     0.169 A 
HETATM    8  N   UNL     1     -41.631 -48.517   9.815  1.00  0.00    -0.279 N 
HETATM    9  N   UNL     1     -42.627 -48.156   8.930  1.00  0.00    -0.296 N 
ATOM     10  HN  UNL     1     -40.757 -48.966   9.538  1.00  0.00     0.189 HD
HETATM   11  C   UNL     1     -43.646 -47.598   9.544  1.00  0.00     0.074 A 
ATOM     12  HN  UNL     1     -42.577 -48.304   7.921  1.00  0.00     0.187 HD
HETATM   13  S   UNL     1     -43.456 -47.450  11.245  1.00  0.00    -0.037 SA
BRANCH  11  14
HETATM   14  C   UNL     1     -44.882 -47.106   8.789  1.00  0.00     0.044 A 
HETATM   15  C   UNL     1     -46.258 -47.368   9.378  1.00  0.00     0.012 A 
HETATM   16  C   UNL     1     -45.804 -48.159   8.200  1.00  0.00     0.012 A 
ENDBRANCH  11  14
ENDBRANCH   4   7
BRANCH   1  17
HETATM   17  C   UNL     1     -39.997 -51.016  14.467  1.00  0.00     0.105 C 
HETATM   18  C   UNL     1     -40.552 -51.007  15.890  1.00  0.00     0.034 C 
BRANCH  17  19
HETATM   19  C   UNL     1     -38.502 -51.396  14.445  1.00  0.00     0.191 C 
BRANCH  19  20
HETATM   20  O   UNL     1     -38.159 -51.886  13.145  1.00  0.00    -0.394 OA
HETATM   21  C   UNL     1     -37.211 -51.056  12.489  1.00  0.00     0.201 C 
ENDBRANCH  19  20
ENDBRANCH  17  19
ENDBRANCH   1  17
TORSDOF 5
ENDMDL
MODEL 5
REMARK VINA RESULT:      -5.0      2.400      3.083
REMARK  5 active torsions:
REMARK  status: ('A' for Active; 'I' for Inactive)
REMARK    1  A    between atoms: O_2  and  C_3 
REMARK    2  A    between atoms: C_3  and  C_4 
REMARK    3  A    between atoms: C_4  and  N_6 
REMARK       I    between atoms: N_6  and  C_7 
REMARK       I    between atoms: C_7  and  N_9 
REMARK    4  A    between atoms: N_9  and  C_10 
REMARK    5  A    between atoms: C_15  and  C_17 
ROOT
HETATM    1  N   UNL     1     -42.638 -48.100   9.386  1.00  0.00    -0.337 N 
HETATM    2  C   UNL     1     -41.799 -48.272  10.471  1.00  0.00     0.322 C 
HETATM    3  O   UNL     1     -41.846 -47.529  11.444  1.00  0.00    -0.247 OA
HETATM    4  N   UNL     1     -40.999 -49.379  10.328  1.00  0.00    -0.288 N 
HETATM    5  H   UNL     1     -42.261 -48.336   8.478  1.00  0.00     0.164 HD
HETATM    6  H   UNL     1     -41.207 -50.054   9.613  1.00  0.00     0.172 HD
ENDROOT
BRANCH   4   7
HETATM    7  C   UNL     1     -40.163 -49.763  11.347  1.00  0.00     0.169 A 
HETATM    8  N   UNL     1     -39.079 -49.185  11.800  1.00  0.00    -0.279 N 
HETATM    9  N   UNL     1     -38.528 -49.875  12.862  1.00  0.00    -0.296 N 
ATOM     10  HN  UNL     1     -38.687 -48.325  11.414  1.00  0.00     0.189 HD
HETATM   11  C   UNL     1     -39.228 -50.946  13.163  1.00  0.00     0.074 A 
ATOM     12  HN  UNL     1     -37.680 -49.589  13.352  1.00  0.00     0.187 HD
HETATM   13  S   UNL     1     -40.598 -51.205  12.159  1.00  0.00    -0.037 SA
BRANCH  11  14
HETATM   14  C   UNL     1     -38.830 -51.885  14.302  1.00  0.00     0.044 A 
HETATM   15  C   UNL     1     -39.598 -51.825  15.610  1.00  0.00     0.012 A 
HETATM   16  C   UNL     1     -38.222 -51.257  15.543  1.00  0.00     0.012 A 
ENDBRANCH  11  14
ENDBRANCH   4   7
BRANCH   1  17
HETATM   17  C   UNL     1     -43.686 -47.075   9.437  1.00  0.00     0.105 C 
HETATM   18  C   UNL     1     -45.036 -47.695   9.081  1.00  0.00     0.034 C 
BRANCH  17  19
HETATM   19  C   UNL     1     -43.374 -45.852   8.552  1.00  0.00     0.191 C 
BRANCH  19  20
HETATM   20  O   UNL     1     -43.806 -44.662   9.220  1.00  0.00    -0.394 OA
HETATM   21  C   UNL     1     -43.005 -44.359  10.353  1.00  0.00     0.201 C 
ENDBRANCH  19  20
ENDBRANCH  17  19
ENDBRANCH   1  17
TORSDOF 5
ENDMDL
MODEL 6
REMARK VINA RESULT:      -4.8      2.734      3.994
REMARK  5 active torsions:
REMARK  status: ('A' for Active; 'I' for Inactive)
REMARK    1  A    between atoms: O_2  and  C_3 
REMARK    2  A    between atoms: C_3  and  C_4 
REMARK    3  A    between atoms: C_4  and  N_6 
REMARK       I    between atoms: N_6  and  C_7 
REMARK       I    between atoms: C_7  and  N_9 
REMARK    4  A    between atoms: N_9  and  C_10 
REMARK    5  A    between atoms: C_15  and  C_17 
ROOT
HETATM    1  N   UNL     1     -39.338 -50.875  12.463  1.00  0.00    -0.337 N 
HETATM    2  C   UNL     1     -40.685 -51.171  12.374  1.00  0.00     0.322 C 
HETATM    3  O   UNL     1     -41.469 -50.434  11.786  1.00  0.00    -0.247 OA
HETATM    4  N   UNL     1     -40.981 -52.381  12.952  1.00  0.00    -0.288 N 
HETATM    5  H   UNL     1     -38.866 -51.157  13.310  1.00  0.00     0.164 HD
HETATM    6  H   UNL     1     -40.238 -53.016  13.186  1.00  0.00     0.172 HD
ENDROOT
BRANCH   4   7
HETATM    7  C   UNL     1     -42.255 -52.887  12.881  1.00  0.00     0.169 A 
HETATM    8  N   UNL     1     -43.028 -53.060  11.838  1.00  0.00    -0.279 N 
HETATM    9  N   UNL     1     -44.242 -53.623  12.179  1.00  0.00    -0.296 N 
ATOM     10  HN  UNL     1     -42.764 -52.809  10.885  1.00  0.00     0.189 HD
HETATM   11  C   UNL     1     -44.327 -53.852  13.470  1.00  0.00     0.074 A 
ATOM     12  HN  UNL     1     -44.983 -53.835  11.510  1.00  0.00     0.187 HD
HETATM   13  S   UNL     1     -42.943 -53.376  14.369  1.00  0.00    -0.037 SA
BRANCH  11  14
HETATM   14  C   UNL     1     -45.572 -54.471  14.108  1.00  0.00     0.044 A 
HETATM   15  C   UNL     1     -46.689 -53.558  14.581  1.00  0.00     0.012 A 
HETATM   16  C   UNL     1     -45.802 -54.208  15.585  1.00  0.00     0.012 A 
ENDBRANCH  11  14
ENDBRANCH   4   7
BRANCH   1  17
HETATM   17  C   UNL     1     -38.806 -49.709  11.748  1.00  0.00     0.105 C 
HETATM   18  C   UNL     1     -37.411 -50.023  11.212  1.00  0.00     0.034 C 
BRANCH  17  19
HETATM   19  C   UNL     1     -38.809 -48.427  12.605  1.00  0.00     0.191 C 
BRANCH  19  20
HETATM   20  O   UNL     1     -39.514 -47.395  11.907  1.00  0.00    -0.394 OA
HETATM   21  C   UNL     1     -40.693 -46.992  12.589  1.00  0.00     0.201 C 
ENDBRANCH  19  20
ENDBRANCH  17  19
ENDBRANCH   1  17
TORSDOF 5
ENDMDL
MODEL 7
REMARK VINA RESULT:      -4.8      2.000      2.463
REMARK  5 active torsions:
REMARK  status: ('A' for Active; 'I' for Inactive)
REMARK    1  A    between atoms: O_2  and  C_3 
REMARK    2  A    between atoms: C_3  and  C_4 
REMARK    3  A    between atoms: C_4  and  N_6 
REMARK       I    between atoms: N_6  and  C_7 
REMARK       I    between atoms: C_7  and  N_9 
REMARK    4  A    between atoms: N_9  and  C_10 
REMARK    5  A    between atoms: C_15  and  C_17 
ROOT
HETATM    1  N   UNL     1     -41.997 -48.194   9.417  1.00  0.00    -0.337 N 
HETATM    2  C   UNL     1     -41.478 -48.662  10.609  1.00  0.00     0.322 C 
HETATM    3  O   UNL     1     -41.744 -48.129  11.680  1.00  0.00    -0.247 OA
HETATM    4  N   UNL     1     -40.718 -49.792  10.427  1.00  0.00    -0.288 N 
HETATM    5  H   UNL     1     -41.407 -48.279   8.600  1.00  0.00     0.164 HD
HETATM    6  H   UNL     1     -40.763 -50.286   9.552  1.00  0.00     0.172 HD
ENDROOT
BRANCH   4   7
HETATM    7  C   UNL     1     -40.194 -50.453  11.509  1.00  0.00     0.169 A 
HETATM    8  N   UNL     1     -39.119 -50.189  12.210  1.00  0.00    -0.279 N 
HETATM    9  N   UNL     1     -38.942 -51.085  13.245  1.00  0.00    -0.296 N 
ATOM     10  HN  UNL     1     -38.487 -49.413  12.013  1.00  0.00     0.189 HD
HETATM   11  C   UNL     1     -39.897 -51.986  13.281  1.00  0.00     0.074 A 
ATOM     12  HN  UNL     1     -38.162 -51.051  13.904  1.00  0.00     0.187 HD
HETATM   13  S   UNL     1     -41.072 -51.824  12.037  1.00  0.00    -0.037 SA
BRANCH  11  14
HETATM   14  C   UNL     1     -39.934 -53.095  14.333  1.00  0.00     0.044 A 
HETATM   15  C   UNL     1     -39.404 -54.471  13.972  1.00  0.00     0.012 A 
HETATM   16  C   UNL     1     -40.874 -54.261  14.084  1.00  0.00     0.012 A 
ENDBRANCH  11  14
ENDBRANCH   4   7
BRANCH   1  17
HETATM   17  C   UNL     1     -42.975 -47.101   9.434  1.00  0.00     0.105 C 
HETATM   18  C   UNL     1     -42.382 -45.886  10.144  1.00  0.00     0.034 C 
BRANCH  17  19
HETATM   19  C   UNL     1     -44.326 -47.515  10.053  1.00  0.00     0.191 C 
BRANCH  19  20
HETATM   20  O   UNL     1     -45.254 -47.814   9.005  1.00  0.00    -0.394 OA
HETATM   21  C   UNL     1     -46.462 -47.078   9.128  1.00  0.00     0.201 C 
ENDBRANCH  19  20
ENDBRANCH  17  19
ENDBRANCH   1  17
TORSDOF 5
ENDMDL
MODEL 8
REMARK VINA RESULT:      -4.7      2.604      7.307
REMARK  5 active torsions:
REMARK  status: ('A' for Active; 'I' for Inactive)
REMARK    1  A    between atoms: O_2  and  C_3 
REMARK    2  A    between atoms: C_3  and  C_4 
REMARK    3  A    between atoms: C_4  and  N_6 
REMARK       I    between atoms: N_6  and  C_7 
REMARK       I    between atoms: C_7  and  N_9 
REMARK    4  A    between atoms: N_9  and  C_10 
REMARK    5  A    between atoms: C_15  and  C_17 
ROOT
HETATM    1  N   UNL     1     -42.248 -52.264  12.619  1.00  0.00    -0.337 N 
HETATM    2  C   UNL     1     -41.543 -51.075  12.610  1.00  0.00     0.322 C 
HETATM    3  O   UNL     1     -40.659 -50.845  13.427  1.00  0.00    -0.247 OA
HETATM    4  N   UNL     1     -41.917 -50.268  11.564  1.00  0.00    -0.288 N 
HETATM    5  H   UNL     1     -43.218 -52.220  12.338  1.00  0.00     0.164 HD
HETATM    6  H   UNL     1     -42.470 -50.647  10.815  1.00  0.00     0.172 HD
ENDROOT
BRANCH   4   7
HETATM    7  C   UNL     1     -41.263 -49.083  11.338  1.00  0.00     0.169 A 
HETATM    8  N   UNL     1     -39.979 -48.845  11.232  1.00  0.00    -0.279 N 
HETATM    9  N   UNL     1     -39.717 -47.513  10.979  1.00  0.00    -0.296 N 
ATOM     10  HN  UNL     1     -39.257 -49.560  11.326  1.00  0.00     0.189 HD
HETATM   11  C   UNL     1     -40.822 -46.805  10.901  1.00  0.00     0.074 A 
ATOM     12  HN  UNL     1     -38.780 -47.125  10.865  1.00  0.00     0.187 HD
HETATM   13  S   UNL     1     -42.262 -47.706  11.157  1.00  0.00    -0.037 SA
BRANCH  11  14
HETATM   14  C   UNL     1     -40.808 -45.300  10.629  1.00  0.00     0.044 A 
HETATM   15  C   UNL     1     -40.704 -44.340  11.801  1.00  0.00     0.012 A 
HETATM   16  C   UNL     1     -42.008 -44.496  11.098  1.00  0.00     0.012 A 
ENDBRANCH  11  14
ENDBRANCH   4   7
BRANCH   1  17
HETATM   17  C   UNL     1     -41.863 -53.325  13.555  1.00  0.00     0.105 C 
HETATM   18  C   UNL     1     -40.796 -54.215  12.920  1.00  0.00     0.034 C 
BRANCH  17  19
HETATM   19  C   UNL     1     -43.066 -54.151  14.055  1.00  0.00     0.191 C 
BRANCH  19  20
HETATM   20  O   UNL     1     -44.064 -54.199  13.031  1.00  0.00    -0.394 OA
HETATM   21  C   UNL     1     -45.347 -54.529  13.544  1.00  0.00     0.201 C 
ENDBRANCH  19  20
ENDBRANCH  17  19
ENDBRANCH   1  17
TORSDOF 5
ENDMDL
MODEL 9
REMARK VINA RESULT:      -4.7      2.716      7.455
REMARK  5 active torsions:
REMARK  status: ('A' for Active; 'I' for Inactive)
REMARK    1  A    between atoms: O_2  and  C_3 
REMARK    2  A    between atoms: C_3  and  C_4 
REMARK    3  A    between atoms: C_4  and  N_6 
REMARK       I    between atoms: N_6  and  C_7 
REMARK       I    between atoms: C_7  and  N_9 
REMARK    4  A    between atoms: N_9  and  C_10 
REMARK    5  A    between atoms: C_15  and  C_17 
ROOT
HETATM    1  N   UNL     1     -42.851 -51.971  13.035  1.00  0.00    -0.337 N 
HETATM    2  C   UNL     1     -42.030 -51.084  12.364  1.00  0.00     0.322 C 
HETATM    3  O   UNL     1     -41.113 -51.471  11.649  1.00  0.00    -0.247 OA
HETATM    4  N   UNL     1     -42.420 -49.781  12.557  1.00  0.00    -0.288 N 
HETATM    5  H   UNL     1     -43.196 -51.677  13.938  1.00  0.00     0.164 HD
HETATM    6  H   UNL     1     -43.322 -49.586  12.957  1.00  0.00     0.172 HD
ENDROOT
BRANCH   4   7
HETATM    7  C   UNL     1     -41.779 -48.764  11.896  1.00  0.00     0.169 A 
HETATM    8  N   UNL     1     -41.631 -48.566  10.610  1.00  0.00    -0.279 N 
HETATM    9  N   UNL     1     -40.937 -47.403  10.340  1.00  0.00    -0.296 N 
ATOM     10  HN  UNL     1     -41.987 -49.198   9.892  1.00  0.00     0.189 HD
HETATM   11  C   UNL     1     -40.595 -46.773  11.441  1.00  0.00     0.074 A 
ATOM     12  HN  UNL     1     -40.717 -47.074   9.399  1.00  0.00     0.187 HD
HETATM   13  S   UNL     1     -41.072 -47.563  12.890  1.00  0.00    -0.037 SA
BRANCH  11  14
HETATM   14  C   UNL     1     -39.816 -45.457  11.418  1.00  0.00     0.044 A 
HETATM   15  C   UNL     1     -40.530 -44.185  10.994  1.00  0.00     0.012 A 
HETATM   16  C   UNL     1     -39.559 -44.823  10.062  1.00  0.00     0.012 A 
ENDBRANCH  11  14
ENDBRANCH   4   7
BRANCH   1  17
HETATM   17  C   UNL     1     -42.698 -53.412  12.806  1.00  0.00     0.105 C 
HETATM   18  C   UNL     1     -44.067 -54.089  12.828  1.00  0.00     0.034 C 
BRANCH  17  19
HETATM   19  C   UNL     1     -41.722 -54.077  13.797  1.00  0.00     0.191 C 
BRANCH  19  20
HETATM   20  O   UNL     1     -40.438 -54.210  13.178  1.00  0.00    -0.394 OA
HETATM   21  C   UNL     1     -39.418 -54.521  14.116  1.00  0.00     0.201 C 
ENDBRANCH  19  20
ENDBRANCH  17  19
ENDBRANCH   1  17
TORSDOF 5
ENDMDL
