MODEL 1
REMARK VINA RESULT:      -5.7      0.000      0.000
REMARK  6 active torsions:
REMARK  status: ('A' for Active; 'I' for Inactive)
REMARK    1  A    between atoms: C_2  and  C_3 
REMARK    2  A    between atoms: C_3  and  C_4 
REMARK    3  A    between atoms: C_3  and  N_6 
REMARK       I    between atoms: N_6  and  C_7 
REMARK    4  A    between atoms: C_7  and  C_9 
REMARK    5  A    between atoms: C_9  and  N_10 
REMARK    6  A    between atoms: C_15  and  C_16 
ROOT
HETATM    1  N   UNL     1     -41.875 -49.592  12.267  1.00  0.00    -0.256 N 
HETATM    2  N   UNL     1     -40.892 -49.153  11.459  1.00  0.00    -0.005 NA
HETATM    3  N   UNL     1     -40.293 -50.243  11.015  1.00  0.00    -0.007 NA
HETATM    4  N   UNL     1     -40.884 -51.367  11.523  1.00  0.00    -0.273 N 
ATOM      5  HN  UNL     1     -40.618 -52.332  11.333  1.00  0.00     0.185 HD
HETATM    6  C   UNL     1     -41.865 -50.963  12.307  1.00  0.00     0.114 A 
ENDROOT
BRANCH   1   7
HETATM    7  C   UNL     1     -42.817 -48.649  12.812  1.00  0.00     0.250 C 
BRANCH   7   8
HETATM    8  C   UNL     1     -43.275 -47.640  11.782  1.00  0.00     0.237 C 
HETATM    9  N   UNL     1     -43.894 -48.149  10.659  1.00  0.00    -0.355 N 
HETATM   10  H   UNL     1     -44.100 -49.146  10.613  1.00  0.00     0.162 HD
HETATM   11  O   UNL     1     -43.043 -46.440  11.929  1.00  0.00    -0.272 OA
BRANCH   9  12
HETATM   12  C   UNL     1     -44.438 -47.309   9.598  1.00  0.00     0.083 C 
BRANCH  12  13
HETATM   13  C   UNL     1     -43.343 -47.058   8.546  1.00  0.00     0.021 C 
HETATM   14  C   UNL     1     -43.340 -48.066   7.408  1.00  0.00     0.007 C 
ENDBRANCH  12  13
BRANCH  12  15
HETATM   15  C   UNL     1     -45.746 -47.898   9.033  1.00  0.00     0.021 C 
HETATM   16  C   UNL     1     -46.958 -46.981   9.129  1.00  0.00     0.007 C 
ENDBRANCH  12  15
ENDBRANCH   9  12
ENDBRANCH   7   8
ENDBRANCH   1   7
BRANCH   6  17
HETATM   17  C   UNL     1     -42.787 -51.814  13.129  1.00  0.00     0.056 C 
HETATM   18  C   UNL     1     -42.418 -51.730  14.617  1.00  0.00     0.012 C 
HETATM   19  C   UNL     1     -41.117 -52.466  14.939  1.00  0.00     0.001 C 
HETATM   20  C   UNL     1     -41.176 -53.924  14.497  1.00  0.00     0.000 C 
HETATM   21  C   UNL     1     -41.559 -54.075  13.028  1.00  0.00     0.001 C 
HETATM   22  C   UNL     1     -42.815 -53.280  12.663  1.00  0.00     0.012 C 
ENDBRANCH   6  17
TORSDOF 6
ENDMDL
MODEL 2
REMARK VINA RESULT:      -5.5      4.496      6.981
REMARK  6 active torsions:
REMARK  status: ('A' for Active; 'I' for Inactive)
REMARK    1  A    between atoms: C_2  and  C_3 
REMARK    2  A    between atoms: C_3  and  C_4 
REMARK    3  A    between atoms: C_3  and  N_6 
REMARK       I    between atoms: N_6  and  C_7 
REMARK    4  A    between atoms: C_7  and  C_9 
REMARK    5  A    between atoms: C_9  and  N_10 
REMARK    6  A    between atoms: C_15  and  C_16 
ROOT
HETATM    1  N   UNL     1     -44.065 -53.245  12.819  1.00  0.00    -0.256 N 
HETATM    2  N   UNL     1     -44.131 -54.576  12.632  1.00  0.00    -0.005 NA
HETATM    3  N   UNL     1     -45.322 -54.932  13.081  1.00  0.00    -0.007 NA
HETATM    4  N   UNL     1     -46.013 -53.845  13.544  1.00  0.00    -0.273 N 
ATOM      5  HN  UNL     1     -46.955 -53.847  13.935  1.00  0.00     0.185 HD
HETATM    6  C   UNL     1     -45.230 -52.796  13.387  1.00  0.00     0.114 A 
ENDROOT
BRANCH   1   7
HETATM    7  C   UNL     1     -42.936 -52.513  12.304  1.00  0.00     0.250 C 
BRANCH   7   8
HETATM    8  C   UNL     1     -41.630 -52.980  12.909  1.00  0.00     0.237 C 
HETATM    9  N   UNL     1     -41.663 -53.331  14.242  1.00  0.00    -0.355 N 
HETATM   10  H   UNL     1     -42.559 -53.356  14.727  1.00  0.00     0.162 HD
HETATM   11  O   UNL     1     -40.592 -52.979  12.246  1.00  0.00    -0.272 OA
BRANCH   9  12
HETATM   12  C   UNL     1     -40.504 -53.849  14.961  1.00  0.00     0.083 C 
BRANCH  12  13
HETATM   13  C   UNL     1     -39.832 -52.694  15.724  1.00  0.00     0.021 C 
HETATM   14  C   UNL     1     -40.813 -51.697  16.319  1.00  0.00     0.007 C 
ENDBRANCH  12  13
BRANCH  12  15
HETATM   15  C   UNL     1     -40.883 -55.061  15.835  1.00  0.00     0.021 C 
HETATM   16  C   UNL     1     -42.374 -55.358  15.910  1.00  0.00     0.007 C 
ENDBRANCH  12  15
ENDBRANCH   9  12
ENDBRANCH   7   8
ENDBRANCH   1   7
BRANCH   6  17
HETATM   17  C   UNL     1     -45.515 -51.377  13.779  1.00  0.00     0.056 C 
HETATM   18  C   UNL     1     -44.447 -50.860  14.754  1.00  0.00     0.012 C 
HETATM   19  C   UNL     1     -44.573 -51.487  16.143  1.00  0.00     0.001 C 
HETATM   20  C   UNL     1     -45.964 -51.271  16.729  1.00  0.00     0.000 C 
HETATM   21  C   UNL     1     -47.072 -51.747  15.795  1.00  0.00     0.001 C 
HETATM   22  C   UNL     1     -46.922 -51.196  14.375  1.00  0.00     0.012 C 
ENDBRANCH   6  17
TORSDOF 6
ENDMDL
MODEL 3
REMARK VINA RESULT:      -5.5      4.958      6.541
REMARK  6 active torsions:
REMARK  status: ('A' for Active; 'I' for Inactive)
REMARK    1  A    between atoms: C_2  and  C_3 
REMARK    2  A    between atoms: C_3  and  C_4 
REMARK    3  A    between atoms: C_3  and  N_6 
REMARK       I    between atoms: N_6  and  C_7 
REMARK    4  A    between atoms: C_7  and  C_9 
REMARK    5  A    between atoms: C_9  and  N_10 
REMARK    6  A    between atoms: C_15  and  C_16 
ROOT
HETATM    1  N   UNL     1     -42.358 -54.815  14.799  1.00  0.00    -0.256 N 
HETATM    2  N   UNL     1     -43.261 -55.693  15.274  1.00  0.00    -0.005 NA
HETATM    3  N   UNL     1     -42.807 -56.051  16.462  1.00  0.00    -0.007 NA
HETATM    4  N   UNL     1     -41.634 -55.409  16.750  1.00  0.00    -0.273 N 
ATOM      5  HN  UNL     1     -41.084 -55.504  17.603  1.00  0.00     0.185 HD
HETATM    6  C   UNL     1     -41.350 -54.645  15.713  1.00  0.00     0.114 A 
ENDROOT
BRANCH   1   7
HETATM    7  C   UNL     1     -42.627 -54.120  13.566  1.00  0.00     0.250 C 
BRANCH   7   8
HETATM    8  C   UNL     1     -44.108 -53.895  13.350  1.00  0.00     0.237 C 
HETATM    9  N   UNL     1     -44.754 -53.124  14.293  1.00  0.00    -0.355 N 
HETATM   10  H   UNL     1     -44.208 -52.668  15.023  1.00  0.00     0.162 HD
HETATM   11  O   UNL     1     -44.696 -54.432  12.411  1.00  0.00    -0.272 OA
BRANCH   9  12
HETATM   12  C   UNL     1     -46.167 -52.771  14.204  1.00  0.00     0.083 C 
BRANCH  12  13
HETATM   13  C   UNL     1     -46.760 -52.717  15.623  1.00  0.00     0.021 C 
HETATM   14  C   UNL     1     -47.365 -51.371  15.986  1.00  0.00     0.007 C 
ENDBRANCH  12  13
BRANCH  12  15
HETATM   15  C   UNL     1     -46.373 -51.489  13.374  1.00  0.00     0.021 C 
HETATM   16  C   UNL     1     -46.881 -51.716  11.957  1.00  0.00     0.007 C 
ENDBRANCH  12  15
ENDBRANCH   9  12
ENDBRANCH   7   8
ENDBRANCH   1   7
BRANCH   6  17
HETATM   17  C   UNL     1     -40.144 -53.773  15.524  1.00  0.00     0.056 C 
HETATM   18  C   UNL     1     -38.981 -54.580  14.930  1.00  0.00     0.012 C 
HETATM   19  C   UNL     1     -38.373 -55.556  15.938  1.00  0.00     0.001 C 
HETATM   20  C   UNL     1     -37.919 -54.841  17.205  1.00  0.00     0.000 C 
HETATM   21  C   UNL     1     -39.029 -54.003  17.833  1.00  0.00     0.001 C 
HETATM   22  C   UNL     1     -39.708 -53.074  16.823  1.00  0.00     0.012 C 
ENDBRANCH   6  17
TORSDOF 6
ENDMDL
MODEL 4
REMARK VINA RESULT:      -5.5      4.582      6.401
REMARK  6 active torsions:
REMARK  status: ('A' for Active; 'I' for Inactive)
REMARK    1  A    between atoms: C_2  and  C_3 
REMARK    2  A    between atoms: C_3  and  C_4 
REMARK    3  A    between atoms: C_3  and  N_6 
REMARK       I    between atoms: N_6  and  C_7 
REMARK    4  A    between atoms: C_7  and  C_9 
REMARK    5  A    between atoms: C_9  and  N_10 
REMARK    6  A    between atoms: C_15  and  C_16 
ROOT
HETATM    1  N   UNL     1     -41.824 -53.896  14.100  1.00  0.00    -0.256 N 
HETATM    2  N   UNL     1     -41.169 -53.822  15.273  1.00  0.00    -0.005 NA
HETATM    3  N   UNL     1     -42.072 -54.111  16.194  1.00  0.00    -0.007 NA
HETATM    4  N   UNL     1     -43.287 -54.373  15.622  1.00  0.00    -0.273 N 
ATOM      5  HN  UNL     1     -44.145 -54.628  16.109  1.00  0.00     0.185 HD
HETATM    6  C   UNL     1     -43.135 -54.233  14.319  1.00  0.00     0.114 A 
ENDROOT
BRANCH   1   7
HETATM    7  C   UNL     1     -41.087 -53.770  12.868  1.00  0.00     0.250 C 
BRANCH   7   8
HETATM    8  C   UNL     1     -40.509 -52.382  12.690  1.00  0.00     0.237 C 
HETATM    9  N   UNL     1     -39.454 -52.048  13.513  1.00  0.00    -0.355 N 
HETATM   10  H   UNL     1     -39.053 -52.760  14.122  1.00  0.00     0.162 HD
HETATM   11  O   UNL     1     -41.008 -51.589  11.892  1.00  0.00    -0.272 OA
BRANCH   9  12
HETATM   12  C   UNL     1     -38.753 -50.771  13.434  1.00  0.00     0.083 C 
BRANCH  12  13
HETATM   13  C   UNL     1     -38.487 -50.257  14.859  1.00  0.00     0.021 C 
HETATM   14  C   UNL     1     -37.014 -50.041  15.170  1.00  0.00     0.007 C 
ENDBRANCH  12  13
BRANCH  12  15
HETATM   15  C   UNL     1     -37.498 -50.876  12.545  1.00  0.00     0.021 C 
HETATM   16  C   UNL     1     -37.504 -49.978  11.316  1.00  0.00     0.007 C 
ENDBRANCH  12  15
ENDBRANCH   9  12
ENDBRANCH   7   8
ENDBRANCH   1   7
BRANCH   6  17
HETATM   17  C   UNL     1     -44.186 -54.374  13.257  1.00  0.00     0.056 C 
HETATM   18  C   UNL     1     -44.493 -53.012  12.617  1.00  0.00     0.012 C 
HETATM   19  C   UNL     1     -45.270 -52.088  13.556  1.00  0.00     0.001 C 
HETATM   20  C   UNL     1     -46.560 -52.741  14.040  1.00  0.00     0.000 C 
HETATM   21  C   UNL     1     -46.323 -54.110  14.670  1.00  0.00     0.001 C 
HETATM   22  C   UNL     1     -45.476 -55.027  13.782  1.00  0.00     0.012 C 
ENDBRANCH   6  17
TORSDOF 6
ENDMDL
MODEL 5
REMARK VINA RESULT:      -5.4      3.427      5.034
REMARK  6 active torsions:
REMARK  status: ('A' for Active; 'I' for Inactive)
REMARK    1  A    between atoms: C_2  and  C_3 
REMARK    2  A    between atoms: C_3  and  C_4 
REMARK    3  A    between atoms: C_3  and  N_6 
REMARK       I    between atoms: N_6  and  C_7 
REMARK    4  A    between atoms: C_7  and  C_9 
REMARK    5  A    between atoms: C_9  and  N_10 
REMARK    6  A    between atoms: C_15  and  C_16 
ROOT
HETATM    1  N   UNL     1     -41.786 -51.833  12.472  1.00  0.00    -0.256 N 
HETATM    2  N   UNL     1     -40.505 -52.227  12.345  1.00  0.00    -0.005 NA
HETATM    3  N   UNL     1     -40.537 -53.546  12.420  1.00  0.00    -0.007 NA
HETATM    4  N   UNL     1     -41.819 -53.994  12.587  1.00  0.00    -0.273 N 
ATOM      5  HN  UNL     1     -42.117 -54.966  12.667  1.00  0.00     0.185 HD
HETATM    6  C   UNL     1     -42.596 -52.929  12.626  1.00  0.00     0.114 A 
ENDROOT
BRANCH   1   7
HETATM    7  C   UNL     1     -42.120 -50.443  12.294  1.00  0.00     0.250 C 
BRANCH   7   8
HETATM    8  C   UNL     1     -40.913 -49.610  11.921  1.00  0.00     0.237 C 
HETATM    9  N   UNL     1     -39.999 -49.372  12.926  1.00  0.00    -0.355 N 
HETATM   10  H   UNL     1     -40.118 -49.833  13.827  1.00  0.00     0.162 HD
HETATM   11  O   UNL     1     -40.803 -49.130  10.793  1.00  0.00    -0.272 OA
BRANCH   9  12
HETATM   12  C   UNL     1     -38.759 -48.631  12.719  1.00  0.00     0.083 C 
BRANCH  12  13
HETATM   13  C   UNL     1     -38.582 -47.621  13.865  1.00  0.00     0.021 C 
HETATM   14  C   UNL     1     -37.218 -47.684  14.535  1.00  0.00     0.007 C 
ENDBRANCH  12  13
BRANCH  12  15
HETATM   15  C   UNL     1     -37.565 -49.584  12.514  1.00  0.00     0.021 C 
HETATM   16  C   UNL     1     -37.307 -49.990  11.069  1.00  0.00     0.007 C 
ENDBRANCH  12  15
ENDBRANCH   9  12
ENDBRANCH   7   8
ENDBRANCH   1   7
BRANCH   6  17
HETATM   17  C   UNL     1     -44.081 -52.889  12.835  1.00  0.00     0.056 C 
HETATM   18  C   UNL     1     -44.434 -52.008  14.042  1.00  0.00     0.012 C 
HETATM   19  C   UNL     1     -44.056 -52.662  15.372  1.00  0.00     0.001 C 
HETATM   20  C   UNL     1     -44.700 -54.035  15.522  1.00  0.00     0.000 C 
HETATM   21  C   UNL     1     -44.402 -54.953  14.340  1.00  0.00     0.001 C 
HETATM   22  C   UNL     1     -44.696 -54.290  12.992  1.00  0.00     0.012 C 
ENDBRANCH   6  17
TORSDOF 6
ENDMDL
MODEL 6
REMARK VINA RESULT:      -5.4      3.677      5.398
REMARK  6 active torsions:
REMARK  status: ('A' for Active; 'I' for Inactive)
REMARK    1  A    between atoms: C_2  and  C_3 
REMARK    2  A    between atoms: C_3  and  C_4 
REMARK    3  A    between atoms: C_3  and  N_6 
REMARK       I    between atoms: N_6  and  C_7 
REMARK    4  A    between atoms: C_7  and  C_9 
REMARK    5  A    between atoms: C_9  and  N_10 
REMARK    6  A    between atoms: C_15  and  C_16 
ROOT
HETATM    1  N   UNL     1     -42.489 -53.192  13.058  1.00  0.00    -0.256 N 
HETATM    2  N   UNL     1     -41.915 -54.255  13.652  1.00  0.00    -0.005 NA
HETATM    3  N   UNL     1     -42.857 -54.774  14.420  1.00  0.00    -0.007 NA
HETATM    4  N   UNL     1     -44.020 -54.061  14.317  1.00  0.00    -0.273 N 
ATOM      5  HN  UNL     1     -44.896 -54.257  14.799  1.00  0.00     0.185 HD
HETATM    6  C   UNL     1     -43.790 -53.073  13.475  1.00  0.00     0.114 A 
ENDROOT
BRANCH   1   7
HETATM    7  C   UNL     1     -41.767 -52.475  12.038  1.00  0.00     0.250 C 
BRANCH   7   8
HETATM    8  C   UNL     1     -40.920 -51.362  12.616  1.00  0.00     0.237 C 
HETATM    9  N   UNL     1     -40.028 -50.760  11.754  1.00  0.00    -0.355 N 
HETATM   10  H   UNL     1     -40.042 -51.013  10.766  1.00  0.00     0.162 HD
HETATM   11  O   UNL     1     -40.995 -51.068  13.809  1.00  0.00    -0.272 OA
BRANCH   9  12
HETATM   12  C   UNL     1     -39.176 -49.640  12.139  1.00  0.00     0.083 C 
BRANCH  12  13
HETATM   13  C   UNL     1     -37.730 -49.938  11.706  1.00  0.00     0.021 C 
HETATM   14  C   UNL     1     -37.081 -51.077  12.476  1.00  0.00     0.007 C 
ENDBRANCH  12  13
BRANCH  12  15
HETATM   15  C   UNL     1     -39.739 -48.303  11.616  1.00  0.00     0.021 C 
HETATM   16  C   UNL     1     -40.038 -47.268  12.692  1.00  0.00     0.007 C 
ENDBRANCH  12  15
ENDBRANCH   9  12
ENDBRANCH   7   8
ENDBRANCH   1   7
BRANCH   6  17
HETATM   17  C   UNL     1     -44.739 -51.988  13.060  1.00  0.00     0.056 C 
HETATM   18  C   UNL     1     -44.554 -50.742  13.938  1.00  0.00     0.012 C 
HETATM   19  C   UNL     1     -45.081 -50.945  15.358  1.00  0.00     0.001 C 
HETATM   20  C   UNL     1     -46.546 -51.367  15.356  1.00  0.00     0.000 C 
HETATM   21  C   UNL     1     -46.799 -52.592  14.482  1.00  0.00     0.001 C 
HETATM   22  C   UNL     1     -46.208 -52.445  13.077  1.00  0.00     0.012 C 
ENDBRANCH   6  17
TORSDOF 6
ENDMDL
MODEL 7
REMARK VINA RESULT:      -5.3      4.187      5.976
REMARK  6 active torsions:
REMARK  status: ('A' for Active; 'I' for Inactive)
REMARK    1  A    between atoms: C_2  and  C_3 
REMARK    2  A    between atoms: C_3  and  C_4 
REMARK    3  A    between atoms: C_3  and  N_6 
REMARK       I    between atoms: N_6  and  C_7 
REMARK    4  A    between atoms: C_7  and  C_9 
REMARK    5  A    between atoms: C_9  and  N_10 
REMARK    6  A    between atoms: C_15  and  C_16 
ROOT
HETATM    1  N   UNL     1     -42.692 -51.390  13.157  1.00  0.00    -0.256 N 
HETATM    2  N   UNL     1     -42.212 -50.522  14.067  1.00  0.00    -0.005 NA
HETATM    3  N   UNL     1     -43.188 -50.363  14.944  1.00  0.00    -0.007 NA
HETATM    4  N   UNL     1     -44.275 -51.122  14.608  1.00  0.00    -0.273 N 
ATOM      5  HN  UNL     1     -45.154 -51.184  15.121  1.00  0.00     0.185 HD
HETATM    6  C   UNL     1     -43.971 -51.756  13.493  1.00  0.00     0.114 A 
ENDROOT
BRANCH   1   7
HETATM    7  C   UNL     1     -41.819 -51.890  12.126  1.00  0.00     0.250 C 
BRANCH   7   8
HETATM    8  C   UNL     1     -40.450 -52.247  12.663  1.00  0.00     0.237 C 
HETATM    9  N   UNL     1     -39.582 -51.197  12.875  1.00  0.00    -0.355 N 
HETATM   10  H   UNL     1     -39.919 -50.242  12.759  1.00  0.00     0.162 HD
HETATM   11  O   UNL     1     -40.128 -53.423  12.835  1.00  0.00    -0.272 OA
BRANCH   9  12
HETATM   12  C   UNL     1     -38.246 -51.366  13.436  1.00  0.00     0.083 C 
BRANCH  12  13
HETATM   13  C   UNL     1     -37.205 -50.914  12.396  1.00  0.00     0.021 C 
HETATM   14  C   UNL     1     -37.702 -49.818  11.465  1.00  0.00     0.007 C 
ENDBRANCH  12  13
BRANCH  12  15
HETATM   15  C   UNL     1     -38.123 -50.674  14.808  1.00  0.00     0.021 C 
HETATM   16  C   UNL     1     -38.853 -51.373  15.947  1.00  0.00     0.007 C 
ENDBRANCH  12  15
ENDBRANCH   9  12
ENDBRANCH   7   8
ENDBRANCH   1   7
BRANCH   6  17
HETATM   17  C   UNL     1     -44.847 -52.680  12.699  1.00  0.00     0.056 C 
HETATM   18  C   UNL     1     -46.320 -52.498  13.090  1.00  0.00     0.012 C 
HETATM   19  C   UNL     1     -46.629 -53.062  14.477  1.00  0.00     0.001 C 
HETATM   20  C   UNL     1     -46.239 -54.532  14.583  1.00  0.00     0.000 C 
HETATM   21  C   UNL     1     -44.787 -54.781  14.186  1.00  0.00     0.001 C 
HETATM   22  C   UNL     1     -44.431 -54.155  12.835  1.00  0.00     0.012 C 
ENDBRANCH   6  17
TORSDOF 6
ENDMDL
MODEL 8
REMARK VINA RESULT:      -5.2      3.760      5.511
REMARK  6 active torsions:
REMARK  status: ('A' for Active; 'I' for Inactive)
REMARK    1  A    between atoms: C_2  and  C_3 
REMARK    2  A    between atoms: C_3  and  C_4 
REMARK    3  A    between atoms: C_3  and  N_6 
REMARK       I    between atoms: N_6  and  C_7 
REMARK    4  A    between atoms: C_7  and  C_9 
REMARK    5  A    between atoms: C_9  and  N_10 
REMARK    6  A    between atoms: C_15  and  C_16 
ROOT
HETATM    1  N   UNL     1     -40.307 -51.917  12.609  1.00  0.00    -0.256 N 
HETATM    2  N   UNL     1     -40.003 -53.160  13.027  1.00  0.00    -0.005 NA
HETATM    3  N   UNL     1     -38.845 -53.043  13.651  1.00  0.00    -0.007 NA
HETATM    4  N   UNL     1     -38.413 -51.745  13.641  1.00  0.00    -0.273 N 
ATOM      5  HN  UNL     1     -37.555 -51.388  14.059  1.00  0.00     0.185 HD
HETATM    6  C   UNL     1     -39.319 -51.045  12.987  1.00  0.00     0.114 A 
ENDROOT
BRANCH   1   7
HETATM    7  C   UNL     1     -41.591 -51.667  12.004  1.00  0.00     0.250 C 
BRANCH   7   8
HETATM    8  C   UNL     1     -42.720 -51.761  13.007  1.00  0.00     0.237 C 
HETATM    9  N   UNL     1     -43.904 -52.299  12.548  1.00  0.00    -0.355 N 
HETATM   10  H   UNL     1     -43.941 -52.691  11.608  1.00  0.00     0.162 HD
HETATM   11  O   UNL     1     -42.588 -51.317  14.148  1.00  0.00    -0.272 OA
BRANCH   9  12
HETATM   12  C   UNL     1     -45.071 -52.505  13.399  1.00  0.00     0.083 C 
BRANCH  12  13
HETATM   13  C   UNL     1     -46.176 -51.519  12.982  1.00  0.00     0.021 C 
HETATM   14  C   UNL     1     -46.893 -51.906  11.698  1.00  0.00     0.007 C 
ENDBRANCH  12  13
BRANCH  12  15
HETATM   15  C   UNL     1     -45.502 -53.985  13.409  1.00  0.00     0.021 C 
HETATM   16  C   UNL     1     -44.601 -54.911  14.214  1.00  0.00     0.007 C 
ENDBRANCH  12  15
ENDBRANCH   9  12
ENDBRANCH   7   8
ENDBRANCH   1   7
BRANCH   6  17
HETATM   17  C   UNL     1     -39.285 -49.579  12.669  1.00  0.00     0.056 C 
HETATM   18  C   UNL     1     -37.873 -49.013  12.873  1.00  0.00     0.012 C 
HETATM   19  C   UNL     1     -37.492 -48.912  14.351  1.00  0.00     0.001 C 
HETATM   20  C   UNL     1     -38.505 -48.083  15.133  1.00  0.00     0.000 C 
HETATM   21  C   UNL     1     -39.934 -48.585  14.954  1.00  0.00     0.001 C 
HETATM   22  C   UNL     1     -40.312 -48.772  13.482  1.00  0.00     0.012 C 
ENDBRANCH   6  17
TORSDOF 6
ENDMDL
MODEL 9
REMARK VINA RESULT:      -5.1      3.776      6.647
REMARK  6 active torsions:
REMARK  status: ('A' for Active; 'I' for Inactive)
REMARK    1  A    between atoms: C_2  and  C_3 
REMARK    2  A    between atoms: C_3  and  C_4 
REMARK    3  A    between atoms: C_3  and  N_6 
REMARK       I    between atoms: N_6  and  C_7 
REMARK    4  A    between atoms: C_7  and  C_9 
REMARK    5  A    between atoms: C_9  and  N_10 
REMARK    6  A    between atoms: C_15  and  C_16 
ROOT
HETATM    1  N   UNL     1     -38.397 -50.964  12.675  1.00  0.00    -0.256 N 
HETATM    2  N   UNL     1     -37.207 -51.133  12.068  1.00  0.00    -0.005 NA
HETATM    3  N   UNL     1     -37.258 -50.375  10.987  1.00  0.00    -0.007 NA
HETATM    4  N   UNL     1     -38.458 -49.725  10.902  1.00  0.00    -0.273 N 
ATOM      5  HN  UNL     1     -38.747 -49.077  10.169  1.00  0.00     0.185 HD
HETATM    6  C   UNL     1     -39.170 -50.095  11.948  1.00  0.00     0.114 A 
ENDROOT
BRANCH   1   7
HETATM    7  C   UNL     1     -38.620 -51.550  13.972  1.00  0.00     0.250 C 
BRANCH   7   8
HETATM    8  C   UNL     1     -39.321 -52.889  13.879  1.00  0.00     0.237 C 
HETATM    9  N   UNL     1     -40.674 -52.891  14.141  1.00  0.00    -0.355 N 
HETATM   10  H   UNL     1     -41.154 -52.004  14.286  1.00  0.00     0.162 HD
HETATM   11  O   UNL     1     -38.686 -53.916  13.641  1.00  0.00    -0.272 OA
BRANCH   9  12
HETATM   12  C   UNL     1     -41.505 -54.087  14.044  1.00  0.00     0.083 C 
BRANCH  12  13
HETATM   13  C   UNL     1     -41.623 -54.728  15.438  1.00  0.00     0.021 C 
HETATM   14  C   UNL     1     -42.863 -55.589  15.615  1.00  0.00     0.007 C 
ENDBRANCH  12  13
BRANCH  12  15
HETATM   15  C   UNL     1     -42.853 -53.779  13.364  1.00  0.00     0.021 C 
HETATM   16  C   UNL     1     -42.826 -52.616  12.381  1.00  0.00     0.007 C 
ENDBRANCH  12  15
ENDBRANCH   9  12
ENDBRANCH   7   8
ENDBRANCH   1   7
BRANCH   6  17
HETATM   17  C   UNL     1     -40.574 -49.689  12.288  1.00  0.00     0.056 C 
HETATM   18  C   UNL     1     -41.179 -48.840  11.161  1.00  0.00     0.012 C 
HETATM   19  C   UNL     1     -40.570 -47.439  11.094  1.00  0.00     0.001 C 
HETATM   20  C   UNL     1     -40.701 -46.709  12.426  1.00  0.00     0.000 C 
HETATM   21  C   UNL     1     -40.134 -47.513  13.592  1.00  0.00     0.001 C 
HETATM   22  C   UNL     1     -40.669 -48.947  13.632  1.00  0.00     0.012 C 
ENDBRANCH   6  17
TORSDOF 6
ENDMDL
