MODEL 1
REMARK VINA RESULT:      -5.8      0.000      0.000
REMARK  5 active torsions:
REMARK  status: ('A' for Active; 'I' for Inactive)
REMARK    1  A    between atoms: C_8  and  N_9 
REMARK       I    between atoms: N_9  and  C_10 
REMARK    2  A    between atoms: C_10  and  C_12 
REMARK    3  A    between atoms: C_12  and  O_13 
REMARK    4  A    between atoms: O_13  and  C_14 
REMARK    5  A    between atoms: C_14  and  C_15 
ROOT
HETATM    1  N   UNL     1     -41.015 -49.440  10.834  1.00  0.00    -0.311 N 
HETATM    2  C   UNL     1     -41.329 -48.085  10.757  1.00  0.00     0.246 C 
HETATM    3  O   UNL     1     -40.617 -47.127  11.049  1.00  0.00    -0.271 OA
HETATM    4  H   UNL     1     -41.709 -50.090  10.500  1.00  0.00     0.170 HD
ENDROOT
BRANCH   1   5
HETATM    5  C   UNL     1     -39.847 -49.943  11.428  1.00  0.00     0.113 A 
HETATM    6  C   UNL     1     -39.916 -50.720  12.594  1.00  0.00    -0.018 A 
HETATM    7  C   UNL     1     -41.200 -51.115  13.263  1.00  0.00     0.052 C 
HETATM    8  C   UNL     1     -38.708 -51.188  13.138  1.00  0.00     0.012 A 
HETATM    9  C   UNL     1     -37.495 -50.864  12.541  1.00  0.00     0.018 A 
HETATM   10  C   UNL     1     -37.528 -50.084  11.409  1.00  0.00     0.089 A 
HETATM   11  N   UNL     1     -38.668 -49.632  10.857  1.00  0.00    -0.352 N 
ATOM     12  HN  UNL     1     -38.639 -49.060  10.013  1.00  0.00     0.166 HD
ENDBRANCH   1   5
BRANCH   2  13
HETATM   13  C   UNL     1     -42.742 -47.843  10.236  1.00  0.00     0.270 C 
BRANCH  13  14
HETATM   14  O   UNL     1     -42.830 -47.885   8.816  1.00  0.00    -0.382 OA
BRANCH  14  15
HETATM   15  C   UNL     1     -44.002 -47.209   8.349  1.00  0.00     0.172 C 
BRANCH  15  16
HETATM   16  C   UNL     1     -45.135 -47.568   9.252  1.00  0.00     0.009 A 
HETATM   17  C   UNL     1     -46.307 -48.348   8.715  1.00  0.00     0.007 A 
HETATM   18  C   UNL     1     -46.480 -46.905   9.103  1.00  0.00     0.007 A 
ENDBRANCH  15  16
ENDBRANCH  14  15
ENDBRANCH  13  14
ENDBRANCH   2  13
TORSDOF 5
ENDMDL
MODEL 2
REMARK VINA RESULT:      -5.3      1.629      2.656
REMARK  5 active torsions:
REMARK  status: ('A' for Active; 'I' for Inactive)
REMARK    1  A    between atoms: C_8  and  N_9 
REMARK       I    between atoms: N_9  and  C_10 
REMARK    2  A    between atoms: C_10  and  C_12 
REMARK    3  A    between atoms: C_12  and  O_13 
REMARK    4  A    between atoms: O_13  and  C_14 
REMARK    5  A    between atoms: C_14  and  C_15 
ROOT
HETATM    1  N   UNL     1     -41.636 -49.705  11.284  1.00  0.00    -0.311 N 
HETATM    2  C   UNL     1     -42.535 -48.686  11.591  1.00  0.00     0.246 C 
HETATM    3  O   UNL     1     -43.304 -48.619  12.546  1.00  0.00    -0.271 OA
HETATM    4  H   UNL     1     -41.042 -49.564  10.482  1.00  0.00     0.170 HD
ENDROOT
BRANCH   1   5
HETATM    5  C   UNL     1     -41.582 -50.933  11.960  1.00  0.00     0.113 A 
HETATM    6  C   UNL     1     -40.366 -51.420  12.462  1.00  0.00    -0.018 A 
HETATM    7  C   UNL     1     -39.065 -50.678  12.373  1.00  0.00     0.052 C 
HETATM    8  C   UNL     1     -40.383 -52.659  13.125  1.00  0.00     0.012 A 
HETATM    9  C   UNL     1     -41.569 -53.374  13.250  1.00  0.00     0.018 A 
HETATM   10  C   UNL     1     -42.707 -52.822  12.712  1.00  0.00     0.089 A 
HETATM   11  N   UNL     1     -42.726 -51.633  12.084  1.00  0.00    -0.352 N 
ATOM     12  HN  UNL     1     -43.599 -51.265  11.705  1.00  0.00     0.166 HD
ENDBRANCH   1   5
BRANCH   2  13
HETATM   13  C   UNL     1     -42.497 -47.550  10.573  1.00  0.00     0.270 C 
BRANCH  13  14
HETATM   14  O   UNL     1     -43.055 -47.908   9.314  1.00  0.00    -0.382 OA
BRANCH  14  15
HETATM   15  C   UNL     1     -44.113 -47.018   8.943  1.00  0.00     0.172 C 
BRANCH  15  16
HETATM   16  C   UNL     1     -45.388 -47.556   9.503  1.00  0.00     0.009 A 
HETATM   17  C   UNL     1     -46.320 -48.349   8.625  1.00  0.00     0.007 A 
HETATM   18  C   UNL     1     -46.717 -46.975   9.091  1.00  0.00     0.007 A 
ENDBRANCH  15  16
ENDBRANCH  14  15
ENDBRANCH  13  14
ENDBRANCH   2  13
TORSDOF 5
ENDMDL
MODEL 3
REMARK VINA RESULT:      -5.2      4.065      5.222
REMARK  5 active torsions:
REMARK  status: ('A' for Active; 'I' for Inactive)
REMARK    1  A    between atoms: C_8  and  N_9 
REMARK       I    between atoms: N_9  and  C_10 
REMARK    2  A    between atoms: C_10  and  C_12 
REMARK    3  A    between atoms: C_12  and  O_13 
REMARK    4  A    between atoms: O_13  and  C_14 
REMARK    5  A    between atoms: C_14  and  C_15 
ROOT
HETATM    1  N   UNL     1     -41.892 -52.820  12.097  1.00  0.00    -0.311 N 
HETATM    2  C   UNL     1     -43.169 -52.585  12.598  1.00  0.00     0.246 C 
HETATM    3  O   UNL     1     -43.643 -51.523  12.994  1.00  0.00    -0.271 OA
HETATM    4  H   UNL     1     -41.693 -53.752  11.768  1.00  0.00     0.170 HD
ENDROOT
BRANCH   1   5
HETATM    5  C   UNL     1     -40.855 -51.874  12.116  1.00  0.00     0.113 A 
HETATM    6  C   UNL     1     -39.784 -52.004  13.012  1.00  0.00    -0.018 A 
HETATM    7  C   UNL     1     -39.624 -53.151  13.966  1.00  0.00     0.052 C 
HETATM    8  C   UNL     1     -38.783 -51.018  12.980  1.00  0.00     0.012 A 
HETATM    9  C   UNL     1     -38.877 -49.948  12.099  1.00  0.00     0.018 A 
HETATM   10  C   UNL     1     -39.973 -49.899  11.269  1.00  0.00     0.089 A 
HETATM   11  N   UNL     1     -40.940 -50.832  11.267  1.00  0.00    -0.352 N 
ATOM     12  HN  UNL     1     -41.731 -50.752  10.627  1.00  0.00     0.166 HD
ENDBRANCH   1   5
BRANCH   2  13
HETATM   13  C   UNL     1     -44.027 -53.847  12.623  1.00  0.00     0.270 C 
BRANCH  13  14
HETATM   14  O   UNL     1     -45.416 -53.577  12.769  1.00  0.00    -0.382 OA
BRANCH  14  15
HETATM   15  C   UNL     1     -45.864 -53.870  14.097  1.00  0.00     0.172 C 
BRANCH  15  16
HETATM   16  C   UNL     1     -46.840 -52.815  14.500  1.00  0.00     0.009 A 
HETATM   17  C   UNL     1     -46.802 -51.462  13.836  1.00  0.00     0.007 A 
HETATM   18  C   UNL     1     -46.390 -51.603  15.276  1.00  0.00     0.007 A 
ENDBRANCH  15  16
ENDBRANCH  14  15
ENDBRANCH  13  14
ENDBRANCH   2  13
TORSDOF 5
ENDMDL
MODEL 4
REMARK VINA RESULT:      -5.2      3.971      5.120
REMARK  5 active torsions:
REMARK  status: ('A' for Active; 'I' for Inactive)
REMARK    1  A    between atoms: C_8  and  N_9 
REMARK       I    between atoms: N_9  and  C_10 
REMARK    2  A    between atoms: C_10  and  C_12 
REMARK    3  A    between atoms: C_12  and  O_13 
REMARK    4  A    between atoms: O_13  and  C_14 
REMARK    5  A    between atoms: C_14  and  C_15 
ROOT
HETATM    1  N   UNL     1     -42.648 -51.808  12.100  1.00  0.00    -0.311 N 
HETATM    2  C   UNL     1     -42.708 -52.953  12.890  1.00  0.00     0.246 C 
HETATM    3  O   UNL     1     -41.946 -53.289  13.793  1.00  0.00    -0.271 OA
HETATM    4  H   UNL     1     -43.395 -51.670  11.437  1.00  0.00     0.170 HD
ENDROOT
BRANCH   1   5
HETATM    5  C   UNL     1     -41.575 -50.903  12.109  1.00  0.00     0.113 A 
HETATM    6  C   UNL     1     -41.800 -49.529  12.282  1.00  0.00    -0.018 A 
HETATM    7  C   UNL     1     -43.153 -48.924  12.516  1.00  0.00     0.052 C 
HETATM    8  C   UNL     1     -40.681 -48.679  12.277  1.00  0.00     0.012 A 
HETATM    9  C   UNL     1     -39.405 -49.197  12.085  1.00  0.00     0.018 A 
HETATM   10  C   UNL     1     -39.287 -50.555  11.909  1.00  0.00     0.089 A 
HETATM   11  N   UNL     1     -40.336 -51.396  11.922  1.00  0.00    -0.352 N 
ATOM     12  HN  UNL     1     -40.195 -52.398  11.791  1.00  0.00     0.166 HD
ENDBRANCH   1   5
BRANCH   2  13
HETATM   13  C   UNL     1     -43.892 -53.846  12.532  1.00  0.00     0.270 C 
BRANCH  13  14
HETATM   14  O   UNL     1     -45.054 -53.113  12.160  1.00  0.00    -0.382 OA
BRANCH  14  15
HETATM   15  C   UNL     1     -46.021 -53.104  13.215  1.00  0.00     0.172 C 
BRANCH  15  16
HETATM   16  C   UNL     1     -46.232 -51.687  13.637  1.00  0.00     0.009 A 
HETATM   17  C   UNL     1     -45.414 -51.108  14.762  1.00  0.00     0.007 A 
HETATM   18  C   UNL     1     -46.883 -51.366  14.959  1.00  0.00     0.007 A 
ENDBRANCH  15  16
ENDBRANCH  14  15
ENDBRANCH  13  14
ENDBRANCH   2  13
TORSDOF 5
ENDMDL
MODEL 5
REMARK VINA RESULT:      -5.1      4.232      7.231
REMARK  5 active torsions:
REMARK  status: ('A' for Active; 'I' for Inactive)
REMARK    1  A    between atoms: C_8  and  N_9 
REMARK       I    between atoms: N_9  and  C_10 
REMARK    2  A    between atoms: C_10  and  C_12 
REMARK    3  A    between atoms: C_12  and  O_13 
REMARK    4  A    between atoms: O_13  and  C_14 
REMARK    5  A    between atoms: C_14  and  C_15 
ROOT
HETATM    1  N   UNL     1     -43.628 -51.665  12.857  1.00  0.00    -0.311 N 
HETATM    2  C   UNL     1     -42.551 -52.542  12.952  1.00  0.00     0.246 C 
HETATM    3  O   UNL     1     -42.341 -53.390  13.816  1.00  0.00    -0.271 OA
HETATM    4  H   UNL     1     -43.662 -51.069  12.044  1.00  0.00     0.170 HD
ENDROOT
BRANCH   1   5
HETATM    5  C   UNL     1     -44.597 -51.500  13.858  1.00  0.00     0.113 A 
HETATM    6  C   UNL     1     -45.963 -51.601  13.555  1.00  0.00    -0.018 A 
HETATM    7  C   UNL     1     -46.497 -51.934  12.192  1.00  0.00     0.052 C 
HETATM    8  C   UNL     1     -46.879 -51.421  14.605  1.00  0.00     0.012 A 
HETATM    9  C   UNL     1     -46.431 -51.131  15.888  1.00  0.00     0.018 A 
HETATM   10  C   UNL     1     -45.073 -51.037  16.084  1.00  0.00     0.089 A 
HETATM   11  N   UNL     1     -44.171 -51.217  15.104  1.00  0.00    -0.352 N 
ATOM     12  HN  UNL     1     -43.173 -51.141  15.302  1.00  0.00     0.166 HD
ENDBRANCH   1   5
BRANCH   2  13
HETATM   13  C   UNL     1     -41.557 -52.372  11.806  1.00  0.00     0.270 C 
BRANCH  13  14
HETATM   14  O   UNL     1     -40.222 -52.158  12.251  1.00  0.00    -0.382 OA
BRANCH  14  15
HETATM   15  C   UNL     1     -39.880 -50.768  12.213  1.00  0.00     0.172 C 
BRANCH  15  16
HETATM   16  C   UNL     1     -38.407 -50.649  12.430  1.00  0.00     0.009 A 
HETATM   17  C   UNL     1     -37.793 -49.298  12.690  1.00  0.00     0.007 A 
HETATM   18  C   UNL     1     -37.525 -50.006  11.390  1.00  0.00     0.007 A 
ENDBRANCH  15  16
ENDBRANCH  14  15
ENDBRANCH  13  14
ENDBRANCH   2  13
TORSDOF 5
ENDMDL
MODEL 6
REMARK VINA RESULT:      -5.0      2.603      6.249
REMARK  5 active torsions:
REMARK  status: ('A' for Active; 'I' for Inactive)
REMARK    1  A    between atoms: C_8  and  N_9 
REMARK       I    between atoms: N_9  and  C_10 
REMARK    2  A    between atoms: C_10  and  C_12 
REMARK    3  A    between atoms: C_12  and  O_13 
REMARK    4  A    between atoms: O_13  and  C_14 
REMARK    5  A    between atoms: C_14  and  C_15 
ROOT
HETATM    1  N   UNL     1     -41.032 -49.178  10.750  1.00  0.00    -0.311 N 
HETATM    2  C   UNL     1     -41.402 -50.028  11.788  1.00  0.00     0.246 C 
HETATM    3  O   UNL     1     -42.451 -50.027  12.428  1.00  0.00    -0.271 OA
HETATM    4  H   UNL     1     -40.147 -49.361  10.302  1.00  0.00     0.170 HD
ENDROOT
BRANCH   1   5
HETATM    5  C   UNL     1     -41.763 -48.044  10.364  1.00  0.00     0.113 A 
HETATM    6  C   UNL     1     -41.291 -46.756  10.653  1.00  0.00    -0.018 A 
HETATM    7  C   UNL     1     -39.982 -46.476  11.332  1.00  0.00     0.052 C 
HETATM    8  C   UNL     1     -42.076 -45.665  10.242  1.00  0.00     0.012 A 
HETATM    9  C   UNL     1     -43.286 -45.875   9.592  1.00  0.00     0.018 A 
HETATM   10  C   UNL     1     -43.672 -47.175   9.366  1.00  0.00     0.089 A 
HETATM   11  N   UNL     1     -42.938 -48.238   9.735  1.00  0.00    -0.352 N 
ATOM     12  HN  UNL     1     -43.267 -49.184   9.541  1.00  0.00     0.166 HD
ENDBRANCH   1   5
BRANCH   2  13
HETATM   13  C   UNL     1     -40.325 -51.060  12.109  1.00  0.00     0.270 C 
BRANCH  13  14
HETATM   14  O   UNL     1     -40.770 -52.402  11.947  1.00  0.00    -0.382 OA
BRANCH  14  15
HETATM   15  C   UNL     1     -40.543 -53.171  13.134  1.00  0.00     0.172 C 
BRANCH  15  16
HETATM   16  C   UNL     1     -41.580 -54.242  13.197  1.00  0.00     0.009 A 
HETATM   17  C   UNL     1     -43.042 -53.875  13.201  1.00  0.00     0.007 A 
HETATM   18  C   UNL     1     -42.408 -54.443  14.441  1.00  0.00     0.007 A 
ENDBRANCH  15  16
ENDBRANCH  14  15
ENDBRANCH  13  14
ENDBRANCH   2  13
TORSDOF 5
ENDMDL
MODEL 7
REMARK VINA RESULT:      -5.0      2.209      2.383
REMARK  5 active torsions:
REMARK  status: ('A' for Active; 'I' for Inactive)
REMARK    1  A    between atoms: C_8  and  N_9 
REMARK       I    between atoms: N_9  and  C_10 
REMARK    2  A    between atoms: C_10  and  C_12 
REMARK    3  A    between atoms: C_12  and  O_13 
REMARK    4  A    between atoms: O_13  and  C_14 
REMARK    5  A    between atoms: C_14  and  C_15 
ROOT
HETATM    1  N   UNL     1     -41.067 -47.339  11.574  1.00  0.00    -0.311 N 
HETATM    2  C   UNL     1     -41.194 -46.312  10.641  1.00  0.00     0.246 C 
HETATM    3  O   UNL     1     -40.352 -45.479  10.316  1.00  0.00    -0.271 OA
HETATM    4  H   UNL     1     -41.851 -47.965  11.673  1.00  0.00     0.170 HD
ENDROOT
BRANCH   1   5
HETATM    5  C   UNL     1     -39.968 -47.487  12.433  1.00  0.00     0.113 A 
HETATM    6  C   UNL     1     -39.230 -48.680  12.450  1.00  0.00    -0.018 A 
HETATM    7  C   UNL     1     -39.503 -49.848  11.548  1.00  0.00     0.052 C 
HETATM    8  C   UNL     1     -38.144 -48.762  13.339  1.00  0.00     0.012 A 
HETATM    9  C   UNL     1     -37.840 -47.698  14.179  1.00  0.00     0.018 A 
HETATM   10  C   UNL     1     -38.631 -46.576  14.100  1.00  0.00     0.089 A 
HETATM   11  N   UNL     1     -39.668 -46.462  13.252  1.00  0.00    -0.352 N 
ATOM     12  HN  UNL     1     -40.222 -45.605  13.230  1.00  0.00     0.166 HD
ENDBRANCH   1   5
BRANCH   2  13
HETATM   13  C   UNL     1     -42.571 -46.288   9.985  1.00  0.00     0.270 C 
BRANCH  13  14
HETATM   14  O   UNL     1     -43.020 -47.576   9.579  1.00  0.00    -0.382 OA
BRANCH  14  15
HETATM   15  C   UNL     1     -44.119 -47.478   8.666  1.00  0.00     0.172 C 
BRANCH  15  16
HETATM   16  C   UNL     1     -45.382 -47.645   9.444  1.00  0.00     0.009 A 
HETATM   17  C   UNL     1     -46.551 -48.373   8.834  1.00  0.00     0.007 A 
HETATM   18  C   UNL     1     -46.629 -46.889   9.061  1.00  0.00     0.007 A 
ENDBRANCH  15  16
ENDBRANCH  14  15
ENDBRANCH  13  14
ENDBRANCH   2  13
TORSDOF 5
ENDMDL
MODEL 8
REMARK VINA RESULT:      -5.0      2.898      4.373
REMARK  5 active torsions:
REMARK  status: ('A' for Active; 'I' for Inactive)
REMARK    1  A    between atoms: C_8  and  N_9 
REMARK       I    between atoms: N_9  and  C_10 
REMARK    2  A    between atoms: C_10  and  C_12 
REMARK    3  A    between atoms: C_12  and  O_13 
REMARK    4  A    between atoms: O_13  and  C_14 
REMARK    5  A    between atoms: C_14  and  C_15 
ROOT
HETATM    1  N   UNL     1     -42.170 -51.401  12.026  1.00  0.00    -0.311 N 
HETATM    2  C   UNL     1     -42.318 -50.040  12.278  1.00  0.00     0.246 C 
HETATM    3  O   UNL     1     -43.079 -49.497  13.076  1.00  0.00    -0.271 OA
HETATM    4  H   UNL     1     -41.453 -51.670  11.369  1.00  0.00     0.170 HD
ENDROOT
BRANCH   1   5
HETATM    5  C   UNL     1     -43.011 -52.393  12.553  1.00  0.00     0.113 A 
HETATM    6  C   UNL     1     -42.475 -53.558  13.121  1.00  0.00    -0.018 A 
HETATM    7  C   UNL     1     -41.004 -53.822  13.260  1.00  0.00     0.052 C 
HETATM    8  C   UNL     1     -43.374 -54.512  13.626  1.00  0.00     0.012 A 
HETATM    9  C   UNL     1     -44.745 -54.302  13.538  1.00  0.00     0.018 A 
HETATM   10  C   UNL     1     -45.176 -53.136  12.951  1.00  0.00     0.089 A 
HETATM   11  N   UNL     1     -44.341 -52.198  12.471  1.00  0.00    -0.352 N 
ATOM     12  HN  UNL     1     -44.711 -51.347  12.047  1.00  0.00     0.166 HD
ENDBRANCH   1   5
BRANCH   2  13
HETATM   13  C   UNL     1     -41.387 -49.184  11.423  1.00  0.00     0.270 C 
BRANCH  13  14
HETATM   14  O   UNL     1     -41.916 -47.893  11.142  1.00  0.00    -0.382 OA
BRANCH  14  15
HETATM   15  C   UNL     1     -42.508 -47.848   9.839  1.00  0.00     0.172 C 
BRANCH  15  16
HETATM   16  C   UNL     1     -43.829 -47.161   9.956  1.00  0.00     0.009 A 
HETATM   17  C   UNL     1     -44.923 -47.462   8.965  1.00  0.00     0.007 A 
HETATM   18  C   UNL     1     -44.247 -46.119   8.950  1.00  0.00     0.007 A 
ENDBRANCH  15  16
ENDBRANCH  14  15
ENDBRANCH  13  14
ENDBRANCH   2  13
TORSDOF 5
ENDMDL
MODEL 9
REMARK VINA RESULT:      -4.9      4.387      6.022
REMARK  5 active torsions:
REMARK  status: ('A' for Active; 'I' for Inactive)
REMARK    1  A    between atoms: C_8  and  N_9 
REMARK       I    between atoms: N_9  and  C_10 
REMARK    2  A    between atoms: C_10  and  C_12 
REMARK    3  A    between atoms: C_12  and  O_13 
REMARK    4  A    between atoms: O_13  and  C_14 
REMARK    5  A    between atoms: C_14  and  C_15 
ROOT
HETATM    1  N   UNL     1     -42.634 -44.678  11.578  1.00  0.00    -0.311 N 
HETATM    2  C   UNL     1     -42.398 -45.544  10.514  1.00  0.00     0.246 C 
HETATM    3  O   UNL     1     -41.621 -45.393   9.574  1.00  0.00    -0.271 OA
HETATM    4  H   UNL     1     -43.274 -44.994  12.291  1.00  0.00     0.170 HD
ENDROOT
BRANCH   1   5
HETATM    5  C   UNL     1     -42.117 -43.377  11.660  1.00  0.00     0.113 A 
HETATM    6  C   UNL     1     -40.905 -43.129  12.321  1.00  0.00    -0.018 A 
HETATM    7  C   UNL     1     -40.052 -44.201  12.936  1.00  0.00     0.052 C 
HETATM    8  C   UNL     1     -40.447 -41.802  12.370  1.00  0.00     0.012 A 
HETATM    9  C   UNL     1     -41.192 -40.779  11.796  1.00  0.00     0.018 A 
HETATM   10  C   UNL     1     -42.376 -41.118  11.183  1.00  0.00     0.089 A 
HETATM   11  N   UNL     1     -42.834 -42.379  11.108  1.00  0.00    -0.352 N 
ATOM     12  HN  UNL     1     -43.717 -42.579  10.638  1.00  0.00     0.166 HD
ENDBRANCH   1   5
BRANCH   2  13
HETATM   13  C   UNL     1     -43.240 -46.814  10.598  1.00  0.00     0.270 C 
BRANCH  13  14
HETATM   14  O   UNL     1     -43.104 -47.652   9.455  1.00  0.00    -0.382 OA
BRANCH  14  15
HETATM   15  C   UNL     1     -44.242 -47.545   8.594  1.00  0.00     0.172 C 
BRANCH  15  16
HETATM   16  C   UNL     1     -45.471 -47.659   9.435  1.00  0.00     0.009 A 
HETATM   17  C   UNL     1     -46.665 -48.420   8.923  1.00  0.00     0.007 A 
HETATM   18  C   UNL     1     -46.732 -46.924   9.060  1.00  0.00     0.007 A 
ENDBRANCH  15  16
ENDBRANCH  14  15
ENDBRANCH  13  14
ENDBRANCH   2  13
TORSDOF 5
ENDMDL
