MODEL 1
REMARK VINA RESULT:      -6.7      0.000      0.000
REMARK  2 active torsions:
REMARK  status: ('A' for Active; 'I' for Inactive)
REMARK    1  A    between atoms: C_7  and  N_8 
REMARK       I    between atoms: N_8  and  C_9 
REMARK       I    between atoms: C_9  and  N_11 
REMARK    2  A    between atoms: N_11  and  C_12 
ROOT
HETATM    1  N   UNL     1     -41.293 -47.880  10.291  1.00  0.00    -0.288 N 
HETATM    2  C   UNL     1     -40.944 -48.868  11.172  1.00  0.00     0.322 C 
HETATM    3  O   UNL     1     -39.818 -48.896  11.653  1.00  0.00    -0.247 OA
HETATM    4  N   UNL     1     -41.908 -49.780  11.472  1.00  0.00    -0.330 N 
HETATM    5  H   UNL     1     -40.614 -47.147  10.148  1.00  0.00     0.172 HD
HETATM    6  H   UNL     1     -42.808 -49.662  11.018  1.00  0.00     0.165 HD
ENDROOT
BRANCH   1   7
HETATM    7  C   UNL     1     -42.511 -47.799   9.678  1.00  0.00     0.169 A 
HETATM    8  N   UNL     1     -42.828 -48.212   8.471  1.00  0.00    -0.279 N 
HETATM    9  N   UNL     1     -44.160 -48.050   8.198  1.00  0.00    -0.296 N 
ATOM     10  HN  UNL     1     -42.158 -48.610   7.813  1.00  0.00     0.189 HD
HETATM   11  C   UNL     1     -44.805 -47.521   9.219  1.00  0.00     0.066 A 
ATOM     12  HN  UNL     1     -44.599 -48.306   7.314  1.00  0.00     0.187 HD
HETATM   13  C   UNL     1     -46.269 -47.298   9.247  1.00  0.00     0.078 C 
HETATM   14  S   UNL     1     -43.799 -47.129  10.564  1.00  0.00    -0.038 SA
ENDBRANCH   1   7
BRANCH   4  15
HETATM   15  C   UNL     1     -41.810 -50.827  12.478  1.00  0.00     0.172 C 
HETATM   16  C   UNL     1     -41.316 -52.088  11.761  1.00  0.00     0.034 C 
HETATM   17  C   UNL     1     -40.885 -53.191  12.713  1.00  0.00     0.004 C 
HETATM   18  C   UNL     1     -42.018 -54.091  13.188  1.00  0.00     0.015 C 
HETATM   19  C   UNL     1     -43.350 -53.421  13.493  1.00  0.00     0.095 C 
HETATM   20  N   UNL     1     -43.276 -52.092  14.062  1.00  0.00    -0.261 NA
HETATM   21  C   UNL     1     -43.171 -51.025  13.190  1.00  0.00     0.220 C 
HETATM   22  H   UNL     1     -44.096 -51.913  14.632  1.00  0.00     0.130 HD
HETATM   23  O   UNL     1     -44.125 -50.252  13.104  1.00  0.00    -0.278 OA
ENDBRANCH   4  15
TORSDOF 2
ENDMDL
MODEL 2
REMARK VINA RESULT:      -6.2      2.875      3.860
REMARK  2 active torsions:
REMARK  status: ('A' for Active; 'I' for Inactive)
REMARK    1  A    between atoms: C_7  and  N_8 
REMARK       I    between atoms: N_8  and  C_9 
REMARK       I    between atoms: C_9  and  N_11 
REMARK    2  A    between atoms: N_11  and  C_12 
ROOT
HETATM    1  N   UNL     1     -40.494 -51.004  11.344  1.00  0.00    -0.288 N 
HETATM    2  C   UNL     1     -41.434 -51.779  11.969  1.00  0.00     0.322 C 
HETATM    3  O   UNL     1     -41.268 -52.988  12.072  1.00  0.00    -0.247 OA
HETATM    4  N   UNL     1     -42.525 -51.130  12.461  1.00  0.00    -0.330 N 
HETATM    5  H   UNL     1     -39.641 -51.469  11.072  1.00  0.00     0.172 HD
HETATM    6  H   UNL     1     -42.560 -50.125  12.324  1.00  0.00     0.165 HD
ENDROOT
BRANCH   1   7
HETATM    7  C   UNL     1     -40.621 -49.657  11.152  1.00  0.00     0.169 A 
HETATM    8  N   UNL     1     -41.279 -49.046  10.193  1.00  0.00    -0.279 N 
HETATM    9  N   UNL     1     -41.269 -47.684  10.341  1.00  0.00    -0.296 N 
ATOM     10  HN  UNL     1     -41.746 -49.530   9.427  1.00  0.00     0.189 HD
HETATM   11  C   UNL     1     -40.602 -47.317  11.417  1.00  0.00     0.066 A 
ATOM     12  HN  UNL     1     -41.721 -47.035   9.698  1.00  0.00     0.187 HD
HETATM   13  C   UNL     1     -40.485 -45.915  11.878  1.00  0.00     0.078 C 
HETATM   14  S   UNL     1     -39.888 -48.624  12.287  1.00  0.00    -0.038 SA
ENDBRANCH   1   7
BRANCH   4  15
HETATM   15  C   UNL     1     -43.575 -51.721  13.276  1.00  0.00     0.172 C 
HETATM   16  C   UNL     1     -44.876 -50.992  12.922  1.00  0.00     0.034 C 
HETATM   17  C   UNL     1     -46.117 -51.678  13.468  1.00  0.00     0.004 C 
HETATM   18  C   UNL     1     -46.471 -51.291  14.899  1.00  0.00     0.015 C 
HETATM   19  C   UNL     1     -45.314 -51.115  15.872  1.00  0.00     0.095 C 
HETATM   20  N   UNL     1     -44.188 -52.005  15.685  1.00  0.00    -0.261 NA
HETATM   21  C   UNL     1     -43.215 -51.626  14.779  1.00  0.00     0.220 C 
HETATM   22  H   UNL     1     -43.711 -52.151  16.569  1.00  0.00     0.130 HD
HETATM   23  O   UNL     1     -42.103 -51.330  15.215  1.00  0.00    -0.278 OA
ENDBRANCH   4  15
TORSDOF 2
ENDMDL
MODEL 3
REMARK VINA RESULT:      -6.2      2.826      5.929
REMARK  2 active torsions:
REMARK  status: ('A' for Active; 'I' for Inactive)
REMARK    1  A    between atoms: C_7  and  N_8 
REMARK       I    between atoms: N_8  and  C_9 
REMARK       I    between atoms: C_9  and  N_11 
REMARK    2  A    between atoms: N_11  and  C_12 
ROOT
HETATM    1  N   UNL     1     -39.432 -51.025  12.039  1.00  0.00    -0.288 N 
HETATM    2  C   UNL     1     -39.205 -49.696  11.803  1.00  0.00     0.322 C 
HETATM    3  O   UNL     1     -38.060 -49.262  11.772  1.00  0.00    -0.247 OA
HETATM    4  N   UNL     1     -40.304 -48.919  11.602  1.00  0.00    -0.330 N 
HETATM    5  H   UNL     1     -38.617 -51.617  12.086  1.00  0.00     0.172 HD
HETATM    6  H   UNL     1     -41.206 -49.382  11.646  1.00  0.00     0.165 HD
ENDROOT
BRANCH   1   7
HETATM    7  C   UNL     1     -40.677 -51.582  12.130  1.00  0.00     0.169 A 
HETATM    8  N   UNL     1     -41.329 -52.239  11.198  1.00  0.00    -0.279 N 
HETATM    9  N   UNL     1     -42.525 -52.732  11.647  1.00  0.00    -0.296 N 
ATOM     10  HN  UNL     1     -40.984 -52.367  10.247  1.00  0.00     0.189 HD
HETATM   11  C   UNL     1     -42.729 -52.432  12.914  1.00  0.00     0.066 A 
ATOM     12  HN  UNL     1     -43.176 -53.267  11.073  1.00  0.00     0.187 HD
HETATM   13  C   UNL     1     -43.899 -52.894  13.695  1.00  0.00     0.078 C 
HETATM   14  S   UNL     1     -41.488 -51.464  13.621  1.00  0.00    -0.038 SA
ENDBRANCH   1   7
BRANCH   4  15
HETATM   15  C   UNL     1     -40.301 -47.521  11.200  1.00  0.00     0.172 C 
HETATM   16  C   UNL     1     -40.251 -46.689  12.486  1.00  0.00     0.034 C 
HETATM   17  C   UNL     1     -39.950 -45.220  12.240  1.00  0.00     0.004 C 
HETATM   18  C   UNL     1     -41.176 -44.372  11.921  1.00  0.00     0.015 C 
HETATM   19  C   UNL     1     -42.237 -45.001  11.030  1.00  0.00     0.095 C 
HETATM   20  N   UNL     1     -41.750 -45.881   9.988  1.00  0.00    -0.261 NA
HETATM   21  C   UNL     1     -41.533 -47.206  10.317  1.00  0.00     0.220 C 
HETATM   22  H   UNL     1     -42.398 -45.885   9.207  1.00  0.00     0.130 HD
HETATM   23  O   UNL     1     -42.272 -48.054   9.818  1.00  0.00    -0.278 OA
ENDBRANCH   4  15
TORSDOF 2
ENDMDL
MODEL 4
REMARK VINA RESULT:      -6.1      2.957      4.330
REMARK  2 active torsions:
REMARK  status: ('A' for Active; 'I' for Inactive)
REMARK    1  A    between atoms: C_7  and  N_8 
REMARK       I    between atoms: N_8  and  C_9 
REMARK       I    between atoms: C_9  and  N_11 
REMARK    2  A    between atoms: N_11  and  C_12 
ROOT
HETATM    1  N   UNL     1     -41.171 -51.242  13.210  1.00  0.00    -0.288 N 
HETATM    2  C   UNL     1     -42.382 -51.789  13.543  1.00  0.00     0.322 C 
HETATM    3  O   UNL     1     -42.445 -52.691  14.368  1.00  0.00    -0.247 OA
HETATM    4  N   UNL     1     -43.474 -51.269  12.920  1.00  0.00    -0.330 N 
HETATM    5  H   UNL     1     -40.376 -51.556  13.745  1.00  0.00     0.172 HD
HETATM    6  H   UNL     1     -43.309 -50.520  12.255  1.00  0.00     0.165 HD
ENDROOT
BRANCH   1   7
HETATM    7  C   UNL     1     -41.009 -50.262  12.271  1.00  0.00     0.169 A 
HETATM    8  N   UNL     1     -40.822 -50.416  10.980  1.00  0.00    -0.279 N 
HETATM    9  N   UNL     1     -40.776 -49.221  10.314  1.00  0.00    -0.296 N 
ATOM     10  HN  UNL     1     -40.722 -51.324  10.525  1.00  0.00     0.189 HD
HETATM   11  C   UNL     1     -40.938 -48.202  11.133  1.00  0.00     0.066 A 
ATOM     12  HN  UNL     1     -40.634 -49.130   9.308  1.00  0.00     0.187 HD
HETATM   13  C   UNL     1     -41.012 -46.789  10.692  1.00  0.00     0.078 C 
HETATM   14  S   UNL     1     -41.094 -48.646  12.793  1.00  0.00    -0.038 SA
ENDBRANCH   1   7
BRANCH   4  15
HETATM   15  C   UNL     1     -44.861 -51.593  13.214  1.00  0.00     0.172 C 
HETATM   16  C   UNL     1     -45.084 -51.287  14.699  1.00  0.00     0.034 C 
HETATM   17  C   UNL     1     -46.550 -51.295  15.101  1.00  0.00     0.004 C 
HETATM   18  C   UNL     1     -47.095 -52.671  15.460  1.00  0.00     0.015 C 
HETATM   19  C   UNL     1     -46.622 -53.844  14.614  1.00  0.00     0.095 C 
HETATM   20  N   UNL     1     -46.401 -53.565  13.211  1.00  0.00    -0.261 NA
HETATM   21  C   UNL     1     -45.166 -53.066  12.843  1.00  0.00     0.220 C 
HETATM   22  H   UNL     1     -46.540 -54.408  12.664  1.00  0.00     0.130 HD
HETATM   23  O   UNL     1     -44.428 -53.785  12.170  1.00  0.00    -0.278 OA
ENDBRANCH   4  15
TORSDOF 2
ENDMDL
MODEL 5
REMARK VINA RESULT:      -6.1      4.566      6.481
REMARK  2 active torsions:
REMARK  status: ('A' for Active; 'I' for Inactive)
REMARK    1  A    between atoms: C_7  and  N_8 
REMARK       I    between atoms: N_8  and  C_9 
REMARK       I    between atoms: C_9  and  N_11 
REMARK    2  A    between atoms: N_11  and  C_12 
ROOT
HETATM    1  N   UNL     1     -43.539 -53.037  11.885  1.00  0.00    -0.288 N 
HETATM    2  C   UNL     1     -44.699 -53.021  12.613  1.00  0.00     0.322 C 
HETATM    3  O   UNL     1     -45.784 -53.010  12.045  1.00  0.00    -0.247 OA
HETATM    4  N   UNL     1     -44.564 -53.030  13.967  1.00  0.00    -0.330 N 
HETATM    5  H   UNL     1     -43.640 -53.134  10.886  1.00  0.00     0.172 HD
HETATM    6  H   UNL     1     -43.618 -53.043  14.333  1.00  0.00     0.165 HD
ENDROOT
BRANCH   1   7
HETATM    7  C   UNL     1     -42.290 -53.009  12.438  1.00  0.00     0.169 A 
HETATM    8  N   UNL     1     -41.545 -54.036  12.780  1.00  0.00    -0.279 N 
HETATM    9  N   UNL     1     -40.311 -53.656  13.235  1.00  0.00    -0.296 N 
ATOM     10  HN  UNL     1     -41.851 -55.007  12.713  1.00  0.00     0.189 HD
HETATM   11  C   UNL     1     -40.168 -52.346  13.214  1.00  0.00     0.066 A 
ATOM     12  HN  UNL     1     -39.591 -54.305  13.550  1.00  0.00     0.187 HD
HETATM   13  C   UNL     1     -38.915 -51.645  13.576  1.00  0.00     0.078 C 
HETATM   14  S   UNL     1     -41.571 -51.489  12.691  1.00  0.00    -0.038 SA
ENDBRANCH   1   7
BRANCH   4  15
HETATM   15  C   UNL     1     -45.645 -53.155  14.933  1.00  0.00     0.172 C 
HETATM   16  C   UNL     1     -46.026 -51.734  15.360  1.00  0.00     0.034 C 
HETATM   17  C   UNL     1     -47.328 -51.670  16.143  1.00  0.00     0.004 C 
HETATM   18  C   UNL     1     -47.174 -51.914  17.639  1.00  0.00     0.015 C 
HETATM   19  C   UNL     1     -46.183 -52.987  18.065  1.00  0.00     0.095 C 
HETATM   20  N   UNL     1     -46.080 -54.137  17.192  1.00  0.00    -0.261 NA
HETATM   21  C   UNL     1     -45.213 -54.053  16.119  1.00  0.00     0.220 C 
HETATM   22  H   UNL     1     -45.793 -54.952  17.725  1.00  0.00     0.130 HD
HETATM   23  O   UNL     1     -44.207 -54.760  16.131  1.00  0.00    -0.278 OA
ENDBRANCH   4  15
TORSDOF 2
ENDMDL
MODEL 6
REMARK VINA RESULT:      -6.0      3.788      5.503
REMARK  2 active torsions:
REMARK  status: ('A' for Active; 'I' for Inactive)
REMARK    1  A    between atoms: C_7  and  N_8 
REMARK       I    between atoms: N_8  and  C_9 
REMARK       I    between atoms: C_9  and  N_11 
REMARK    2  A    between atoms: N_11  and  C_12 
ROOT
HETATM    1  N   UNL     1     -42.040 -54.030  13.020  1.00  0.00    -0.288 N 
HETATM    2  C   UNL     1     -40.814 -53.420  12.991  1.00  0.00     0.322 C 
HETATM    3  O   UNL     1     -39.792 -54.084  13.113  1.00  0.00    -0.247 OA
HETATM    4  N   UNL     1     -40.812 -52.072  12.811  1.00  0.00    -0.330 N 
HETATM    5  H   UNL     1     -42.037 -55.038  13.050  1.00  0.00     0.172 HD
HETATM    6  H   UNL     1     -41.716 -51.621  12.717  1.00  0.00     0.165 HD
ENDROOT
BRANCH   1   7
HETATM    7  C   UNL     1     -43.227 -53.359  12.931  1.00  0.00     0.169 A 
HETATM    8  N   UNL     1     -43.959 -53.168  11.857  1.00  0.00    -0.279 N 
HETATM    9  N   UNL     1     -45.133 -52.520  12.134  1.00  0.00    -0.296 N 
ATOM     10  HN  UNL     1     -43.684 -53.469  10.922  1.00  0.00     0.189 HD
HETATM   11  C   UNL     1     -45.246 -52.250  13.419  1.00  0.00     0.066 A 
ATOM     12  HN  UNL     1     -45.833 -52.278  11.433  1.00  0.00     0.187 HD
HETATM   13  C   UNL     1     -46.441 -51.623  14.029  1.00  0.00     0.078 C 
HETATM   14  S   UNL     1     -43.882 -52.720  14.365  1.00  0.00    -0.038 SA
ENDBRANCH   1   7
BRANCH   4  15
HETATM   15  C   UNL     1     -39.636 -51.238  12.610  1.00  0.00     0.172 C 
HETATM   16  C   UNL     1     -39.133 -50.835  14.000  1.00  0.00     0.034 C 
HETATM   17  C   UNL     1     -37.750 -50.206  13.980  1.00  0.00     0.004 C 
HETATM   18  C   UNL     1     -37.745 -48.706  13.713  1.00  0.00     0.015 C 
HETATM   19  C   UNL     1     -38.737 -48.186  12.682  1.00  0.00     0.095 C 
HETATM   20  N   UNL     1     -39.000 -49.059  11.558  1.00  0.00    -0.261 NA
HETATM   21  C   UNL     1     -39.977 -50.024  11.710  1.00  0.00     0.220 C 
HETATM   22  H   UNL     1     -39.268 -48.510  10.748  1.00  0.00     0.130 HD
HETATM   23  O   UNL     1     -41.013 -49.908  11.055  1.00  0.00    -0.278 OA
ENDBRANCH   4  15
TORSDOF 2
ENDMDL
MODEL 7
REMARK VINA RESULT:      -5.9      3.846      6.794
REMARK  2 active torsions:
REMARK  status: ('A' for Active; 'I' for Inactive)
REMARK    1  A    between atoms: C_7  and  N_8 
REMARK       I    between atoms: N_8  and  C_9 
REMARK       I    between atoms: C_9  and  N_11 
REMARK    2  A    between atoms: N_11  and  C_12 
ROOT
HETATM    1  N   UNL     1     -41.103 -49.433  10.493  1.00  0.00    -0.288 N 
HETATM    2  C   UNL     1     -41.607 -48.169  10.342  1.00  0.00     0.322 C 
HETATM    3  O   UNL     1     -42.586 -47.976   9.631  1.00  0.00    -0.247 OA
HETATM    4  N   UNL     1     -40.972 -47.178  11.024  1.00  0.00    -0.330 N 
HETATM    5  H   UNL     1     -41.633 -50.180  10.070  1.00  0.00     0.172 HD
HETATM    6  H   UNL     1     -40.173 -47.449  11.587  1.00  0.00     0.165 HD
ENDROOT
BRANCH   1   7
HETATM    7  C   UNL     1     -39.993 -49.728  11.233  1.00  0.00     0.169 A 
HETATM    8  N   UNL     1     -38.747 -49.780  10.820  1.00  0.00    -0.279 N 
HETATM    9  N   UNL     1     -37.869 -50.028  11.841  1.00  0.00    -0.296 N 
ATOM     10  HN  UNL     1     -38.465 -49.650   9.848  1.00  0.00     0.189 HD
HETATM   11  C   UNL     1     -38.490 -50.149  12.997  1.00  0.00     0.066 A 
ATOM     12  HN  UNL     1     -36.859 -50.109  11.722  1.00  0.00     0.187 HD
HETATM   13  C   UNL     1     -37.797 -50.345  14.291  1.00  0.00     0.078 C 
HETATM   14  S   UNL     1     -40.208 -50.029  12.893  1.00  0.00    -0.038 SA
ENDBRANCH   1   7
BRANCH   4  15
HETATM   15  C   UNL     1     -41.410 -45.794  11.125  1.00  0.00     0.172 C 
HETATM   16  C   UNL     1     -40.148 -44.937  11.270  1.00  0.00     0.034 C 
HETATM   17  C   UNL     1     -40.408 -43.450  11.097  1.00  0.00     0.004 C 
HETATM   18  C   UNL     1     -40.851 -42.737  12.368  1.00  0.00     0.015 C 
HETATM   19  C   UNL     1     -41.811 -43.487  13.281  1.00  0.00     0.095 C 
HETATM   20  N   UNL     1     -42.783 -44.332  12.621  1.00  0.00    -0.261 NA
HETATM   21  C   UNL     1     -42.401 -45.622  12.303  1.00  0.00     0.220 C 
HETATM   22  H   UNL     1     -43.615 -44.416  13.195  1.00  0.00     0.130 HD
HETATM   23  O   UNL     1     -42.938 -46.550  12.907  1.00  0.00    -0.278 OA
ENDBRANCH   4  15
TORSDOF 2
ENDMDL
MODEL 8
REMARK VINA RESULT:      -5.8      3.423      5.208
REMARK  2 active torsions:
REMARK  status: ('A' for Active; 'I' for Inactive)
REMARK    1  A    between atoms: C_7  and  N_8 
REMARK       I    between atoms: N_8  and  C_9 
REMARK       I    between atoms: C_9  and  N_11 
REMARK    2  A    between atoms: N_11  and  C_12 
ROOT
HETATM    1  N   UNL     1     -42.712 -51.914  12.390  1.00  0.00    -0.288 N 
HETATM    2  C   UNL     1     -42.508 -53.016  13.178  1.00  0.00     0.322 C 
HETATM    3  O   UNL     1     -43.452 -53.727  13.500  1.00  0.00    -0.247 OA
HETATM    4  N   UNL     1     -41.224 -53.262  13.556  1.00  0.00    -0.330 N 
HETATM    5  H   UNL     1     -43.644 -51.790  12.026  1.00  0.00     0.172 HD
HETATM    6  H   UNL     1     -40.518 -52.610  13.230  1.00  0.00     0.165 HD
ENDROOT
BRANCH   1   7
HETATM    7  C   UNL     1     -41.722 -51.048  12.020  1.00  0.00     0.169 A 
HETATM    8  N   UNL     1     -40.860 -51.191  11.038  1.00  0.00    -0.279 N 
HETATM    9  N   UNL     1     -40.051 -50.096  10.891  1.00  0.00    -0.296 N 
ATOM     10  HN  UNL     1     -40.800 -52.024  10.452  1.00  0.00     0.189 HD
HETATM   11  C   UNL     1     -40.339 -49.158  11.770  1.00  0.00     0.066 A 
ATOM     12  HN  UNL     1     -39.317 -50.017  10.188  1.00  0.00     0.187 HD
HETATM   13  C   UNL     1     -39.685 -47.830  11.807  1.00  0.00     0.078 C 
HETATM   14  S   UNL     1     -41.587 -49.588  12.881  1.00  0.00    -0.038 SA
ENDBRANCH   1   7
BRANCH   4  15
HETATM   15  C   UNL     1     -40.754 -54.439  14.270  1.00  0.00     0.172 C 
HETATM   16  C   UNL     1     -41.301 -54.341  15.698  1.00  0.00     0.034 C 
HETATM   17  C   UNL     1     -41.146 -55.628  16.491  1.00  0.00     0.004 C 
HETATM   18  C   UNL     1     -39.798 -55.783  17.182  1.00  0.00     0.015 C 
HETATM   19  C   UNL     1     -38.571 -55.313  16.414  1.00  0.00     0.095 C 
HETATM   20  N   UNL     1     -38.607 -55.508  14.980  1.00  0.00    -0.261 NA
HETATM   21  C   UNL     1     -39.209 -54.528  14.214  1.00  0.00     0.220 C 
HETATM   22  H   UNL     1     -37.664 -55.610  14.620  1.00  0.00     0.130 HD
HETATM   23  O   UNL     1     -38.496 -53.854  13.471  1.00  0.00    -0.278 OA
ENDBRANCH   4  15
TORSDOF 2
ENDMDL
MODEL 9
REMARK VINA RESULT:      -5.8      3.901      5.593
REMARK  2 active torsions:
REMARK  status: ('A' for Active; 'I' for Inactive)
REMARK    1  A    between atoms: C_7  and  N_8 
REMARK       I    between atoms: N_8  and  C_9 
REMARK       I    between atoms: C_9  and  N_11 
REMARK    2  A    between atoms: N_11  and  C_12 
ROOT
HETATM    1  N   UNL     1     -42.608 -52.793  11.772  1.00  0.00    -0.288 N 
HETATM    2  C   UNL     1     -43.717 -53.104  12.512  1.00  0.00     0.322 C 
HETATM    3  O   UNL     1     -44.431 -54.044  12.188  1.00  0.00    -0.247 OA
HETATM    4  N   UNL     1     -43.956 -52.325  13.602  1.00  0.00    -0.330 N 
HETATM    5  H   UNL     1     -42.374 -53.430  11.026  1.00  0.00     0.172 HD
HETATM    6  H   UNL     1     -43.298 -51.574  13.781  1.00  0.00     0.165 HD
ENDROOT
BRANCH   1   7
HETATM    7  C   UNL     1     -41.783 -51.737  12.040  1.00  0.00     0.169 A 
HETATM    8  N   UNL     1     -41.968 -50.476  11.718  1.00  0.00    -0.279 N 
HETATM    9  N   UNL     1     -40.982 -49.663  12.210  1.00  0.00    -0.296 N 
ATOM     10  HN  UNL     1     -42.756 -50.142  11.164  1.00  0.00     0.189 HD
HETATM   11  C   UNL     1     -40.086 -50.345  12.896  1.00  0.00     0.066 A 
ATOM     12  HN  UNL     1     -40.945 -48.655  12.064  1.00  0.00     0.187 HD
HETATM   13  C   UNL     1     -38.946 -49.727  13.611  1.00  0.00     0.078 C 
HETATM   14  S   UNL     1     -40.365 -52.047  12.927  1.00  0.00    -0.038 SA
ENDBRANCH   1   7
BRANCH   4  15
HETATM   15  C   UNL     1     -44.986 -52.552  14.605  1.00  0.00     0.172 C 
HETATM   16  C   UNL     1     -45.901 -51.322  14.587  1.00  0.00     0.034 C 
HETATM   17  C   UNL     1     -47.190 -51.522  15.366  1.00  0.00     0.004 C 
HETATM   18  C   UNL     1     -47.077 -51.225  16.856  1.00  0.00     0.015 C 
HETATM   19  C   UNL     1     -45.795 -51.662  17.551  1.00  0.00     0.095 C 
HETATM   20  N   UNL     1     -45.203 -52.893  17.073  1.00  0.00    -0.261 NA
HETATM   21  C   UNL     1     -44.347 -52.816  15.990  1.00  0.00     0.220 C 
HETATM   22  H   UNL     1     -44.677 -53.337  17.819  1.00  0.00     0.130 HD
HETATM   23  O   UNL     1     -43.154 -53.051  16.178  1.00  0.00    -0.278 OA
ENDBRANCH   4  15
TORSDOF 2
ENDMDL
