MODEL 1
REMARK VINA RESULT:      -6.1      0.000      0.000
REMARK  6 active torsions:
REMARK  status: ('A' for Active; 'I' for Inactive)
REMARK    1  A    between atoms: C_2  and  N_3 
REMARK    2  A    between atoms: C_2  and  C_10 
REMARK       I    between atoms: C_10  and  N_12 
REMARK    3  A    between atoms: N_12  and  C_13 
REMARK    4  A    between atoms: C_13  and  C_14 
REMARK    5  A    between atoms: C_14  and  O_15 
REMARK    6  A    between atoms: C_14  and  C_16 
ROOT
HETATM    1  C   UNL     1     -42.498 -51.944  12.967  1.00  0.00     0.251 C 
HETATM    2  O   UNL     1     -41.588 -52.429  13.640  1.00  0.00    -0.271 OA
HETATM    3  N   UNL     1     -42.330 -50.742  12.305  1.00  0.00    -0.356 N 
HETATM    4  H   UNL     1     -43.187 -50.244  12.072  1.00  0.00     0.162 HD
ENDROOT
BRANCH   3   5
HETATM    5  C   UNL     1     -41.095 -50.003  12.537  1.00  0.00     0.159 C 
BRANCH   5   6
HETATM    6  C   UNL     1     -40.612 -49.166  11.341  1.00  0.00     0.169 C 
BRANCH   6   7
HETATM    7  O   UNL     1     -40.525 -49.973  10.163  1.00  0.00    -0.389 OA
HETATM    8  H   UNL     1     -41.430 -50.144   9.855  1.00  0.00     0.210 HD
ENDBRANCH   6   7
BRANCH   6   9
HETATM    9  C   UNL     1     -41.536 -47.985  11.110  1.00  0.00    -0.025 A 
HETATM   10  C   UNL     1     -42.320 -47.932   9.951  1.00  0.00     0.027 A 
HETATM   11  C   UNL     1     -43.106 -46.812   9.720  1.00  0.00     0.088 A 
HETATM   12  N   UNL     1     -43.165 -45.752  10.551  1.00  0.00    -0.375 N 
HETATM   13  C   UNL     1     -42.406 -45.817  11.665  1.00  0.00     0.088 A 
ATOM     14  HN  UNL     1     -43.752 -44.943  10.348  1.00  0.00     0.164 HD
HETATM   15  C   UNL     1     -41.589 -46.892  11.982  1.00  0.00     0.027 A 
ENDBRANCH   6   9
ENDBRANCH   5   6
ENDBRANCH   3   5
BRANCH   1  16
HETATM   16  C   UNL     1     -43.857 -52.659  12.748  1.00  0.00     0.311 C 
HETATM   17  C   UNL     1     -43.579 -54.158  12.561  1.00  0.00     0.053 C 
BRANCH  16  18
HETATM   18  N   UNL     1     -44.852 -52.262  13.774  1.00  0.00     0.110 N 
HETATM   19  C   UNL     1     -45.427 -53.309  14.640  1.00  0.00     0.220 C 
HETATM   20  C   UNL     1     -44.583 -53.551  15.893  1.00  0.00     0.043 C 
HETATM   21  C   UNL     1     -46.803 -52.765  15.063  1.00  0.00     0.037 C 
HETATM   22  C   UNL     1     -46.814 -51.328  14.574  1.00  0.00     0.037 C 
HETATM   23  C   UNL     1     -45.952 -51.386  13.319  1.00  0.00     0.220 C 
HETATM   24  C   UNL     1     -46.803 -51.854  12.132  1.00  0.00     0.043 C 
ENDBRANCH  16  18
ENDBRANCH   1  16
TORSDOF 6
ENDMDL
MODEL 2
REMARK VINA RESULT:      -6.1      2.326      3.007
REMARK  6 active torsions:
REMARK  status: ('A' for Active; 'I' for Inactive)
REMARK    1  A    between atoms: C_2  and  N_3 
REMARK    2  A    between atoms: C_2  and  C_10 
REMARK       I    between atoms: C_10  and  N_12 
REMARK    3  A    between atoms: N_12  and  C_13 
REMARK    4  A    between atoms: C_13  and  C_14 
REMARK    5  A    between atoms: C_14  and  O_15 
REMARK    6  A    between atoms: C_14  and  C_16 
ROOT
HETATM    1  C   UNL     1     -42.272 -50.130  12.590  1.00  0.00     0.251 C 
HETATM    2  O   UNL     1     -41.054 -49.956  12.656  1.00  0.00    -0.271 OA
HETATM    3  N   UNL     1     -43.096 -49.180  12.015  1.00  0.00    -0.356 N 
HETATM    4  H   UNL     1     -44.074 -49.217  12.297  1.00  0.00     0.162 HD
ENDROOT
BRANCH   3   5
HETATM    5  C   UNL     1     -42.498 -47.913  11.613  1.00  0.00     0.159 C 
BRANCH   5   6
HETATM    6  C   UNL     1     -43.492 -46.883  11.048  1.00  0.00     0.169 C 
BRANCH   6   7
HETATM    7  O   UNL     1     -42.862 -45.607  10.894  1.00  0.00    -0.389 OA
HETATM    8  H   UNL     1     -41.991 -45.655  11.322  1.00  0.00     0.210 HD
ENDBRANCH   6   7
BRANCH   6   9
HETATM    9  C   UNL     1     -44.058 -47.360   9.724  1.00  0.00    -0.025 A 
HETATM   10  C   UNL     1     -45.434 -47.589   9.598  1.00  0.00     0.027 A 
HETATM   11  C   UNL     1     -45.925 -48.094   8.403  1.00  0.00     0.088 A 
HETATM   12  N   UNL     1     -45.153 -48.386   7.337  1.00  0.00    -0.375 N 
HETATM   13  C   UNL     1     -43.830 -48.159   7.471  1.00  0.00     0.088 A 
ATOM     14  HN  UNL     1     -45.549 -48.759   6.474  1.00  0.00     0.164 HD
HETATM   15  C   UNL     1     -43.245 -47.658   8.625  1.00  0.00     0.027 A 
ENDBRANCH   6   9
ENDBRANCH   5   6
ENDBRANCH   3   5
BRANCH   1  16
HETATM   16  C   UNL     1     -42.964 -51.433  13.069  1.00  0.00     0.311 C 
HETATM   17  C   UNL     1     -41.944 -52.237  13.889  1.00  0.00     0.053 C 
BRANCH  16  18
HETATM   18  N   UNL     1     -44.283 -51.152  13.688  1.00  0.00     0.110 N 
HETATM   19  C   UNL     1     -44.406 -51.243  15.156  1.00  0.00     0.220 C 
HETATM   20  C   UNL     1     -44.064 -49.923  15.848  1.00  0.00     0.043 C 
HETATM   21  C   UNL     1     -45.888 -51.572  15.411  1.00  0.00     0.037 C 
HETATM   22  C   UNL     1     -46.553 -51.422  14.056  1.00  0.00     0.037 C 
HETATM   23  C   UNL     1     -45.450 -51.828  13.086  1.00  0.00     0.220 C 
HETATM   24  C   UNL     1     -45.412 -53.356  12.960  1.00  0.00     0.043 C 
ENDBRANCH  16  18
ENDBRANCH   1  16
TORSDOF 6
ENDMDL
MODEL 3
REMARK VINA RESULT:      -5.9      2.147      7.278
REMARK  6 active torsions:
REMARK  status: ('A' for Active; 'I' for Inactive)
REMARK    1  A    between atoms: C_2  and  N_3 
REMARK    2  A    between atoms: C_2  and  C_10 
REMARK       I    between atoms: C_10  and  N_12 
REMARK    3  A    between atoms: N_12  and  C_13 
REMARK    4  A    between atoms: C_13  and  C_14 
REMARK    5  A    between atoms: C_14  and  O_15 
REMARK    6  A    between atoms: C_14  and  C_16 
ROOT
HETATM    1  C   UNL     1     -40.776 -48.945  12.141  1.00  0.00     0.251 C 
HETATM    2  O   UNL     1     -40.240 -48.894  13.248  1.00  0.00    -0.271 OA
HETATM    3  N   UNL     1     -41.380 -50.107  11.695  1.00  0.00    -0.356 N 
HETATM    4  H   UNL     1     -41.484 -50.190  10.686  1.00  0.00     0.162 HD
ENDROOT
BRANCH   3   5
HETATM    5  C   UNL     1     -41.244 -51.303  12.518  1.00  0.00     0.159 C 
BRANCH   5   6
HETATM    6  C   UNL     1     -41.711 -52.604  11.843  1.00  0.00     0.169 C 
BRANCH   6   7
HETATM    7  O   UNL     1     -40.589 -53.415  11.481  1.00  0.00    -0.389 OA
HETATM    8  H   UNL     1     -39.784 -52.903  11.664  1.00  0.00     0.210 HD
ENDBRANCH   6   7
BRANCH   6   9
HETATM    9  C   UNL     1     -42.648 -53.370  12.757  1.00  0.00    -0.025 A 
HETATM   10  C   UNL     1     -42.132 -54.062  13.860  1.00  0.00     0.027 A 
HETATM   11  C   UNL     1     -42.993 -54.817  14.644  1.00  0.00     0.088 A 
HETATM   12  N   UNL     1     -44.315 -54.932  14.410  1.00  0.00    -0.375 N 
HETATM   13  C   UNL     1     -44.800 -54.259  13.346  1.00  0.00     0.088 A 
ATOM     14  HN  UNL     1     -44.918 -55.499  15.007  1.00  0.00     0.164 HD
HETATM   15  C   UNL     1     -44.020 -53.481  12.503  1.00  0.00     0.027 A 
ENDBRANCH   6   9
ENDBRANCH   5   6
ENDBRANCH   3   5
BRANCH   1  16
HETATM   16  C   UNL     1     -40.883 -47.717  11.198  1.00  0.00     0.311 C 
HETATM   17  C   UNL     1     -42.029 -47.978  10.209  1.00  0.00     0.053 C 
BRANCH  16  18
HETATM   18  N   UNL     1     -40.903 -46.445  11.962  1.00  0.00     0.110 N 
HETATM   19  C   UNL     1     -42.182 -45.721  12.089  1.00  0.00     0.220 C 
HETATM   20  C   UNL     1     -42.994 -46.186  13.298  1.00  0.00     0.043 C 
HETATM   21  C   UNL     1     -41.786 -44.247  12.290  1.00  0.00     0.037 C 
HETATM   22  C   UNL     1     -40.282 -44.278  12.487  1.00  0.00     0.037 C 
HETATM   23  C   UNL     1     -39.849 -45.465  11.634  1.00  0.00     0.220 C 
HETATM   24  C   UNL     1     -39.704 -45.022  10.173  1.00  0.00     0.043 C 
ENDBRANCH  16  18
ENDBRANCH   1  16
TORSDOF 6
ENDMDL
MODEL 4
REMARK VINA RESULT:      -5.8      2.515      4.308
REMARK  6 active torsions:
REMARK  status: ('A' for Active; 'I' for Inactive)
REMARK    1  A    between atoms: C_2  and  N_3 
REMARK    2  A    between atoms: C_2  and  C_10 
REMARK       I    between atoms: C_10  and  N_12 
REMARK    3  A    between atoms: N_12  and  C_13 
REMARK    4  A    between atoms: C_13  and  C_14 
REMARK    5  A    between atoms: C_14  and  O_15 
REMARK    6  A    between atoms: C_14  and  C_16 
ROOT
HETATM    1  C   UNL     1     -41.163 -49.689  12.033  1.00  0.00     0.251 C 
HETATM    2  O   UNL     1     -40.424 -50.186  11.183  1.00  0.00    -0.271 OA
HETATM    3  N   UNL     1     -41.814 -48.492  11.798  1.00  0.00    -0.356 N 
HETATM    4  H   UNL     1     -42.111 -47.980  12.627  1.00  0.00     0.162 HD
ENDROOT
BRANCH   3   5
HETATM    5  C   UNL     1     -41.493 -47.772  10.571  1.00  0.00     0.159 C 
BRANCH   5   6
HETATM    6  C   UNL     1     -42.533 -46.719  10.152  1.00  0.00     0.169 C 
BRANCH   6   7
HETATM    7  O   UNL     1     -41.918 -45.682   9.382  1.00  0.00    -0.389 OA
HETATM    8  H   UNL     1     -41.573 -45.019  10.002  1.00  0.00     0.210 HD
ENDBRANCH   6   7
BRANCH   6   9
HETATM    9  C   UNL     1     -43.659 -47.367   9.369  1.00  0.00    -0.025 A 
HETATM   10  C   UNL     1     -43.426 -47.825   8.066  1.00  0.00     0.027 A 
HETATM   11  C   UNL     1     -44.485 -48.349   7.338  1.00  0.00     0.088 A 
HETATM   12  N   UNL     1     -45.744 -48.447   7.808  1.00  0.00    -0.375 N 
HETATM   13  C   UNL     1     -45.954 -48.004   9.065  1.00  0.00     0.088 A 
ATOM     14  HN  UNL     1     -46.499 -48.836   7.243  1.00  0.00     0.164 HD
HETATM   15  C   UNL     1     -44.963 -47.464   9.870  1.00  0.00     0.027 A 
ENDBRANCH   6   9
ENDBRANCH   5   6
ENDBRANCH   3   5
BRANCH   1  16
HETATM   16  C   UNL     1     -41.480 -50.383  13.384  1.00  0.00     0.311 C 
HETATM   17  C   UNL     1     -42.821 -49.834  13.895  1.00  0.00     0.053 C 
BRANCH  16  18
HETATM   18  N   UNL     1     -41.325 -51.855  13.289  1.00  0.00     0.110 N 
HETATM   19  C   UNL     1     -42.485 -52.707  13.613  1.00  0.00     0.220 C 
HETATM   20  C   UNL     1     -43.376 -52.960  12.397  1.00  0.00     0.043 C 
HETATM   21  C   UNL     1     -41.879 -54.045  14.075  1.00  0.00     0.037 C 
HETATM   22  C   UNL     1     -40.399 -53.924  13.762  1.00  0.00     0.037 C 
HETATM   23  C   UNL     1     -40.132 -52.434  13.940  1.00  0.00     0.220 C 
HETATM   24  C   UNL     1     -39.900 -52.127  15.425  1.00  0.00     0.043 C 
ENDBRANCH  16  18
ENDBRANCH   1  16
TORSDOF 6
ENDMDL
MODEL 5
REMARK VINA RESULT:      -5.7      2.318      7.028
REMARK  6 active torsions:
REMARK  status: ('A' for Active; 'I' for Inactive)
REMARK    1  A    between atoms: C_2  and  N_3 
REMARK    2  A    between atoms: C_2  and  C_10 
REMARK       I    between atoms: C_10  and  N_12 
REMARK    3  A    between atoms: N_12  and  C_13 
REMARK    4  A    between atoms: C_13  and  C_14 
REMARK    5  A    between atoms: C_14  and  O_15 
REMARK    6  A    between atoms: C_14  and  C_16 
ROOT
HETATM    1  C   UNL     1     -39.893 -51.549  13.215  1.00  0.00     0.251 C 
HETATM    2  O   UNL     1     -39.692 -52.546  12.520  1.00  0.00    -0.271 OA
HETATM    3  N   UNL     1     -41.000 -51.469  14.040  1.00  0.00    -0.356 N 
HETATM    4  H   UNL     1     -41.286 -50.527  14.303  1.00  0.00     0.162 HD
ENDROOT
BRANCH   3   5
HETATM    5  C   UNL     1     -41.988 -52.538  13.960  1.00  0.00     0.159 C 
BRANCH   5   6
HETATM    6  C   UNL     1     -43.126 -52.288  12.956  1.00  0.00     0.169 C 
BRANCH   6   7
HETATM    7  O   UNL     1     -42.728 -52.674  11.637  1.00  0.00    -0.389 OA
HETATM    8  H   UNL     1     -43.241 -52.142  11.006  1.00  0.00     0.210 HD
ENDBRANCH   6   7
BRANCH   6   9
HETATM    9  C   UNL     1     -44.378 -53.036  13.374  1.00  0.00    -0.025 A 
HETATM   10  C   UNL     1     -45.501 -52.322  13.811  1.00  0.00     0.027 A 
HETATM   11  C   UNL     1     -46.612 -53.023  14.259  1.00  0.00     0.088 A 
HETATM   12  N   UNL     1     -46.683 -54.368  14.303  1.00  0.00    -0.375 N 
HETATM   13  C   UNL     1     -45.595 -55.043  13.877  1.00  0.00     0.088 A 
ATOM     14  HN  UNL     1     -47.516 -54.850  14.641  1.00  0.00     0.164 HD
HETATM   15  C   UNL     1     -44.439 -54.434  13.414  1.00  0.00     0.027 A 
ENDBRANCH   6   9
ENDBRANCH   5   6
ENDBRANCH   3   5
BRANCH   1  16
HETATM   16  C   UNL     1     -38.906 -50.354  13.280  1.00  0.00     0.311 C 
HETATM   17  C   UNL     1     -37.776 -50.617  12.274  1.00  0.00     0.053 C 
BRANCH  16  18
HETATM   18  N   UNL     1     -39.620 -49.055  13.197  1.00  0.00     0.110 N 
HETATM   19  C   UNL     1     -39.724 -48.393  11.883  1.00  0.00     0.220 C 
HETATM   20  C   UNL     1     -40.955 -48.850  11.100  1.00  0.00     0.043 C 
HETATM   21  C   UNL     1     -39.864 -46.893  12.203  1.00  0.00     0.037 C 
HETATM   22  C   UNL     1     -40.055 -46.839  13.707  1.00  0.00     0.037 C 
HETATM   23  C   UNL     1     -39.247 -48.035  14.199  1.00  0.00     0.220 C 
HETATM   24  C   UNL     1     -37.769 -47.645  14.316  1.00  0.00     0.043 C 
ENDBRANCH  16  18
ENDBRANCH   1  16
TORSDOF 6
ENDMDL
MODEL 6
REMARK VINA RESULT:      -5.7      1.830      2.634
REMARK  6 active torsions:
REMARK  status: ('A' for Active; 'I' for Inactive)
REMARK    1  A    between atoms: C_2  and  N_3 
REMARK    2  A    between atoms: C_2  and  C_10 
REMARK       I    between atoms: C_10  and  N_12 
REMARK    3  A    between atoms: N_12  and  C_13 
REMARK    4  A    between atoms: C_13  and  C_14 
REMARK    5  A    between atoms: C_14  and  O_15 
REMARK    6  A    between atoms: C_14  and  C_16 
ROOT
HETATM    1  C   UNL     1     -40.983 -52.487  12.825  1.00  0.00     0.251 C 
HETATM    2  O   UNL     1     -40.608 -53.101  11.826  1.00  0.00    -0.271 OA
HETATM    3  N   UNL     1     -40.374 -51.305  13.204  1.00  0.00    -0.356 N 
HETATM    4  H   UNL     1     -40.484 -51.046  14.183  1.00  0.00     0.162 HD
ENDROOT
BRANCH   3   5
HETATM    5  C   UNL     1     -39.191 -50.882  12.465  1.00  0.00     0.159 C 
BRANCH   5   6
HETATM    6  C   UNL     1     -39.442 -49.774  11.428  1.00  0.00     0.169 C 
BRANCH   6   7
HETATM    7  O   UNL     1     -40.386 -50.209  10.445  1.00  0.00    -0.389 OA
HETATM    8  H   UNL     1     -40.482 -49.495   9.792  1.00  0.00     0.210 HD
ENDBRANCH   6   7
BRANCH   6   9
HETATM    9  C   UNL     1     -39.929 -48.509  12.109  1.00  0.00    -0.025 A 
HETATM   10  C   UNL     1     -41.102 -47.886  11.664  1.00  0.00     0.027 A 
HETATM   11  C   UNL     1     -41.494 -46.691  12.249  1.00  0.00     0.088 A 
HETATM   12  N   UNL     1     -40.808 -46.077  13.235  1.00  0.00    -0.375 N 
HETATM   13  C   UNL     1     -39.682 -46.689  13.656  1.00  0.00     0.088 A 
ATOM     14  HN  UNL     1     -41.125 -45.197  13.641  1.00  0.00     0.164 HD
HETATM   15  C   UNL     1     -39.208 -47.883  13.133  1.00  0.00     0.027 A 
ENDBRANCH   6   9
ENDBRANCH   5   6
ENDBRANCH   3   5
BRANCH   1  16
HETATM   16  C   UNL     1     -42.193 -52.936  13.686  1.00  0.00     0.311 C 
HETATM   17  C   UNL     1     -41.869 -52.629  15.155  1.00  0.00     0.053 C 
BRANCH  16  18
HETATM   18  N   UNL     1     -43.472 -52.423  13.136  1.00  0.00     0.110 N 
HETATM   19  C   UNL     1     -44.165 -51.340  13.860  1.00  0.00     0.220 C 
HETATM   20  C   UNL     1     -43.692 -49.954  13.420  1.00  0.00     0.043 C 
HETATM   21  C   UNL     1     -45.651 -51.501  13.491  1.00  0.00     0.037 C 
HETATM   22  C   UNL     1     -45.661 -52.546  12.391  1.00  0.00     0.037 C 
HETATM   23  C   UNL     1     -44.477 -53.435  12.751  1.00  0.00     0.220 C 
HETATM   24  C   UNL     1     -44.907 -54.462  13.806  1.00  0.00     0.043 C 
ENDBRANCH  16  18
ENDBRANCH   1  16
TORSDOF 6
ENDMDL
MODEL 7
REMARK VINA RESULT:      -5.7      3.961      4.806
REMARK  6 active torsions:
REMARK  status: ('A' for Active; 'I' for Inactive)
REMARK    1  A    between atoms: C_2  and  N_3 
REMARK    2  A    between atoms: C_2  and  C_10 
REMARK       I    between atoms: C_10  and  N_12 
REMARK    3  A    between atoms: N_12  and  C_13 
REMARK    4  A    between atoms: C_13  and  C_14 
REMARK    5  A    between atoms: C_14  and  O_15 
REMARK    6  A    between atoms: C_14  and  C_16 
ROOT
HETATM    1  C   UNL     1     -43.253 -54.782  14.727  1.00  0.00     0.251 C 
HETATM    2  O   UNL     1     -43.235 -55.867  15.310  1.00  0.00    -0.271 OA
HETATM    3  N   UNL     1     -42.085 -54.076  14.501  1.00  0.00    -0.356 N 
HETATM    4  H   UNL     1     -42.199 -53.076  14.344  1.00  0.00     0.162 HD
ENDROOT
BRANCH   3   5
HETATM    5  C   UNL     1     -40.855 -54.589  15.091  1.00  0.00     0.159 C 
BRANCH   5   6
HETATM    6  C   UNL     1     -39.573 -54.228  14.321  1.00  0.00     0.169 C 
BRANCH   6   7
HETATM    7  O   UNL     1     -39.755 -54.430  12.916  1.00  0.00    -0.389 OA
HETATM    8  H   UNL     1     -39.120 -53.861  12.451  1.00  0.00     0.210 HD
ENDBRANCH   6   7
BRANCH   6   9
HETATM    9  C   UNL     1     -39.170 -52.793  14.604  1.00  0.00    -0.025 A 
HETATM   10  C   UNL     1     -38.862 -52.403  15.914  1.00  0.00     0.027 A 
HETATM   11  C   UNL     1     -38.566 -51.071  16.167  1.00  0.00     0.088 A 
HETATM   12  N   UNL     1     -38.554 -50.111  15.220  1.00  0.00    -0.375 N 
HETATM   13  C   UNL     1     -38.850 -50.501  13.963  1.00  0.00     0.088 A 
ATOM     14  HN  UNL     1     -38.334 -49.141  15.443  1.00  0.00     0.164 HD
HETATM   15  C   UNL     1     -39.161 -51.806  13.611  1.00  0.00     0.027 A 
ENDBRANCH   6   9
ENDBRANCH   5   6
ENDBRANCH   3   5
BRANCH   1  16
HETATM   16  C   UNL     1     -44.549 -54.161  14.143  1.00  0.00     0.311 C 
HETATM   17  C   UNL     1     -45.495 -55.309  13.762  1.00  0.00     0.053 C 
BRANCH  16  18
HETATM   18  N   UNL     1     -45.080 -53.087  15.020  1.00  0.00     0.110 N 
HETATM   19  C   UNL     1     -46.223 -53.398  15.899  1.00  0.00     0.220 C 
HETATM   20  C   UNL     1     -45.778 -53.957  17.251  1.00  0.00     0.043 C 
HETATM   21  C   UNL     1     -46.929 -52.049  16.125  1.00  0.00     0.037 C 
HETATM   22  C   UNL     1     -45.990 -51.019  15.525  1.00  0.00     0.037 C 
HETATM   23  C   UNL     1     -45.333 -51.780  14.380  1.00  0.00     0.220 C 
HETATM   24  C   UNL     1     -46.246 -51.745  13.148  1.00  0.00     0.043 C 
ENDBRANCH  16  18
ENDBRANCH   1  16
TORSDOF 6
ENDMDL
MODEL 8
REMARK VINA RESULT:      -5.6      1.554      1.976
REMARK  6 active torsions:
REMARK  status: ('A' for Active; 'I' for Inactive)
REMARK    1  A    between atoms: C_2  and  N_3 
REMARK    2  A    between atoms: C_2  and  C_10 
REMARK       I    between atoms: C_10  and  N_12 
REMARK    3  A    between atoms: N_12  and  C_13 
REMARK    4  A    between atoms: C_13  and  C_14 
REMARK    5  A    between atoms: C_14  and  O_15 
REMARK    6  A    between atoms: C_14  and  C_16 
ROOT
HETATM    1  C   UNL     1     -42.511 -51.430  12.991  1.00  0.00     0.251 C 
HETATM    2  O   UNL     1     -42.156 -50.882  14.035  1.00  0.00    -0.271 OA
HETATM    3  N   UNL     1     -41.837 -51.204  11.804  1.00  0.00    -0.356 N 
HETATM    4  H   UNL     1     -42.366 -51.393  10.955  1.00  0.00     0.162 HD
ENDROOT
BRANCH   3   5
HETATM    5  C   UNL     1     -40.784 -50.196  11.801  1.00  0.00     0.159 C 
BRANCH   5   6
HETATM    6  C   UNL     1     -41.079 -48.961  10.934  1.00  0.00     0.169 C 
BRANCH   6   7
HETATM    7  O   UNL     1     -42.489 -48.792  10.759  1.00  0.00    -0.389 OA
HETATM    8  H   UNL     1     -42.915 -49.643  10.958  1.00  0.00     0.210 HD
ENDBRANCH   6   7
BRANCH   6   9
HETATM    9  C   UNL     1     -40.468 -47.718  11.553  1.00  0.00    -0.025 A 
HETATM   10  C   UNL     1     -39.949 -47.773  12.853  1.00  0.00     0.027 A 
HETATM   11  C   UNL     1     -39.459 -46.611  13.432  1.00  0.00     0.088 A 
HETATM   12  N   UNL     1     -39.450 -45.411  12.816  1.00  0.00    -0.375 N 
HETATM   13  C   UNL     1     -39.951 -45.374  11.563  1.00  0.00     0.088 A 
ATOM     14  HN  UNL     1     -39.084 -44.576  13.273  1.00  0.00     0.164 HD
HETATM   15  C   UNL     1     -40.464 -46.479  10.902  1.00  0.00     0.027 A 
ENDBRANCH   6   9
ENDBRANCH   5   6
ENDBRANCH   3   5
BRANCH   1  16
HETATM   16  C   UNL     1     -43.673 -52.457  12.931  1.00  0.00     0.311 C 
HETATM   17  C   UNL     1     -43.064 -53.865  12.989  1.00  0.00     0.053 C 
BRANCH  16  18
HETATM   18  N   UNL     1     -44.744 -52.123  13.902  1.00  0.00     0.110 N 
HETATM   19  C   UNL     1     -45.238 -53.187  14.797  1.00  0.00     0.220 C 
HETATM   20  C   UNL     1     -44.424 -53.283  16.087  1.00  0.00     0.043 C 
HETATM   21  C   UNL     1     -46.680 -52.776  15.145  1.00  0.00     0.037 C 
HETATM   22  C   UNL     1     -46.822 -51.371  14.590  1.00  0.00     0.037 C 
HETATM   23  C   UNL     1     -45.911 -51.391  13.368  1.00  0.00     0.220 C 
HETATM   24  C   UNL     1     -46.660 -51.999  12.177  1.00  0.00     0.043 C 
ENDBRANCH  16  18
ENDBRANCH   1  16
TORSDOF 6
ENDMDL
MODEL 9
REMARK VINA RESULT:      -5.6      2.695      7.033
REMARK  6 active torsions:
REMARK  status: ('A' for Active; 'I' for Inactive)
REMARK    1  A    between atoms: C_2  and  N_3 
REMARK    2  A    between atoms: C_2  and  C_10 
REMARK       I    between atoms: C_10  and  N_12 
REMARK    3  A    between atoms: N_12  and  C_13 
REMARK    4  A    between atoms: C_13  and  C_14 
REMARK    5  A    between atoms: C_14  and  O_15 
REMARK    6  A    between atoms: C_14  and  C_16 
ROOT
HETATM    1  C   UNL     1     -42.049 -51.598  12.465  1.00  0.00     0.251 C 
HETATM    2  O   UNL     1     -41.735 -52.510  11.699  1.00  0.00    -0.271 OA
HETATM    3  N   UNL     1     -43.271 -51.603  13.114  1.00  0.00    -0.356 N 
HETATM    4  H   UNL     1     -43.602 -50.695  13.436  1.00  0.00     0.162 HD
ENDROOT
BRANCH   3   5
HETATM    5  C   UNL     1     -44.225 -52.647  12.760  1.00  0.00     0.159 C 
BRANCH   5   6
HETATM    6  C   UNL     1     -45.702 -52.248  12.920  1.00  0.00     0.169 C 
BRANCH   6   7
HETATM    7  O   UNL     1     -46.537 -53.068  12.097  1.00  0.00    -0.389 OA
HETATM    8  H   UNL     1     -47.173 -53.519  12.677  1.00  0.00     0.210 HD
ENDBRANCH   6   7
BRANCH   6   9
HETATM    9  C   UNL     1     -46.126 -52.349  14.374  1.00  0.00    -0.025 A 
HETATM   10  C   UNL     1     -46.940 -51.354  14.931  1.00  0.00     0.027 A 
HETATM   11  C   UNL     1     -47.258 -51.423  16.280  1.00  0.00     0.088 A 
HETATM   12  N   UNL     1     -46.828 -52.399  17.104  1.00  0.00    -0.375 N 
HETATM   13  C   UNL     1     -46.048 -53.352  16.553  1.00  0.00     0.088 A 
ATOM     14  HN  UNL     1     -47.081 -52.417  18.092  1.00  0.00     0.164 HD
HETATM   15  C   UNL     1     -45.673 -53.369  15.218  1.00  0.00     0.027 A 
ENDBRANCH   6   9
ENDBRANCH   5   6
ENDBRANCH   3   5
BRANCH   1  16
HETATM   16  C   UNL     1     -41.095 -50.427  12.817  1.00  0.00     0.311 C 
HETATM   17  C   UNL     1     -41.471 -49.914  14.215  1.00  0.00     0.053 C 
BRANCH  16  18
HETATM   18  N   UNL     1     -39.677 -50.787  12.570  1.00  0.00     0.110 N 
HETATM   19  C   UNL     1     -38.819 -51.103  13.727  1.00  0.00     0.220 C 
HETATM   20  C   UNL     1     -38.882 -52.583  14.108  1.00  0.00     0.043 C 
HETATM   21  C   UNL     1     -37.389 -50.767  13.266  1.00  0.00     0.037 C 
HETATM   22  C   UNL     1     -37.521 -50.489  11.781  1.00  0.00     0.037 C 
HETATM   23  C   UNL     1     -38.921 -49.897  11.665  1.00  0.00     0.220 C 
HETATM   24  C   UNL     1     -38.875 -48.400  11.998  1.00  0.00     0.043 C 
ENDBRANCH  16  18
ENDBRANCH   1  16
TORSDOF 6
ENDMDL
