MODEL 1
REMARK VINA RESULT:      -5.4      0.000      0.000
REMARK  6 active torsions:
REMARK  status: ('A' for Active; 'I' for Inactive)
REMARK    1  A    between atoms: C_2  and  N_3 
REMARK    2  A    between atoms: N_6  and  C_9 
REMARK    3  A    between atoms: C_9  and  C_11 
REMARK    4  A    between atoms: C_11  and  N_12 
REMARK       I    between atoms: N_12  and  C_13 
REMARK    5  A    between atoms: C_13  and  C_15 
REMARK    6  A    between atoms: C_15  and  N_16 
ROOT
HETATM    1  C   UNL     1     -42.630 -49.284  12.134  1.00  0.00     0.158 C 
ENDROOT
BRANCH   1   2
HETATM    2  C   UNL     1     -41.455 -50.312  12.284  1.00  0.00     0.236 C 
HETATM    3  C   UNL     1     -40.376 -49.850  11.277  1.00  0.00     0.044 C 
BRANCH   2   4
HETATM    4  N   UNL     1     -41.832 -51.742  12.039  1.00  0.00     0.097 N 
HETATM    5  C   UNL     1     -43.025 -52.195  12.792  1.00  0.00     0.303 C 
HETATM    6  C   UNL     1     -42.812 -52.302  14.321  1.00  0.00     0.302 C 
HETATM    7  N   UNL     1     -41.719 -53.215  14.712  1.00  0.00     0.091 N 
HETATM    8  C   UNL     1     -40.509 -52.856  13.929  1.00  0.00     0.302 C 
HETATM    9  C   UNL     1     -40.750 -52.698  12.402  1.00  0.00     0.303 C 
BRANCH   7  10
HETATM   10  C   UNL     1     -42.045 -54.639  14.522  1.00  0.00     0.268 C 
HETATM   11  C   UNL     1     -43.423 -55.037  15.045  1.00  0.00     0.037 C 
ENDBRANCH   7  10
ENDBRANCH   2   4
ENDBRANCH   1   2
BRANCH   1  12
HETATM   12  N   UNL     1     -42.707 -48.592  10.860  1.00  0.00    -0.358 N 
HETATM   13  C   UNL     1     -42.924 -47.238  10.763  1.00  0.00     0.237 C 
HETATM   14  O   UNL     1     -42.948 -46.489  11.736  1.00  0.00    -0.272 OA
HETATM   15  H   UNL     1     -42.595 -49.155  10.026  1.00  0.00     0.162 HD
BRANCH  13  16
HETATM   16  C   UNL     1     -43.174 -46.734   9.362  1.00  0.00     0.249 C 
BRANCH  16  17
HETATM   17  N   UNL     1     -44.208 -47.482   8.702  1.00  0.00    -0.264 N 
HETATM   18  C   UNL     1     -44.173 -48.129   7.508  1.00  0.00     0.213 A 
HETATM   19  N   UNL     1     -45.373 -48.599   7.259  1.00  0.00    -0.281 N 
HETATM   20  N   UNL     1     -46.157 -48.216   8.321  1.00  0.00    -0.008 NA
ATOM     21  HN  UNL     1     -45.664 -49.138   6.443  1.00  0.00     0.184 HD
HETATM   22  N   UNL     1     -45.451 -47.525   9.208  1.00  0.00    -0.005 NA
ENDBRANCH  16  17
ENDBRANCH  13  16
ENDBRANCH   1  12
TORSDOF 6
ENDMDL
MODEL 2
REMARK VINA RESULT:      -5.4      4.753      6.553
REMARK  6 active torsions:
REMARK  status: ('A' for Active; 'I' for Inactive)
REMARK    1  A    between atoms: C_2  and  N_3 
REMARK    2  A    between atoms: N_6  and  C_9 
REMARK    3  A    between atoms: C_9  and  C_11 
REMARK    4  A    between atoms: C_11  and  N_12 
REMARK       I    between atoms: N_12  and  C_13 
REMARK    5  A    between atoms: C_13  and  C_15 
REMARK    6  A    between atoms: C_15  and  N_16 
ROOT
HETATM    1  C   UNL     1     -40.956 -54.180  13.650  1.00  0.00     0.158 C 
ENDROOT
BRANCH   1   2
HETATM    2  C   UNL     1     -42.156 -54.136  14.659  1.00  0.00     0.236 C 
HETATM    3  C   UNL     1     -41.784 -55.133  15.781  1.00  0.00     0.044 C 
BRANCH   2   4
HETATM    4  N   UNL     1     -43.491 -54.478  14.068  1.00  0.00     0.097 N 
HETATM    5  C   UNL     1     -43.821 -53.726  12.834  1.00  0.00     0.303 C 
HETATM    6  C   UNL     1     -44.080 -52.216  13.058  1.00  0.00     0.302 C 
HETATM    7  N   UNL     1     -45.172 -51.929  14.009  1.00  0.00     0.091 N 
HETATM    8  C   UNL     1     -44.935 -52.719  15.244  1.00  0.00     0.302 C 
HETATM    9  C   UNL     1     -44.622 -54.222  15.001  1.00  0.00     0.303 C 
BRANCH   7  10
HETATM   10  C   UNL     1     -46.512 -52.217  13.470  1.00  0.00     0.268 C 
HETATM   11  C   UNL     1     -46.755 -51.656  12.071  1.00  0.00     0.037 C 
ENDBRANCH   7  10
ENDBRANCH   2   4
ENDBRANCH   1   2
BRANCH   1  12
HETATM   12  N   UNL     1     -40.295 -52.913  13.398  1.00  0.00    -0.358 N 
HETATM   13  C   UNL     1     -39.423 -52.339  14.293  1.00  0.00     0.237 C 
HETATM   14  O   UNL     1     -39.039 -52.904  15.314  1.00  0.00    -0.272 OA
HETATM   15  H   UNL     1     -40.506 -52.454  12.520  1.00  0.00     0.162 HD
BRANCH  13  16
HETATM   16  C   UNL     1     -38.994 -50.933  13.949  1.00  0.00     0.249 C 
BRANCH  16  17
HETATM   17  N   UNL     1     -38.144 -50.902  12.792  1.00  0.00    -0.264 N 
HETATM   18  C   UNL     1     -38.185 -50.074  11.716  1.00  0.00     0.213 A 
HETATM   19  N   UNL     1     -37.274 -50.469  10.857  1.00  0.00    -0.281 N 
HETATM   20  N   UNL     1     -36.676 -51.570  11.420  1.00  0.00    -0.008 NA
ATOM     21  HN  UNL     1     -37.055 -50.045   9.955  1.00  0.00     0.184 HD
HETATM   22  N   UNL     1     -37.208 -51.847  12.605  1.00  0.00    -0.005 NA
ENDBRANCH  16  17
ENDBRANCH  13  16
ENDBRANCH   1  12
TORSDOF 6
ENDMDL
MODEL 3
REMARK VINA RESULT:      -5.4      1.320      1.944
REMARK  6 active torsions:
REMARK  status: ('A' for Active; 'I' for Inactive)
REMARK    1  A    between atoms: C_2  and  N_3 
REMARK    2  A    between atoms: N_6  and  C_9 
REMARK    3  A    between atoms: C_9  and  C_11 
REMARK    4  A    between atoms: C_11  and  N_12 
REMARK       I    between atoms: N_12  and  C_13 
REMARK    5  A    between atoms: C_13  and  C_15 
REMARK    6  A    between atoms: C_15  and  N_16 
ROOT
HETATM    1  C   UNL     1     -41.438 -49.483  11.400  1.00  0.00     0.158 C 
ENDROOT
BRANCH   1   2
HETATM    2  C   UNL     1     -42.112 -50.364  12.508  1.00  0.00     0.236 C 
HETATM    3  C   UNL     1     -43.194 -49.463  13.147  1.00  0.00     0.044 C 
BRANCH   2   4
HETATM    4  N   UNL     1     -41.174 -50.890  13.553  1.00  0.00     0.097 N 
HETATM    5  C   UNL     1     -40.201 -51.889  13.052  1.00  0.00     0.303 C 
HETATM    6  C   UNL     1     -40.831 -53.244  12.646  1.00  0.00     0.302 C 
HETATM    7  N   UNL     1     -41.570 -53.912  13.736  1.00  0.00     0.091 N 
HETATM    8  C   UNL     1     -42.513 -52.931  14.330  1.00  0.00     0.302 C 
HETATM    9  C   UNL     1     -41.879 -51.557  14.683  1.00  0.00     0.303 C 
BRANCH   7  10
HETATM   10  C   UNL     1     -40.696 -54.478  14.779  1.00  0.00     0.268 C 
HETATM   11  C   UNL     1     -41.448 -55.063  15.971  1.00  0.00     0.037 C 
ENDBRANCH   7  10
ENDBRANCH   2   4
ENDBRANCH   1   2
BRANCH   1  12
HETATM   12  N   UNL     1     -42.323 -48.585  10.681  1.00  0.00    -0.358 N 
HETATM   13  C   UNL     1     -41.991 -47.279  10.404  1.00  0.00     0.237 C 
HETATM   14  O   UNL     1     -40.880 -46.806  10.631  1.00  0.00    -0.272 OA
HETATM   15  H   UNL     1     -43.215 -48.961  10.386  1.00  0.00     0.162 HD
BRANCH  13  16
HETATM   16  C   UNL     1     -43.111 -46.446   9.831  1.00  0.00     0.249 C 
BRANCH  16  17
HETATM   17  N   UNL     1     -43.925 -47.201   8.919  1.00  0.00    -0.264 N 
HETATM   18  C   UNL     1     -45.237 -47.537   9.012  1.00  0.00     0.213 A 
HETATM   19  N   UNL     1     -45.539 -48.311   7.996  1.00  0.00    -0.281 N 
HETATM   20  N   UNL     1     -44.377 -48.459   7.277  1.00  0.00    -0.008 NA
ATOM     21  HN  UNL     1     -46.449 -48.720   7.784  1.00  0.00     0.184 HD
HETATM   22  N   UNL     1     -43.380 -47.787   7.840  1.00  0.00    -0.005 NA
ENDBRANCH  16  17
ENDBRANCH  13  16
ENDBRANCH   1  12
TORSDOF 6
ENDMDL
MODEL 4
REMARK VINA RESULT:      -5.2      3.001      7.065
REMARK  6 active torsions:
REMARK  status: ('A' for Active; 'I' for Inactive)
REMARK    1  A    between atoms: C_2  and  N_3 
REMARK    2  A    between atoms: N_6  and  C_9 
REMARK    3  A    between atoms: C_9  and  C_11 
REMARK    4  A    between atoms: C_11  and  N_12 
REMARK       I    between atoms: N_12  and  C_13 
REMARK    5  A    between atoms: C_13  and  C_15 
REMARK    6  A    between atoms: C_15  and  N_16 
ROOT
HETATM    1  C   UNL     1     -41.585 -50.759  12.454  1.00  0.00     0.158 C 
ENDROOT
BRANCH   1   2
HETATM    2  C   UNL     1     -42.401 -49.445  12.708  1.00  0.00     0.236 C 
HETATM    3  C   UNL     1     -43.781 -49.913  13.226  1.00  0.00     0.044 C 
BRANCH   2   4
HETATM    4  N   UNL     1     -42.558 -48.558  11.509  1.00  0.00     0.097 N 
HETATM    5  C   UNL     1     -41.307 -48.337  10.747  1.00  0.00     0.303 C 
HETATM    6  C   UNL     1     -40.249 -47.486  11.491  1.00  0.00     0.302 C 
HETATM    7  N   UNL     1     -40.725 -46.144  11.881  1.00  0.00     0.091 N 
HETATM    8  C   UNL     1     -42.023 -46.296  12.587  1.00  0.00     0.302 C 
HETATM    9  C   UNL     1     -43.056 -47.198  11.855  1.00  0.00     0.303 C 
BRANCH   7  10
HETATM   10  C   UNL     1     -40.868 -45.217  10.745  1.00  0.00     0.268 C 
HETATM   11  C   UNL     1     -39.551 -44.863  10.060  1.00  0.00     0.037 C 
ENDBRANCH   7  10
ENDBRANCH   2   4
ENDBRANCH   1   2
BRANCH   1  12
HETATM   12  N   UNL     1     -42.056 -51.942  13.152  1.00  0.00    -0.358 N 
HETATM   13  C   UNL     1     -41.530 -53.193  12.931  1.00  0.00     0.237 C 
HETATM   14  O   UNL     1     -40.545 -53.393  12.224  1.00  0.00    -0.272 OA
HETATM   15  H   UNL     1     -42.805 -51.811  13.820  1.00  0.00     0.162 HD
BRANCH  13  16
HETATM   16  C   UNL     1     -42.279 -54.324  13.594  1.00  0.00     0.249 C 
BRANCH  16  17
HETATM   17  N   UNL     1     -43.702 -54.163  13.474  1.00  0.00    -0.264 N 
HETATM   18  C   UNL     1     -44.686 -54.548  14.328  1.00  0.00     0.213 A 
HETATM   19  N   UNL     1     -45.844 -54.280  13.770  1.00  0.00    -0.281 N 
HETATM   20  N   UNL     1     -45.554 -53.732  12.543  1.00  0.00    -0.008 NA
ATOM     21  HN  UNL     1     -46.769 -54.445  14.167  1.00  0.00     0.184 HD
HETATM   22  N   UNL     1     -44.243 -53.663  12.351  1.00  0.00    -0.005 NA
ENDBRANCH  16  17
ENDBRANCH  13  16
ENDBRANCH   1  12
TORSDOF 6
ENDMDL
MODEL 5
REMARK VINA RESULT:      -5.2      2.539      4.138
REMARK  6 active torsions:
REMARK  status: ('A' for Active; 'I' for Inactive)
REMARK    1  A    between atoms: C_2  and  N_3 
REMARK    2  A    between atoms: N_6  and  C_9 
REMARK    3  A    between atoms: C_9  and  C_11 
REMARK    4  A    between atoms: C_11  and  N_12 
REMARK       I    between atoms: N_12  and  C_13 
REMARK    5  A    between atoms: C_13  and  C_15 
REMARK    6  A    between atoms: C_15  and  N_16 
ROOT
HETATM    1  C   UNL     1     -41.161 -52.900  11.856  1.00  0.00     0.158 C 
ENDROOT
BRANCH   1   2
HETATM    2  C   UNL     1     -41.691 -53.200  13.301  1.00  0.00     0.236 C 
HETATM    3  C   UNL     1     -40.632 -54.127  13.942  1.00  0.00     0.044 C 
BRANCH   2   4
HETATM    4  N   UNL     1     -43.050 -53.830  13.357  1.00  0.00     0.097 N 
HETATM    5  C   UNL     1     -44.097 -53.088  12.616  1.00  0.00     0.303 C 
HETATM    6  C   UNL     1     -44.480 -51.726  13.245  1.00  0.00     0.302 C 
HETATM    7  N   UNL     1     -44.964 -51.823  14.636  1.00  0.00     0.091 N 
HETATM    8  C   UNL     1     -43.987 -52.626  15.415  1.00  0.00     0.302 C 
HETATM    9  C   UNL     1     -43.571 -53.965  14.746  1.00  0.00     0.303 C 
BRANCH   7  10
HETATM   10  C   UNL     1     -46.311 -52.407  14.751  1.00  0.00     0.268 C 
HETATM   11  C   UNL     1     -47.238 -51.654  15.702  1.00  0.00     0.037 C 
ENDBRANCH   7  10
ENDBRANCH   2   4
ENDBRANCH   1   2
BRANCH   1  12
HETATM   12  N   UNL     1     -40.986 -51.498  11.524  1.00  0.00    -0.358 N 
HETATM   13  C   UNL     1     -39.869 -50.783  11.888  1.00  0.00     0.237 C 
HETATM   14  O   UNL     1     -38.882 -51.297  12.410  1.00  0.00    -0.272 OA
HETATM   15  H   UNL     1     -41.734 -51.054  11.006  1.00  0.00     0.162 HD
BRANCH  13  16
HETATM   16  C   UNL     1     -39.955 -49.298  11.634  1.00  0.00     0.249 C 
BRANCH  16  17
HETATM   17  N   UNL     1     -41.305 -48.877  11.384  1.00  0.00    -0.264 N 
HETATM   18  C   UNL     1     -41.826 -48.261  10.291  1.00  0.00     0.213 A 
HETATM   19  N   UNL     1     -43.085 -47.980  10.537  1.00  0.00    -0.281 N 
HETATM   20  N   UNL     1     -43.328 -48.424  11.815  1.00  0.00    -0.008 NA
ATOM     21  HN  UNL     1     -43.747 -47.525   9.908  1.00  0.00     0.184 HD
HETATM   22  N   UNL     1     -42.240 -48.970  12.344  1.00  0.00    -0.005 NA
ENDBRANCH  16  17
ENDBRANCH  13  16
ENDBRANCH   1  12
TORSDOF 6
ENDMDL
MODEL 6
REMARK VINA RESULT:      -5.2      2.287      3.559
REMARK  6 active torsions:
REMARK  status: ('A' for Active; 'I' for Inactive)
REMARK    1  A    between atoms: C_2  and  N_3 
REMARK    2  A    between atoms: N_6  and  C_9 
REMARK    3  A    between atoms: C_9  and  C_11 
REMARK    4  A    between atoms: C_11  and  N_12 
REMARK       I    between atoms: N_12  and  C_13 
REMARK    5  A    between atoms: C_13  and  C_15 
REMARK    6  A    between atoms: C_15  and  N_16 
ROOT
HETATM    1  C   UNL     1     -43.164 -48.181  12.132  1.00  0.00     0.158 C 
ENDROOT
BRANCH   1   2
HETATM    2  C   UNL     1     -42.608 -49.532  12.700  1.00  0.00     0.236 C 
HETATM    3  C   UNL     1     -43.762 -50.129  13.540  1.00  0.00     0.044 C 
BRANCH   2   4
HETATM    4  N   UNL     1     -41.363 -49.405  13.526  1.00  0.00     0.097 N 
HETATM    5  C   UNL     1     -40.430 -48.351  13.063  1.00  0.00     0.303 C 
HETATM    6  C   UNL     1     -39.743 -48.657  11.709  1.00  0.00     0.302 C 
HETATM    7  N   UNL     1     -38.969 -49.914  11.700  1.00  0.00     0.091 N 
HETATM    8  C   UNL     1     -39.833 -50.999  12.229  1.00  0.00     0.302 C 
HETATM    9  C   UNL     1     -40.558 -50.658  13.561  1.00  0.00     0.303 C 
BRANCH   7  10
HETATM   10  C   UNL     1     -37.716 -49.838  12.471  1.00  0.00     0.268 C 
HETATM   11  C   UNL     1     -37.058 -51.192  12.726  1.00  0.00     0.037 C 
ENDBRANCH   7  10
ENDBRANCH   2   4
ENDBRANCH   1   2
BRANCH   1  12
HETATM   12  N   UNL     1     -43.537 -48.191  10.729  1.00  0.00    -0.358 N 
HETATM   13  C   UNL     1     -42.987 -47.329   9.808  1.00  0.00     0.237 C 
HETATM   14  O   UNL     1     -42.055 -46.572  10.069  1.00  0.00    -0.272 OA
HETATM   15  H   UNL     1     -44.235 -48.867  10.446  1.00  0.00     0.162 HD
BRANCH  13  16
HETATM   16  C   UNL     1     -43.642 -47.350   8.449  1.00  0.00     0.249 C 
BRANCH  16  17
HETATM   17  N   UNL     1     -45.075 -47.396   8.547  1.00  0.00    -0.264 N 
HETATM   18  C   UNL     1     -45.931 -46.474   9.059  1.00  0.00     0.213 A 
HETATM   19  N   UNL     1     -47.144 -46.976   9.026  1.00  0.00    -0.281 N 
HETATM   20  N   UNL     1     -47.017 -48.237   8.495  1.00  0.00    -0.008 NA
ATOM     21  HN  UNL     1     -48.005 -46.522   9.333  1.00  0.00     0.184 HD
HETATM   22  N   UNL     1     -45.750 -48.505   8.204  1.00  0.00    -0.005 NA
ENDBRANCH  16  17
ENDBRANCH  13  16
ENDBRANCH   1  12
TORSDOF 6
ENDMDL
MODEL 7
REMARK VINA RESULT:      -5.2      1.852      2.764
REMARK  6 active torsions:
REMARK  status: ('A' for Active; 'I' for Inactive)
REMARK    1  A    between atoms: C_2  and  N_3 
REMARK    2  A    between atoms: N_6  and  C_9 
REMARK    3  A    between atoms: C_9  and  C_11 
REMARK    4  A    between atoms: C_11  and  N_12 
REMARK       I    between atoms: N_12  and  C_13 
REMARK    5  A    between atoms: C_13  and  C_15 
REMARK    6  A    between atoms: C_15  and  N_16 
ROOT
HETATM    1  C   UNL     1     -43.456 -49.624  13.142  1.00  0.00     0.158 C 
ENDROOT
BRANCH   1   2
HETATM    2  C   UNL     1     -43.733 -51.145  13.398  1.00  0.00     0.236 C 
HETATM    3  C   UNL     1     -45.274 -51.279  13.444  1.00  0.00     0.044 C 
BRANCH   2   4
HETATM    4  N   UNL     1     -43.116 -51.699  14.648  1.00  0.00     0.097 N 
HETATM    5  C   UNL     1     -41.643 -51.555  14.714  1.00  0.00     0.303 C 
HETATM    6  C   UNL     1     -40.870 -52.434  13.701  1.00  0.00     0.302 C 
HETATM    7  N   UNL     1     -41.140 -53.879  13.833  1.00  0.00     0.091 N 
HETATM    8  C   UNL     1     -42.611 -54.080  13.848  1.00  0.00     0.302 C 
HETATM    9  C   UNL     1     -43.380 -53.153  14.831  1.00  0.00     0.303 C 
BRANCH   7  10
HETATM   10  C   UNL     1     -40.530 -54.485  15.029  1.00  0.00     0.268 C 
HETATM   11  C   UNL     1     -39.064 -54.875  14.851  1.00  0.00     0.037 C 
ENDBRANCH   7  10
ENDBRANCH   2   4
ENDBRANCH   1   2
BRANCH   1  12
HETATM   12  N   UNL     1     -43.112 -49.263  11.779  1.00  0.00    -0.358 N 
HETATM   13  C   UNL     1     -42.392 -48.133  11.469  1.00  0.00     0.237 C 
HETATM   14  O   UNL     1     -41.879 -47.409  12.318  1.00  0.00    -0.272 OA
HETATM   15  H   UNL     1     -43.430 -49.886  11.047  1.00  0.00     0.162 HD
BRANCH  13  16
HETATM   16  C   UNL     1     -42.306 -47.819   9.995  1.00  0.00     0.249 C 
BRANCH  16  17
HETATM   17  N   UNL     1     -43.253 -46.810   9.610  1.00  0.00    -0.264 N 
HETATM   18  C   UNL     1     -44.553 -46.946   9.241  1.00  0.00     0.213 A 
HETATM   19  N   UNL     1     -45.007 -45.766   8.884  1.00  0.00    -0.281 N 
HETATM   20  N   UNL     1     -43.951 -44.898   9.027  1.00  0.00    -0.008 NA
ATOM     21  HN  UNL     1     -45.949 -45.541   8.565  1.00  0.00     0.184 HD
HETATM   22  N   UNL     1     -42.870 -45.531   9.466  1.00  0.00    -0.005 NA
ENDBRANCH  16  17
ENDBRANCH  13  16
ENDBRANCH   1  12
TORSDOF 6
ENDMDL
MODEL 8
REMARK VINA RESULT:      -5.1      4.671      6.169
REMARK  6 active torsions:
REMARK  status: ('A' for Active; 'I' for Inactive)
REMARK    1  A    between atoms: C_2  and  N_3 
REMARK    2  A    between atoms: N_6  and  C_9 
REMARK    3  A    between atoms: C_9  and  C_11 
REMARK    4  A    between atoms: C_11  and  N_12 
REMARK       I    between atoms: N_12  and  C_13 
REMARK    5  A    between atoms: C_13  and  C_15 
REMARK    6  A    between atoms: C_15  and  N_16 
ROOT
HETATM    1  C   UNL     1     -41.906 -53.284  13.473  1.00  0.00     0.158 C 
ENDROOT
BRANCH   1   2
HETATM    2  C   UNL     1     -42.891 -53.649  14.637  1.00  0.00     0.236 C 
HETATM    3  C   UNL     1     -42.486 -55.073  15.085  1.00  0.00     0.044 C 
BRANCH   2   4
HETATM    4  N   UNL     1     -44.345 -53.602  14.272  1.00  0.00     0.097 N 
HETATM    5  C   UNL     1     -44.792 -52.301  13.722  1.00  0.00     0.303 C 
HETATM    6  C   UNL     1     -44.805 -51.144  14.751  1.00  0.00     0.302 C 
HETATM    7  N   UNL     1     -45.658 -51.398  15.929  1.00  0.00     0.091 N 
HETATM    8  C   UNL     1     -45.305 -52.730  16.481  1.00  0.00     0.302 C 
HETATM    9  C   UNL     1     -45.243 -53.872  15.429  1.00  0.00     0.303 C 
BRANCH   7  10
HETATM   10  C   UNL     1     -47.100 -51.333  15.636  1.00  0.00     0.268 C 
HETATM   11  C   UNL     1     -47.981 -51.188  16.874  1.00  0.00     0.037 C 
ENDBRANCH   7  10
ENDBRANCH   2   4
ENDBRANCH   1   2
BRANCH   1  12
HETATM   12  N   UNL     1     -40.990 -52.190  13.739  1.00  0.00    -0.358 N 
HETATM   13  C   UNL     1     -41.045 -50.994  13.063  1.00  0.00     0.237 C 
HETATM   14  O   UNL     1     -41.943 -50.709  12.274  1.00  0.00    -0.272 OA
HETATM   15  H   UNL     1     -40.290 -52.344  14.454  1.00  0.00     0.162 HD
BRANCH  13  16
HETATM   16  C   UNL     1     -39.892 -50.058  13.331  1.00  0.00     0.249 C 
BRANCH  16  17
HETATM   17  N   UNL     1     -38.705 -50.459  12.627  1.00  0.00    -0.264 N 
HETATM   18  C   UNL     1     -38.181 -49.966  11.475  1.00  0.00     0.213 A 
HETATM   19  N   UNL     1     -37.138 -50.695  11.152  1.00  0.00    -0.281 N 
HETATM   20  N   UNL     1     -37.037 -51.661  12.124  1.00  0.00    -0.008 NA
ATOM     21  HN  UNL     1     -36.528 -50.571  10.344  1.00  0.00     0.184 HD
HETATM   22  N   UNL     1     -37.999 -51.527  13.030  1.00  0.00    -0.005 NA
ENDBRANCH  16  17
ENDBRANCH  13  16
ENDBRANCH   1  12
TORSDOF 6
ENDMDL
MODEL 9
REMARK VINA RESULT:      -5.1      3.821      5.262
REMARK  6 active torsions:
REMARK  status: ('A' for Active; 'I' for Inactive)
REMARK    1  A    between atoms: C_2  and  N_3 
REMARK    2  A    between atoms: N_6  and  C_9 
REMARK    3  A    between atoms: C_9  and  C_11 
REMARK    4  A    between atoms: C_11  and  N_12 
REMARK       I    between atoms: N_12  and  C_13 
REMARK    5  A    between atoms: C_13  and  C_15 
REMARK    6  A    between atoms: C_15  and  N_16 
ROOT
HETATM    1  C   UNL     1     -42.369 -50.523  13.145  1.00  0.00     0.158 C 
ENDROOT
BRANCH   1   2
HETATM    2  C   UNL     1     -41.337 -51.703  13.145  1.00  0.00     0.236 C 
HETATM    3  C   UNL     1     -41.077 -52.020  11.654  1.00  0.00     0.044 C 
BRANCH   2   4
HETATM    4  N   UNL     1     -41.784 -52.932  13.878  1.00  0.00     0.097 N 
HETATM    5  C   UNL     1     -41.620 -52.858  15.349  1.00  0.00     0.303 C 
HETATM    6  C   UNL     1     -40.148 -52.862  15.828  1.00  0.00     0.302 C 
HETATM    7  N   UNL     1     -39.380 -54.047  15.397  1.00  0.00     0.091 N 
HETATM    8  C   UNL     1     -39.569 -54.218  13.934  1.00  0.00     0.302 C 
HETATM    9  C   UNL     1     -41.048 -54.158  13.461  1.00  0.00     0.303 C 
BRANCH   7  10
HETATM   10  C   UNL     1     -39.755 -55.281  16.108  1.00  0.00     0.268 C 
HETATM   11  C   UNL     1     -38.576 -56.029  16.723  1.00  0.00     0.037 C 
ENDBRANCH   7  10
ENDBRANCH   2   4
ENDBRANCH   1   2
BRANCH   1  12
HETATM   12  N   UNL     1     -43.748 -50.888  12.877  1.00  0.00    -0.358 N 
HETATM   13  C   UNL     1     -44.708 -50.935  13.861  1.00  0.00     0.237 C 
HETATM   14  O   UNL     1     -44.509 -50.557  15.013  1.00  0.00    -0.272 OA
HETATM   15  H   UNL     1     -43.983 -51.114  11.919  1.00  0.00     0.162 HD
BRANCH  13  16
HETATM   16  C   UNL     1     -46.028 -51.527  13.432  1.00  0.00     0.249 C 
BRANCH  16  17
HETATM   17  N   UNL     1     -46.046 -52.956  13.583  1.00  0.00    -0.264 N 
HETATM   18  C   UNL     1     -46.700 -53.716  14.499  1.00  0.00     0.213 A 
HETATM   19  N   UNL     1     -46.354 -54.970  14.317  1.00  0.00    -0.281 N 
HETATM   20  N   UNL     1     -45.458 -54.966  13.275  1.00  0.00    -0.008 NA
ATOM     21  HN  UNL     1     -46.683 -55.780  14.843  1.00  0.00     0.184 HD
HETATM   22  N   UNL     1     -45.259 -53.734  12.823  1.00  0.00    -0.005 NA
ENDBRANCH  16  17
ENDBRANCH  13  16
ENDBRANCH   1  12
TORSDOF 6
ENDMDL
