MODEL 1
REMARK VINA RESULT:      -6.5      0.000      0.000
REMARK  4 active torsions:
REMARK  status: ('A' for Active; 'I' for Inactive)
REMARK    1  A    between atoms: C_2  and  C_3 
REMARK       I    between atoms: C_2  and  N_12 
REMARK    2  A    between atoms: C_3  and  N_4 
REMARK    3  A    between atoms: N_12  and  C_13 
REMARK    4  A    between atoms: C_13  and  C_14 
ROOT
HETATM    1  O   UNL     1     -40.483 -50.202  12.229  1.00  0.00    -0.272 OA
HETATM    2  C   UNL     1     -41.228 -49.554  12.961  1.00  0.00     0.235 C 
HETATM    3  N   UNL     1     -42.107 -50.124  13.858  1.00  0.00    -0.359 N 
HETATM    4  H   UNL     1     -42.545 -49.516  14.548  1.00  0.00     0.162 HD
ENDROOT
BRANCH   3   5
HETATM    5  C   UNL     1     -42.251 -51.563  14.015  1.00  0.00     0.132 C 
BRANCH   5   6
HETATM    6  C   UNL     1     -43.712 -52.063  13.946  1.00  0.00    -0.023 C 
HETATM    7  C   UNL     1     -44.162 -52.656  15.306  1.00  0.00     0.015 C 
HETATM    8  C   UNL     1     -45.624 -53.127  15.236  1.00  0.00    -0.013 C 
HETATM    9  C   UNL     1     -45.757 -54.196  14.139  1.00  0.00     0.009 C 
HETATM   10  C   UNL     1     -46.527 -51.931  14.896  1.00  0.00     0.009 C 
HETATM   11  C   UNL     1     -45.360 -53.606  12.777  1.00  0.00    -0.013 C 
HETATM   12  C   UNL     1     -46.264 -52.407  12.454  1.00  0.00     0.009 C 
HETATM   13  C   UNL     1     -43.897 -53.137  12.844  1.00  0.00     0.015 C 
HETATM   14  C   UNL     1     -46.118 -51.332  13.541  1.00  0.00    -0.013 C 
HETATM   15  C   UNL     1     -44.650 -50.871  13.610  1.00  0.00     0.015 C 
ENDBRANCH   5   6
ENDBRANCH   3   5
BRANCH   2  16
HETATM   16  C   UNL     1     -41.203 -48.027  12.986  1.00  0.00     0.235 C 
BRANCH  16  17
HETATM   17  N   UNL     1     -41.791 -47.470  11.768  1.00  0.00    -0.301 N 
HETATM   18  C   UNL     1     -43.114 -47.724  11.469  1.00  0.00     0.102 A 
HETATM   19  C   UNL     1     -43.688 -47.248  10.362  1.00  0.00     0.092 A 
HETATM   20  C   UNL     1     -42.884 -46.430   9.440  1.00  0.00     0.250 A 
HETATM   21  O   UNL     1     -43.359 -46.003   8.394  1.00  0.00    -0.268 OA
HETATM   22  N   UNL     1     -41.594 -46.200   9.820  1.00  0.00    -0.275 N 
HETATM   23  C   UNL     1     -40.978 -46.731  10.922  1.00  0.00     0.329 A 
HETATM   24  H   UNL     1     -41.022 -45.660   9.192  1.00  0.00     0.173 HD
HETATM   25  O   UNL     1     -39.774 -46.562  11.118  1.00  0.00    -0.246 OA
ENDBRANCH  16  17
ENDBRANCH   2  16
TORSDOF 4
ENDMDL
MODEL 2
REMARK VINA RESULT:      -6.4      3.548      7.013
REMARK  4 active torsions:
REMARK  status: ('A' for Active; 'I' for Inactive)
REMARK    1  A    between atoms: C_2  and  C_3 
REMARK       I    between atoms: C_2  and  N_12 
REMARK    2  A    between atoms: C_3  and  N_4 
REMARK    3  A    between atoms: N_12  and  C_13 
REMARK    4  A    between atoms: C_13  and  C_14 
ROOT
HETATM    1  O   UNL     1     -42.345 -53.548  13.782  1.00  0.00    -0.272 OA
HETATM    2  C   UNL     1     -42.893 -53.181  12.744  1.00  0.00     0.235 C 
HETATM    3  N   UNL     1     -42.275 -52.401  11.787  1.00  0.00    -0.359 N 
HETATM    4  H   UNL     1     -42.735 -52.303  10.884  1.00  0.00     0.162 HD
ENDROOT
BRANCH   3   5
HETATM    5  C   UNL     1     -40.910 -51.920  11.923  1.00  0.00     0.132 C 
BRANCH   5   6
HETATM    6  C   UNL     1     -40.802 -50.428  12.312  1.00  0.00    -0.023 C 
HETATM    7  C   UNL     1     -40.451 -50.267  13.814  1.00  0.00     0.015 C 
HETATM    8  C   UNL     1     -40.319 -48.782  14.185  1.00  0.00    -0.013 C 
HETATM    9  C   UNL     1     -41.648 -48.068  13.889  1.00  0.00     0.009 C 
HETATM   10  C   UNL     1     -39.199 -48.145  13.346  1.00  0.00     0.009 C 
HETATM   11  C   UNL     1     -41.984 -48.178  12.393  1.00  0.00    -0.013 C 
HETATM   12  C   UNL     1     -40.853 -47.547  11.566  1.00  0.00     0.009 C 
HETATM   13  C   UNL     1     -42.118 -49.664  12.020  1.00  0.00     0.015 C 
HETATM   14  C   UNL     1     -39.528 -48.271  11.850  1.00  0.00    -0.013 C 
HETATM   15  C   UNL     1     -39.671 -49.759  11.482  1.00  0.00     0.015 C 
ENDBRANCH   5   6
ENDBRANCH   3   5
BRANCH   2  16
HETATM   16  C   UNL     1     -44.312 -53.614  12.385  1.00  0.00     0.235 C 
BRANCH  16  17
HETATM   17  N   UNL     1     -45.272 -53.159  13.391  1.00  0.00    -0.301 N 
HETATM   18  C   UNL     1     -45.549 -51.813  13.513  1.00  0.00     0.102 A 
HETATM   19  C   UNL     1     -46.407 -51.352  14.426  1.00  0.00     0.092 A 
HETATM   20  C   UNL     1     -47.074 -52.310  15.322  1.00  0.00     0.250 A 
HETATM   21  O   UNL     1     -47.840 -51.928  16.199  1.00  0.00    -0.268 OA
HETATM   22  N   UNL     1     -46.769 -53.624  15.119  1.00  0.00    -0.275 N 
HETATM   23  C   UNL     1     -45.848 -54.104  14.227  1.00  0.00     0.329 A 
HETATM   24  H   UNL     1     -47.200 -54.293  15.736  1.00  0.00     0.173 HD
HETATM   25  O   UNL     1     -45.554 -55.299  14.200  1.00  0.00    -0.246 OA
ENDBRANCH  16  17
ENDBRANCH   2  16
TORSDOF 4
ENDMDL
MODEL 3
REMARK VINA RESULT:      -6.4      1.446      2.316
REMARK  4 active torsions:
REMARK  status: ('A' for Active; 'I' for Inactive)
REMARK    1  A    between atoms: C_2  and  C_3 
REMARK       I    between atoms: C_2  and  N_12 
REMARK    2  A    between atoms: C_3  and  N_4 
REMARK    3  A    between atoms: N_12  and  C_13 
REMARK    4  A    between atoms: C_13  and  C_14 
ROOT
HETATM    1  O   UNL     1     -41.779 -48.410  15.545  1.00  0.00    -0.272 OA
HETATM    2  C   UNL     1     -41.514 -49.131  14.584  1.00  0.00     0.235 C 
HETATM    3  N   UNL     1     -42.075 -50.375  14.383  1.00  0.00    -0.359 N 
HETATM    4  H   UNL     1     -41.941 -50.816  13.475  1.00  0.00     0.162 HD
ENDROOT
BRANCH   3   5
HETATM    5  C   UNL     1     -43.030 -50.968  15.304  1.00  0.00     0.132 C 
BRANCH   5   6
HETATM    6  C   UNL     1     -44.093 -51.861  14.625  1.00  0.00    -0.023 C 
HETATM    7  C   UNL     1     -43.682 -52.209  13.171  1.00  0.00     0.015 C 
HETATM    8  C   UNL     1     -44.731 -53.119  12.512  1.00  0.00    -0.013 C 
HETATM    9  C   UNL     1     -46.089 -52.397  12.503  1.00  0.00     0.009 C 
HETATM   10  C   UNL     1     -44.851 -54.423  13.317  1.00  0.00     0.009 C 
HETATM   11  C   UNL     1     -46.532 -52.089  13.942  1.00  0.00    -0.013 C 
HETATM   12  C   UNL     1     -46.639 -53.399  14.737  1.00  0.00     0.009 C 
HETATM   13  C   UNL     1     -45.485 -51.178  14.602  1.00  0.00     0.015 C 
HETATM   14  C   UNL     1     -45.278 -54.112  14.760  1.00  0.00    -0.013 C 
HETATM   15  C   UNL     1     -44.231 -53.192  15.415  1.00  0.00     0.015 C 
ENDBRANCH   5   6
ENDBRANCH   3   5
BRANCH   2  16
HETATM   16  C   UNL     1     -40.568 -48.677  13.475  1.00  0.00     0.235 C 
BRANCH  16  17
HETATM   17  N   UNL     1     -41.306 -48.348  12.256  1.00  0.00    -0.301 N 
HETATM   18  C   UNL     1     -42.374 -47.477  12.315  1.00  0.00     0.102 A 
HETATM   19  C   UNL     1     -43.084 -47.160  11.230  1.00  0.00     0.092 A 
HETATM   20  C   UNL     1     -42.711 -47.756   9.937  1.00  0.00     0.250 A 
HETATM   21  O   UNL     1     -43.356 -47.522   8.923  1.00  0.00    -0.268 OA
HETATM   22  N   UNL     1     -41.625 -48.583   9.956  1.00  0.00    -0.275 N 
HETATM   23  C   UNL     1     -40.927 -48.962  11.070  1.00  0.00     0.329 A 
HETATM   24  H   UNL     1     -41.368 -49.017   9.085  1.00  0.00     0.173 HD
HETATM   25  O   UNL     1     -40.035 -49.809  11.003  1.00  0.00    -0.246 OA
ENDBRANCH  16  17
ENDBRANCH   2  16
TORSDOF 4
ENDMDL
MODEL 4
REMARK VINA RESULT:      -6.3      3.455      4.409
REMARK  4 active torsions:
REMARK  status: ('A' for Active; 'I' for Inactive)
REMARK    1  A    between atoms: C_2  and  C_3 
REMARK       I    between atoms: C_2  and  N_12 
REMARK    2  A    between atoms: C_3  and  N_4 
REMARK    3  A    between atoms: N_12  and  C_13 
REMARK    4  A    between atoms: C_13  and  C_14 
ROOT
HETATM    1  O   UNL     1     -40.504 -53.079  12.181  1.00  0.00    -0.272 OA
HETATM    2  C   UNL     1     -41.072 -51.995  12.055  1.00  0.00     0.235 C 
HETATM    3  N   UNL     1     -42.442 -51.839  12.105  1.00  0.00    -0.359 N 
HETATM    4  H   UNL     1     -42.810 -50.892  12.177  1.00  0.00     0.162 HD
ENDROOT
BRANCH   3   5
HETATM    5  C   UNL     1     -43.356 -52.953  12.299  1.00  0.00     0.132 C 
BRANCH   5   6
HETATM    6  C   UNL     1     -44.315 -52.782  13.499  1.00  0.00    -0.023 C 
HETATM    7  C   UNL     1     -43.540 -52.371  14.777  1.00  0.00     0.015 C 
HETATM    8  C   UNL     1     -44.504 -52.178  15.959  1.00  0.00    -0.013 C 
HETATM    9  C   UNL     1     -45.257 -53.494  16.215  1.00  0.00     0.009 C 
HETATM   10  C   UNL     1     -45.513 -51.070  15.616  1.00  0.00     0.009 C 
HETATM   11  C   UNL     1     -46.069 -53.887  14.971  1.00  0.00    -0.013 C 
HETATM   12  C   UNL     1     -47.067 -52.769  14.634  1.00  0.00     0.009 C 
HETATM   13  C   UNL     1     -45.106 -54.083  13.789  1.00  0.00     0.015 C 
HETATM   14  C   UNL     1     -46.313 -51.458  14.362  1.00  0.00    -0.013 C 
HETATM   15  C   UNL     1     -45.344 -51.662  13.182  1.00  0.00     0.015 C 
ENDBRANCH   5   6
ENDBRANCH   3   5
BRANCH   2  16
HETATM   16  C   UNL     1     -40.293 -50.692  11.888  1.00  0.00     0.235 C 
BRANCH  16  17
HETATM   17  N   UNL     1     -39.435 -50.440  13.045  1.00  0.00    -0.301 N 
HETATM   18  C   UNL     1     -39.974 -49.898  14.193  1.00  0.00     0.102 A 
HETATM   19  C   UNL     1     -39.225 -49.639  15.267  1.00  0.00     0.092 A 
HETATM   20  C   UNL     1     -37.786 -49.944  15.221  1.00  0.00     0.250 A 
HETATM   21  O   UNL     1     -37.054 -49.689  16.170  1.00  0.00    -0.268 OA
HETATM   22  N   UNL     1     -37.335 -50.506  14.062  1.00  0.00    -0.275 N 
HETATM   23  C   UNL     1     -38.080 -50.721  12.934  1.00  0.00     0.329 A 
HETATM   24  H   UNL     1     -36.350 -50.702  14.004  1.00  0.00     0.173 HD
HETATM   25  O   UNL     1     -37.556 -51.123  11.894  1.00  0.00    -0.246 OA
ENDBRANCH  16  17
ENDBRANCH   2  16
TORSDOF 4
ENDMDL
MODEL 5
REMARK VINA RESULT:      -6.3      0.937      2.084
REMARK  4 active torsions:
REMARK  status: ('A' for Active; 'I' for Inactive)
REMARK    1  A    between atoms: C_2  and  C_3 
REMARK       I    between atoms: C_2  and  N_12 
REMARK    2  A    between atoms: C_3  and  N_4 
REMARK    3  A    between atoms: N_12  and  C_13 
REMARK    4  A    between atoms: C_13  and  C_14 
ROOT
HETATM    1  O   UNL     1     -40.094 -50.295  12.541  1.00  0.00    -0.272 OA
HETATM    2  C   UNL     1     -41.221 -49.824  12.683  1.00  0.00     0.235 C 
HETATM    3  N   UNL     1     -42.374 -50.583  12.682  1.00  0.00    -0.359 N 
HETATM    4  H   UNL     1     -43.236 -50.138  12.990  1.00  0.00     0.162 HD
ENDROOT
BRANCH   3   5
HETATM    5  C   UNL     1     -42.368 -52.025  12.495  1.00  0.00     0.132 C 
BRANCH   5   6
HETATM    6  C   UNL     1     -43.391 -52.780  13.374  1.00  0.00    -0.023 C 
HETATM    7  C   UNL     1     -44.716 -53.020  12.606  1.00  0.00     0.015 C 
HETATM    8  C   UNL     1     -45.717 -53.795  13.478  1.00  0.00    -0.013 C 
HETATM    9  C   UNL     1     -46.002 -52.988  14.756  1.00  0.00     0.009 C 
HETATM   10  C   UNL     1     -45.113 -55.156  13.858  1.00  0.00     0.009 C 
HETATM   11  C   UNL     1     -44.703 -52.785  15.552  1.00  0.00    -0.013 C 
HETATM   12  C   UNL     1     -44.105 -54.152  15.917  1.00  0.00     0.009 C 
HETATM   13  C   UNL     1     -43.702 -52.008  14.682  1.00  0.00     0.015 C 
HETATM   14  C   UNL     1     -43.806 -54.952  14.640  1.00  0.00    -0.013 C 
HETATM   15  C   UNL     1     -42.808 -54.166  13.768  1.00  0.00     0.015 C 
ENDBRANCH   5   6
ENDBRANCH   3   5
BRANCH   2  16
HETATM   16  C   UNL     1     -41.445 -48.336  12.940  1.00  0.00     0.235 C 
BRANCH  16  17
HETATM   17  N   UNL     1     -41.930 -47.661  11.736  1.00  0.00    -0.301 N 
HETATM   18  C   UNL     1     -43.259 -47.767  11.380  1.00  0.00     0.102 A 
HETATM   19  C   UNL     1     -43.742 -47.180  10.284  1.00  0.00     0.092 A 
HETATM   20  C   UNL     1     -42.829 -46.398   9.435  1.00  0.00     0.250 A 
HETATM   21  O   UNL     1     -43.220 -45.872   8.400  1.00  0.00    -0.268 OA
HETATM   22  N   UNL     1     -41.538 -46.316   9.870  1.00  0.00    -0.275 N 
HETATM   23  C   UNL     1     -41.018 -46.962  10.959  1.00  0.00     0.329 A 
HETATM   24  H   UNL     1     -40.893 -45.803   9.292  1.00  0.00     0.173 HD
HETATM   25  O   UNL     1     -39.811 -46.924  11.204  1.00  0.00    -0.246 OA
ENDBRANCH  16  17
ENDBRANCH   2  16
TORSDOF 4
ENDMDL
MODEL 6
REMARK VINA RESULT:      -6.3      1.826      2.840
REMARK  4 active torsions:
REMARK  status: ('A' for Active; 'I' for Inactive)
REMARK    1  A    between atoms: C_2  and  C_3 
REMARK       I    between atoms: C_2  and  N_12 
REMARK    2  A    between atoms: C_3  and  N_4 
REMARK    3  A    between atoms: N_12  and  C_13 
REMARK    4  A    between atoms: C_13  and  C_14 
ROOT
HETATM    1  O   UNL     1     -39.982 -50.058  12.684  1.00  0.00    -0.272 OA
HETATM    2  C   UNL     1     -40.926 -49.881  11.916  1.00  0.00     0.235 C 
HETATM    3  N   UNL     1     -41.981 -50.762  11.784  1.00  0.00    -0.359 N 
HETATM    4  H   UNL     1     -42.801 -50.448  11.269  1.00  0.00     0.162 HD
ENDROOT
BRANCH   3   5
HETATM    5  C   UNL     1     -42.070 -52.003  12.534  1.00  0.00     0.132 C 
BRANCH   5   6
HETATM    6  C   UNL     1     -43.438 -52.234  13.215  1.00  0.00    -0.023 C 
HETATM    7  C   UNL     1     -44.277 -53.281  12.439  1.00  0.00     0.015 C 
HETATM    8  C   UNL     1     -45.625 -53.524  13.137  1.00  0.00    -0.013 C 
HETATM    9  C   UNL     1     -46.400 -52.198  13.211  1.00  0.00     0.009 C 
HETATM   10  C   UNL     1     -45.374 -54.048  14.560  1.00  0.00     0.009 C 
HETATM   11  C   UNL     1     -45.600 -51.164  14.020  1.00  0.00    -0.013 C 
HETATM   12  C   UNL     1     -45.348 -51.704  15.436  1.00  0.00     0.009 C 
HETATM   13  C   UNL     1     -44.253 -50.919  13.322  1.00  0.00     0.015 C 
HETATM   14  C   UNL     1     -44.560 -53.021  15.362  1.00  0.00    -0.013 C 
HETATM   15  C   UNL     1     -43.215 -52.772  14.655  1.00  0.00     0.015 C 
ENDBRANCH   5   6
ENDBRANCH   3   5
BRANCH   2  16
HETATM   16  C   UNL     1     -41.049 -48.617  11.069  1.00  0.00     0.235 C 
BRANCH  16  17
HETATM   17  N   UNL     1     -41.614 -47.515  11.846  1.00  0.00    -0.301 N 
HETATM   18  C   UNL     1     -40.786 -46.725  12.617  1.00  0.00     0.102 A 
HETATM   19  C   UNL     1     -41.261 -45.717  13.353  1.00  0.00     0.092 A 
HETATM   20  C   UNL     1     -42.707 -45.445  13.336  1.00  0.00     0.250 A 
HETATM   21  O   UNL     1     -43.192 -44.554  14.024  1.00  0.00    -0.268 OA
HETATM   22  N   UNL     1     -43.454 -46.251  12.527  1.00  0.00    -0.275 N 
HETATM   23  C   UNL     1     -42.988 -47.323  11.815  1.00  0.00     0.329 A 
HETATM   24  H   UNL     1     -44.449 -46.093  12.519  1.00  0.00     0.173 HD
HETATM   25  O   UNL     1     -43.760 -48.065  11.207  1.00  0.00    -0.246 OA
ENDBRANCH  16  17
ENDBRANCH   2  16
TORSDOF 4
ENDMDL
MODEL 7
REMARK VINA RESULT:      -6.3      2.521      3.754
REMARK  4 active torsions:
REMARK  status: ('A' for Active; 'I' for Inactive)
REMARK    1  A    between atoms: C_2  and  C_3 
REMARK       I    between atoms: C_2  and  N_12 
REMARK    2  A    between atoms: C_3  and  N_4 
REMARK    3  A    between atoms: N_12  and  C_13 
REMARK    4  A    between atoms: C_13  and  C_14 
ROOT
HETATM    1  O   UNL     1     -42.370 -48.541  15.513  1.00  0.00    -0.272 OA
HETATM    2  C   UNL     1     -41.883 -49.202  14.597  1.00  0.00     0.235 C 
HETATM    3  N   UNL     1     -42.077 -50.559  14.445  1.00  0.00    -0.359 N 
HETATM    4  H   UNL     1     -41.794 -50.985  13.565  1.00  0.00     0.162 HD
ENDROOT
BRANCH   3   5
HETATM    5  C   UNL     1     -42.870 -51.351  15.372  1.00  0.00     0.132 C 
BRANCH   5   6
HETATM    6  C   UNL     1     -44.059 -52.088  14.715  1.00  0.00    -0.023 C 
HETATM    7  C   UNL     1     -44.547 -53.261  15.604  1.00  0.00     0.015 C 
HETATM    8  C   UNL     1     -45.747 -53.971  14.957  1.00  0.00    -0.013 C 
HETATM    9  C   UNL     1     -45.329 -54.510  13.579  1.00  0.00     0.009 C 
HETATM   10  C   UNL     1     -46.900 -52.969  14.785  1.00  0.00     0.009 C 
HETATM   11  C   UNL     1     -44.889 -53.351  12.670  1.00  0.00    -0.013 C 
HETATM   12  C   UNL     1     -46.047 -52.353  12.515  1.00  0.00     0.009 C 
HETATM   13  C   UNL     1     -43.688 -52.641  13.316  1.00  0.00     0.015 C 
HETATM   14  C   UNL     1     -46.453 -51.803  13.891  1.00  0.00    -0.013 C 
HETATM   15  C   UNL     1     -45.244 -51.099  14.536  1.00  0.00     0.015 C 
ENDBRANCH   5   6
ENDBRANCH   3   5
BRANCH   2  16
HETATM   16  C   UNL     1     -41.054 -48.555  13.490  1.00  0.00     0.235 C 
BRANCH  16  17
HETATM   17  N   UNL     1     -39.896 -49.381  13.148  1.00  0.00    -0.301 N 
HETATM   18  C   UNL     1     -38.888 -49.563  14.072  1.00  0.00     0.102 A 
HETATM   19  C   UNL     1     -37.808 -50.297  13.798  1.00  0.00     0.092 A 
HETATM   20  C   UNL     1     -37.695 -50.929  12.473  1.00  0.00     0.250 A 
HETATM   21  O   UNL     1     -36.704 -51.581  12.165  1.00  0.00    -0.268 OA
HETATM   22  N   UNL     1     -38.746 -50.726  11.627  1.00  0.00    -0.275 N 
HETATM   23  C   UNL     1     -39.830 -49.927  11.874  1.00  0.00     0.329 A 
HETATM   24  H   UNL     1     -38.677 -51.132  10.708  1.00  0.00     0.173 HD
HETATM   25  O   UNL     1     -40.670 -49.710  11.001  1.00  0.00    -0.246 OA
ENDBRANCH  16  17
ENDBRANCH   2  16
TORSDOF 4
ENDMDL
MODEL 8
REMARK VINA RESULT:      -6.2      1.606      2.760
REMARK  4 active torsions:
REMARK  status: ('A' for Active; 'I' for Inactive)
REMARK    1  A    between atoms: C_2  and  C_3 
REMARK       I    between atoms: C_2  and  N_12 
REMARK    2  A    between atoms: C_3  and  N_4 
REMARK    3  A    between atoms: N_12  and  C_13 
REMARK    4  A    between atoms: C_13  and  C_14 
ROOT
HETATM    1  O   UNL     1     -42.738 -48.508  13.457  1.00  0.00    -0.272 OA
HETATM    2  C   UNL     1     -42.603 -49.433  12.657  1.00  0.00     0.235 C 
HETATM    3  N   UNL     1     -43.438 -50.530  12.607  1.00  0.00    -0.359 N 
HETATM    4  H   UNL     1     -43.365 -51.147  11.801  1.00  0.00     0.162 HD
ENDROOT
BRANCH   3   5
HETATM    5  C   UNL     1     -44.559 -50.709  13.515  1.00  0.00     0.132 C 
BRANCH   5   6
HETATM    6  C   UNL     1     -44.688 -52.140  14.086  1.00  0.00    -0.023 C 
HETATM    7  C   UNL     1     -46.173 -52.581  14.154  1.00  0.00     0.015 C 
HETATM    8  C   UNL     1     -46.290 -54.014  14.698  1.00  0.00    -0.013 C 
HETATM    9  C   UNL     1     -45.671 -54.072  16.105  1.00  0.00     0.009 C 
HETATM   10  C   UNL     1     -45.531 -54.974  13.767  1.00  0.00     0.009 C 
HETATM   11  C   UNL     1     -44.185 -53.683  16.044  1.00  0.00    -0.013 C 
HETATM   12  C   UNL     1     -43.442 -54.644  15.104  1.00  0.00     0.009 C 
HETATM   13  C   UNL     1     -44.067 -52.249  15.502  1.00  0.00     0.015 C 
HETATM   14  C   UNL     1     -44.049 -54.575  13.695  1.00  0.00    -0.013 C 
HETATM   15  C   UNL     1     -43.935 -53.135  13.160  1.00  0.00     0.015 C 
ENDBRANCH   5   6
ENDBRANCH   3   5
BRANCH   2  16
HETATM   16  C   UNL     1     -41.514 -49.419  11.587  1.00  0.00     0.235 C 
BRANCH  16  17
HETATM   17  N   UNL     1     -41.185 -48.051  11.188  1.00  0.00    -0.301 N 
HETATM   18  C   UNL     1     -40.134 -47.394  11.796  1.00  0.00     0.102 A 
HETATM   19  C   UNL     1     -39.807 -46.141  11.473  1.00  0.00     0.092 A 
HETATM   20  C   UNL     1     -40.591 -45.446  10.439  1.00  0.00     0.250 A 
HETATM   21  O   UNL     1     -40.350 -44.283  10.138  1.00  0.00    -0.268 OA
HETATM   22  N   UNL     1     -41.594 -46.172   9.866  1.00  0.00    -0.275 N 
HETATM   23  C   UNL     1     -41.976 -47.435  10.229  1.00  0.00     0.329 A 
HETATM   24  H   UNL     1     -42.155 -45.706   9.171  1.00  0.00     0.173 HD
HETATM   25  O   UNL     1     -42.972 -47.964   9.734  1.00  0.00    -0.246 OA
ENDBRANCH  16  17
ENDBRANCH   2  16
TORSDOF 4
ENDMDL
MODEL 9
REMARK VINA RESULT:      -6.2      1.650      2.339
REMARK  4 active torsions:
REMARK  status: ('A' for Active; 'I' for Inactive)
REMARK    1  A    between atoms: C_2  and  C_3 
REMARK       I    between atoms: C_2  and  N_12 
REMARK    2  A    between atoms: C_3  and  N_4 
REMARK    3  A    between atoms: N_12  and  C_13 
REMARK    4  A    between atoms: C_13  and  C_14 
ROOT
HETATM    1  O   UNL     1     -41.666 -48.120  14.355  1.00  0.00    -0.272 OA
HETATM    2  C   UNL     1     -42.536 -48.063  13.488  1.00  0.00     0.235 C 
HETATM    3  N   UNL     1     -43.173 -49.171  12.968  1.00  0.00    -0.359 N 
HETATM    4  H   UNL     1     -44.002 -49.019  12.396  1.00  0.00     0.162 HD
ENDROOT
BRANCH   3   5
HETATM    5  C   UNL     1     -42.863 -50.528  13.388  1.00  0.00     0.132 C 
BRANCH   5   6
HETATM    6  C   UNL     1     -44.051 -51.277  14.032  1.00  0.00    -0.023 C 
HETATM    7  C   UNL     1     -44.454 -50.628  15.381  1.00  0.00     0.015 C 
HETATM    8  C   UNL     1     -45.654 -51.362  16.002  1.00  0.00    -0.013 C 
HETATM    9  C   UNL     1     -45.277 -52.836  16.232  1.00  0.00     0.009 C 
HETATM   10  C   UNL     1     -46.850 -51.286  15.040  1.00  0.00     0.009 C 
HETATM   11  C   UNL     1     -44.922 -53.505  14.895  1.00  0.00    -0.013 C 
HETATM   12  C   UNL     1     -46.123 -53.413  13.941  1.00  0.00     0.009 C 
HETATM   13  C   UNL     1     -43.722 -52.772  14.274  1.00  0.00     0.015 C 
HETATM   14  C   UNL     1     -46.488 -51.940  13.698  1.00  0.00    -0.013 C 
HETATM   15  C   UNL     1     -45.280 -51.209  13.083  1.00  0.00     0.015 C 
ENDBRANCH   5   6
ENDBRANCH   3   5
BRANCH   2  16
HETATM   16  C   UNL     1     -43.042 -46.729  12.941  1.00  0.00     0.235 C 
BRANCH  16  17
HETATM   17  N   UNL     1     -42.067 -46.130  12.030  1.00  0.00    -0.301 N 
HETATM   18  C   UNL     1     -41.225 -45.136  12.485  1.00  0.00     0.102 A 
HETATM   19  C   UNL     1     -40.330 -44.552  11.685  1.00  0.00     0.092 A 
HETATM   20  C   UNL     1     -40.242 -44.985  10.281  1.00  0.00     0.250 A 
HETATM   21  O   UNL     1     -39.462 -44.452   9.502  1.00  0.00    -0.268 OA
HETATM   22  N   UNL     1     -41.087 -45.993   9.917  1.00  0.00    -0.275 N 
HETATM   23  C   UNL     1     -42.049 -46.558  10.711  1.00  0.00     0.329 A 
HETATM   24  H   UNL     1     -41.056 -46.289   8.955  1.00  0.00     0.173 HD
HETATM   25  O   UNL     1     -42.846 -47.379  10.255  1.00  0.00    -0.246 OA
ENDBRANCH  16  17
ENDBRANCH   2  16
TORSDOF 4
ENDMDL
