MODEL 1
REMARK VINA RESULT:      -5.5      0.000      0.000
REMARK  3 active torsions:
REMARK  status: ('A' for Active; 'I' for Inactive)
REMARK    1  A    between atoms: C_6  and  N_7 
REMARK       I    between atoms: N_7  and  C_8 
REMARK    2  A    between atoms: C_8  and  C_10 
REMARK    3  A    between atoms: C_10  and  N_11 
ROOT
HETATM    1  N   UNL     1     -40.710 -47.642  10.995  1.00  0.00    -0.355 N 
HETATM    2  C   UNL     1     -42.035 -47.987  10.811  1.00  0.00     0.237 C 
HETATM    3  O   UNL     1     -42.753 -48.393  11.722  1.00  0.00    -0.272 OA
HETATM    4  H   UNL     1     -40.194 -47.185  10.253  1.00  0.00     0.162 HD
ENDROOT
BRANCH   1   5
HETATM    5  C   UNL     1     -40.069 -47.768  12.300  1.00  0.00     0.088 C 
HETATM    6  C   UNL     1     -39.721 -46.377  12.851  1.00  0.00     0.025 C 
HETATM    7  C   UNL     1     -39.041 -46.457  14.213  1.00  0.00     0.002 C 
HETATM    8  C   UNL     1     -37.820 -47.374  14.185  1.00  0.00     0.005 C 
HETATM    9  C   UNL     1     -38.131 -48.774  13.630  1.00  0.00    -0.013 C 
HETATM   10  C   UNL     1     -38.940 -49.593  14.647  1.00  0.00     0.010 C 
HETATM   11  C   UNL     1     -38.807 -48.660  12.238  1.00  0.00     0.008 C 
HETATM   12  C   UNL     1     -39.103 -50.037  11.632  1.00  0.00     0.012 C 
ENDBRANCH   1   5
BRANCH   2  13
HETATM   13  C   UNL     1     -42.551 -47.845   9.401  1.00  0.00     0.249 C 
BRANCH  13  14
HETATM   14  N   UNL     1     -43.325 -46.640   9.258  1.00  0.00    -0.264 N 
HETATM   15  C   UNL     1     -44.659 -46.498   9.042  1.00  0.00     0.213 A 
HETATM   16  N   UNL     1     -44.945 -45.216   9.045  1.00  0.00    -0.281 N 
HETATM   17  N   UNL     1     -43.753 -44.566   9.271  1.00  0.00    -0.008 NA
ATOM     18  HN  UNL     1     -45.862 -44.791   8.909  1.00  0.00     0.184 HD
HETATM   19  N   UNL     1     -42.759 -45.432   9.411  1.00  0.00    -0.005 NA
ENDBRANCH  13  14
ENDBRANCH   2  13
TORSDOF 3
ENDMDL
MODEL 2
REMARK VINA RESULT:      -5.4      6.250      8.402
REMARK  3 active torsions:
REMARK  status: ('A' for Active; 'I' for Inactive)
REMARK    1  A    between atoms: C_6  and  N_7 
REMARK       I    between atoms: N_7  and  C_8 
REMARK    2  A    between atoms: C_8  and  C_10 
REMARK    3  A    between atoms: C_10  and  N_11 
ROOT
HETATM    1  N   UNL     1     -42.716 -52.955  14.417  1.00  0.00    -0.355 N 
HETATM    2  C   UNL     1     -42.172 -54.180  14.752  1.00  0.00     0.237 C 
HETATM    3  O   UNL     1     -42.845 -55.204  14.860  1.00  0.00    -0.272 OA
HETATM    4  H   UNL     1     -42.113 -52.170  14.206  1.00  0.00     0.162 HD
ENDROOT
BRANCH   1   5
HETATM    5  C   UNL     1     -44.150 -52.799  14.193  1.00  0.00     0.088 C 
HETATM    6  C   UNL     1     -44.465 -52.927  12.696  1.00  0.00     0.025 C 
HETATM    7  C   UNL     1     -45.954 -52.764  12.411  1.00  0.00     0.002 C 
HETATM    8  C   UNL     1     -46.503 -51.462  12.991  1.00  0.00     0.005 C 
HETATM    9  C   UNL     1     -46.198 -51.296  14.490  1.00  0.00    -0.013 C 
HETATM   10  C   UNL     1     -47.067 -52.243  15.329  1.00  0.00     0.010 C 
HETATM   11  C   UNL     1     -44.674 -51.452  14.746  1.00  0.00     0.008 C 
HETATM   12  C   UNL     1     -44.321 -51.259  16.225  1.00  0.00     0.012 C 
ENDBRANCH   1   5
BRANCH   2  13
HETATM   13  C   UNL     1     -40.684 -54.184  14.995  1.00  0.00     0.249 C 
BRANCH  13  14
HETATM   14  N   UNL     1     -40.043 -53.124  14.261  1.00  0.00    -0.264 N 
HETATM   15  C   UNL     1     -39.195 -52.162  14.709  1.00  0.00     0.213 A 
HETATM   16  N   UNL     1     -38.799 -51.447  13.681  1.00  0.00    -0.281 N 
HETATM   17  N   UNL     1     -39.424 -51.992  12.582  1.00  0.00    -0.008 NA
ATOM     18  HN  UNL     1     -38.161 -50.651  13.694  1.00  0.00     0.184 HD
HETATM   19  N   UNL     1     -40.179 -53.025  12.928  1.00  0.00    -0.005 NA
ENDBRANCH  13  14
ENDBRANCH   2  13
TORSDOF 3
ENDMDL
MODEL 3
REMARK VINA RESULT:      -5.4      5.442      7.488
REMARK  3 active torsions:
REMARK  status: ('A' for Active; 'I' for Inactive)
REMARK    1  A    between atoms: C_6  and  N_7 
REMARK       I    between atoms: N_7  and  C_8 
REMARK    2  A    between atoms: C_8  and  C_10 
REMARK    3  A    between atoms: C_10  and  N_11 
ROOT
HETATM    1  N   UNL     1     -43.021 -51.878  12.490  1.00  0.00    -0.355 N 
HETATM    2  C   UNL     1     -42.357 -50.763  12.962  1.00  0.00     0.237 C 
HETATM    3  O   UNL     1     -42.389 -50.414  14.141  1.00  0.00    -0.272 OA
HETATM    4  H   UNL     1     -42.858 -52.207  11.547  1.00  0.00     0.162 HD
ENDROOT
BRANCH   1   5
HETATM    5  C   UNL     1     -43.836 -52.706  13.375  1.00  0.00     0.088 C 
HETATM    6  C   UNL     1     -43.205 -54.098  13.521  1.00  0.00     0.025 C 
HETATM    7  C   UNL     1     -44.026 -55.003  14.433  1.00  0.00     0.002 C 
HETATM    8  C   UNL     1     -45.483 -55.090  13.983  1.00  0.00     0.005 C 
HETATM    9  C   UNL     1     -46.145 -53.711  13.818  1.00  0.00    -0.013 C 
HETATM   10  C   UNL     1     -46.423 -53.075  15.187  1.00  0.00     0.010 C 
HETATM   11  C   UNL     1     -45.295 -52.820  12.873  1.00  0.00     0.008 C 
HETATM   12  C   UNL     1     -45.938 -51.446  12.653  1.00  0.00     0.012 C 
ENDBRANCH   1   5
BRANCH   2  13
HETATM   13  C   UNL     1     -41.588 -49.981  11.928  1.00  0.00     0.249 C 
BRANCH  13  14
HETATM   14  N   UNL     1     -40.183 -50.290  11.992  1.00  0.00    -0.264 N 
HETATM   15  C   UNL     1     -39.116 -49.482  11.757  1.00  0.00     0.213 A 
HETATM   16  N   UNL     1     -38.020 -50.164  11.997  1.00  0.00    -0.281 N 
HETATM   17  N   UNL     1     -38.435 -51.417  12.390  1.00  0.00    -0.008 NA
ATOM     18  HN  UNL     1     -37.059 -49.833  11.911  1.00  0.00     0.184 HD
HETATM   19  N   UNL     1     -39.758 -51.497  12.397  1.00  0.00    -0.005 NA
ENDBRANCH  13  14
ENDBRANCH   2  13
TORSDOF 3
ENDMDL
MODEL 4
REMARK VINA RESULT:      -5.3      5.435      6.347
REMARK  3 active torsions:
REMARK  status: ('A' for Active; 'I' for Inactive)
REMARK    1  A    between atoms: C_6  and  N_7 
REMARK       I    between atoms: N_7  and  C_8 
REMARK    2  A    between atoms: C_8  and  C_10 
REMARK    3  A    between atoms: C_10  and  N_11 
ROOT
HETATM    1  N   UNL     1     -43.526 -51.162  12.507  1.00  0.00    -0.355 N 
HETATM    2  C   UNL     1     -44.478 -50.967  13.488  1.00  0.00     0.237 C 
HETATM    3  O   UNL     1     -44.245 -50.372  14.539  1.00  0.00    -0.272 OA
HETATM    4  H   UNL     1     -43.793 -51.534  11.604  1.00  0.00     0.162 HD
ENDROOT
BRANCH   1   5
HETATM    5  C   UNL     1     -42.156 -50.687  12.676  1.00  0.00     0.088 C 
HETATM    6  C   UNL     1     -41.974 -49.343  11.954  1.00  0.00     0.025 C 
HETATM    7  C   UNL     1     -40.552 -48.809  12.097  1.00  0.00     0.002 C 
HETATM    8  C   UNL     1     -39.513 -49.834  11.649  1.00  0.00     0.005 C 
HETATM    9  C   UNL     1     -39.672 -51.196  12.346  1.00  0.00    -0.013 C 
HETATM   10  C   UNL     1     -39.216 -51.113  13.810  1.00  0.00     0.010 C 
HETATM   11  C   UNL     1     -41.122 -51.720  12.170  1.00  0.00     0.008 C 
HETATM   12  C   UNL     1     -41.315 -53.095  12.822  1.00  0.00     0.012 C 
ENDBRANCH   1   5
BRANCH   2  13
HETATM   13  C   UNL     1     -45.838 -51.548  13.196  1.00  0.00     0.249 C 
BRANCH  13  14
HETATM   14  N   UNL     1     -45.876 -52.952  13.517  1.00  0.00    -0.264 N 
HETATM   15  C   UNL     1     -46.633 -53.600  14.440  1.00  0.00     0.213 A 
HETATM   16  N   UNL     1     -46.391 -54.887  14.344  1.00  0.00    -0.281 N 
HETATM   17  N   UNL     1     -45.464 -55.021  13.335  1.00  0.00    -0.008 NA
ATOM     18  HN  UNL     1     -46.804 -55.634  14.903  1.00  0.00     0.184 HD
HETATM   19  N   UNL     1     -45.152 -53.841  12.818  1.00  0.00    -0.005 NA
ENDBRANCH  13  14
ENDBRANCH   2  13
TORSDOF 3
ENDMDL
MODEL 5
REMARK VINA RESULT:      -5.3      5.010      7.179
REMARK  3 active torsions:
REMARK  status: ('A' for Active; 'I' for Inactive)
REMARK    1  A    between atoms: C_6  and  N_7 
REMARK       I    between atoms: N_7  and  C_8 
REMARK    2  A    between atoms: C_8  and  C_10 
REMARK    3  A    between atoms: C_10  and  N_11 
ROOT
HETATM    1  N   UNL     1     -39.804 -52.035  13.647  1.00  0.00    -0.355 N 
HETATM    2  C   UNL     1     -39.256 -51.052  14.447  1.00  0.00     0.237 C 
HETATM    3  O   UNL     1     -39.890 -50.478  15.331  1.00  0.00    -0.272 OA
HETATM    4  H   UNL     1     -39.213 -52.576  13.027  1.00  0.00     0.162 HD
ENDROOT
BRANCH   1   5
HETATM    5  C   UNL     1     -41.200 -52.438  13.789  1.00  0.00     0.088 C 
HETATM    6  C   UNL     1     -41.288 -53.950  14.043  1.00  0.00     0.025 C 
HETATM    7  C   UNL     1     -42.731 -54.419  14.192  1.00  0.00     0.002 C 
HETATM    8  C   UNL     1     -43.591 -53.997  13.002  1.00  0.00     0.005 C 
HETATM    9  C   UNL     1     -43.519 -52.487  12.714  1.00  0.00    -0.013 C 
HETATM   10  C   UNL     1     -44.292 -51.695  13.779  1.00  0.00     0.010 C 
HETATM   11  C   UNL     1     -42.041 -52.043  12.552  1.00  0.00     0.008 C 
HETATM   12  C   UNL     1     -41.926 -50.549  12.229  1.00  0.00     0.012 C 
ENDBRANCH   1   5
BRANCH   2  13
HETATM   13  C   UNL     1     -37.816 -50.711  14.160  1.00  0.00     0.249 C 
BRANCH  13  14
HETATM   14  N   UNL     1     -37.563 -50.707  12.742  1.00  0.00    -0.264 N 
HETATM   15  C   UNL     1     -37.816 -49.734  11.829  1.00  0.00     0.213 A 
HETATM   16  N   UNL     1     -37.360 -50.131  10.663  1.00  0.00    -0.281 N 
HETATM   17  N   UNL     1     -36.816 -51.377  10.878  1.00  0.00    -0.008 NA
ATOM     18  HN  UNL     1     -37.401 -49.621   9.781  1.00  0.00     0.184 HD
HETATM   19  N   UNL     1     -36.928 -51.732  12.150  1.00  0.00    -0.005 NA
ENDBRANCH  13  14
ENDBRANCH   2  13
TORSDOF 3
ENDMDL
MODEL 6
REMARK VINA RESULT:      -5.2      5.369      7.344
REMARK  3 active torsions:
REMARK  status: ('A' for Active; 'I' for Inactive)
REMARK    1  A    between atoms: C_6  and  N_7 
REMARK       I    between atoms: N_7  and  C_8 
REMARK    2  A    between atoms: C_8  and  C_10 
REMARK    3  A    between atoms: C_10  and  N_11 
ROOT
HETATM    1  N   UNL     1     -42.608 -51.895  13.991  1.00  0.00    -0.355 N 
HETATM    2  C   UNL     1     -41.692 -52.780  13.456  1.00  0.00     0.237 C 
HETATM    3  O   UNL     1     -42.012 -53.866  12.977  1.00  0.00    -0.272 OA
HETATM    4  H   UNL     1     -42.323 -50.959  14.248  1.00  0.00     0.162 HD
ENDROOT
BRANCH   1   5
HETATM    5  C   UNL     1     -44.031 -52.217  14.041  1.00  0.00     0.088 C 
HETATM    6  C   UNL     1     -44.838 -51.156  13.277  1.00  0.00     0.025 C 
HETATM    7  C   UNL     1     -46.335 -51.446  13.308  1.00  0.00     0.002 C 
HETATM    8  C   UNL     1     -46.848 -51.624  14.735  1.00  0.00     0.005 C 
HETATM    9  C   UNL     1     -46.057 -52.675  15.533  1.00  0.00    -0.013 C 
HETATM   10  C   UNL     1     -46.394 -54.092  15.048  1.00  0.00     0.010 C 
HETATM   11  C   UNL     1     -44.541 -52.344  15.496  1.00  0.00     0.008 C 
HETATM   12  C   UNL     1     -43.717 -53.349  16.310  1.00  0.00     0.012 C 
ENDBRANCH   1   5
BRANCH   2  13
HETATM   13  C   UNL     1     -40.254 -52.333  13.508  1.00  0.00     0.249 C 
BRANCH  13  14
HETATM   14  N   UNL     1     -40.005 -51.291  12.546  1.00  0.00    -0.264 N 
HETATM   15  C   UNL     1     -38.828 -50.709  12.196  1.00  0.00     0.213 A 
HETATM   16  N   UNL     1     -39.061 -49.852  11.229  1.00  0.00    -0.281 N 
HETATM   17  N   UNL     1     -40.415 -49.918  10.986  1.00  0.00    -0.008 NA
ATOM     18  HN  UNL     1     -38.380 -49.260  10.755  1.00  0.00     0.184 HD
HETATM   19  N   UNL     1     -40.997 -50.804  11.783  1.00  0.00    -0.005 NA
ENDBRANCH  13  14
ENDBRANCH   2  13
TORSDOF 3
ENDMDL
MODEL 7
REMARK VINA RESULT:      -5.1      5.669      7.962
REMARK  3 active torsions:
REMARK  status: ('A' for Active; 'I' for Inactive)
REMARK    1  A    between atoms: C_6  and  N_7 
REMARK       I    between atoms: N_7  and  C_8 
REMARK    2  A    between atoms: C_8  and  C_10 
REMARK    3  A    between atoms: C_10  and  N_11 
ROOT
HETATM    1  N   UNL     1     -42.603 -51.464  14.112  1.00  0.00    -0.355 N 
HETATM    2  C   UNL     1     -41.833 -50.629  13.326  1.00  0.00     0.237 C 
HETATM    3  O   UNL     1     -42.314 -49.850  12.505  1.00  0.00    -0.272 OA
HETATM    4  H   UNL     1     -42.179 -51.988  14.867  1.00  0.00     0.162 HD
ENDROOT
BRANCH   1   5
HETATM    5  C   UNL     1     -44.058 -51.487  13.993  1.00  0.00     0.088 C 
HETATM    6  C   UNL     1     -44.700 -51.063  15.322  1.00  0.00     0.025 C 
HETATM    7  C   UNL     1     -46.224 -51.079  15.249  1.00  0.00     0.002 C 
HETATM    8  C   UNL     1     -46.755 -52.428  14.771  1.00  0.00     0.005 C 
HETATM    9  C   UNL     1     -46.126 -52.888  13.445  1.00  0.00    -0.013 C 
HETATM   10  C   UNL     1     -46.669 -52.060  12.271  1.00  0.00     0.010 C 
HETATM   11  C   UNL     1     -44.577 -52.877  13.556  1.00  0.00     0.008 C 
HETATM   12  C   UNL     1     -43.909 -53.362  12.264  1.00  0.00     0.012 C 
ENDBRANCH   1   5
BRANCH   2  13
HETATM   13  C   UNL     1     -40.343 -50.743  13.527  1.00  0.00     0.249 C 
BRANCH  13  14
HETATM   14  N   UNL     1     -39.948 -52.121  13.666  1.00  0.00    -0.264 N 
HETATM   15  C   UNL     1     -39.272 -52.720  14.681  1.00  0.00     0.213 A 
HETATM   16  N   UNL     1     -39.190 -54.005  14.422  1.00  0.00    -0.281 N 
HETATM   17  N   UNL     1     -39.835 -54.187  13.219  1.00  0.00    -0.008 NA
ATOM     18  HN  UNL     1     -38.741 -54.720  14.994  1.00  0.00     0.184 HD
HETATM   19  N   UNL     1     -40.309 -53.039  12.756  1.00  0.00    -0.005 NA
ENDBRANCH  13  14
ENDBRANCH   2  13
TORSDOF 3
ENDMDL
MODEL 8
REMARK VINA RESULT:      -5.1      5.725      7.748
REMARK  3 active torsions:
REMARK  status: ('A' for Active; 'I' for Inactive)
REMARK    1  A    between atoms: C_6  and  N_7 
REMARK       I    between atoms: N_7  and  C_8 
REMARK    2  A    between atoms: C_8  and  C_10 
REMARK    3  A    between atoms: C_10  and  N_11 
ROOT
HETATM    1  N   UNL     1     -43.281 -52.249  12.374  1.00  0.00    -0.355 N 
HETATM    2  C   UNL     1     -42.448 -51.222  12.771  1.00  0.00     0.237 C 
HETATM    3  O   UNL     1     -42.678 -50.513  13.748  1.00  0.00    -0.272 OA
HETATM    4  H   UNL     1     -42.988 -52.893  11.650  1.00  0.00     0.162 HD
ENDROOT
BRANCH   1   5
HETATM    5  C   UNL     1     -44.520 -52.540  13.090  1.00  0.00     0.088 C 
HETATM    6  C   UNL     1     -45.367 -51.265  13.213  1.00  0.00     0.025 C 
HETATM    7  C   UNL     1     -46.672 -51.518  13.962  1.00  0.00     0.002 C 
HETATM    8  C   UNL     1     -46.427 -52.165  15.323  1.00  0.00     0.005 C 
HETATM    9  C   UNL     1     -45.573 -53.442  15.239  1.00  0.00    -0.013 C 
HETATM   10  C   UNL     1     -46.384 -54.599  14.638  1.00  0.00     0.010 C 
HETATM   11  C   UNL     1     -44.247 -53.149  14.486  1.00  0.00     0.008 C 
HETATM   12  C   UNL     1     -43.349 -54.388  14.409  1.00  0.00     0.012 C 
ENDBRANCH   1   5
BRANCH   2  13
HETATM   13  C   UNL     1     -41.226 -51.011  11.913  1.00  0.00     0.249 C 
BRANCH  13  14
HETATM   14  N   UNL     1     -40.046 -51.515  12.568  1.00  0.00    -0.264 N 
HETATM   15  C   UNL     1     -38.930 -50.845  12.957  1.00  0.00     0.213 A 
HETATM   16  N   UNL     1     -38.137 -51.689  13.577  1.00  0.00    -0.281 N 
HETATM   17  N   UNL     1     -38.792 -52.899  13.565  1.00  0.00    -0.008 NA
ATOM     18  HN  UNL     1     -37.224 -51.488  13.985  1.00  0.00     0.184 HD
HETATM   19  N   UNL     1     -39.966 -52.798  12.957  1.00  0.00    -0.005 NA
ENDBRANCH  13  14
ENDBRANCH   2  13
TORSDOF 3
ENDMDL
MODEL 9
REMARK VINA RESULT:      -5.0      3.474      4.818
REMARK  3 active torsions:
REMARK  status: ('A' for Active; 'I' for Inactive)
REMARK    1  A    between atoms: C_6  and  N_7 
REMARK       I    between atoms: N_7  and  C_8 
REMARK    2  A    between atoms: C_8  and  C_10 
REMARK    3  A    between atoms: C_10  and  N_11 
ROOT
HETATM    1  N   UNL     1     -42.491 -50.352  11.935  1.00  0.00    -0.355 N 
HETATM    2  C   UNL     1     -42.946 -49.182  12.511  1.00  0.00     0.237 C 
HETATM    3  O   UNL     1     -43.036 -49.025  13.727  1.00  0.00    -0.272 OA
HETATM    4  H   UNL     1     -42.303 -50.392  10.941  1.00  0.00     0.162 HD
ENDROOT
BRANCH   1   5
HETATM    5  C   UNL     1     -42.108 -51.499  12.752  1.00  0.00     0.088 C 
HETATM    6  C   UNL     1     -40.635 -51.854  12.502  1.00  0.00     0.025 C 
HETATM    7  C   UNL     1     -40.189 -53.055  13.331  1.00  0.00     0.002 C 
HETATM    8  C   UNL     1     -41.103 -54.260  13.120  1.00  0.00     0.005 C 
HETATM    9  C   UNL     1     -42.589 -53.938  13.354  1.00  0.00    -0.013 C 
HETATM   10  C   UNL     1     -42.876 -53.761  14.852  1.00  0.00     0.010 C 
HETATM   11  C   UNL     1     -43.015 -52.723  12.486  1.00  0.00     0.008 C 
HETATM   12  C   UNL     1     -44.501 -52.389  12.663  1.00  0.00     0.012 C 
ENDBRANCH   1   5
BRANCH   2  13
HETATM   13  C   UNL     1     -43.345 -48.096  11.544  1.00  0.00     0.249 C 
BRANCH  13  14
HETATM   14  N   UNL     1     -42.189 -47.374  11.078  1.00  0.00    -0.264 N 
HETATM   15  C   UNL     1     -42.119 -46.352  10.187  1.00  0.00     0.213 A 
HETATM   16  N   UNL     1     -40.870 -45.952  10.112  1.00  0.00    -0.281 N 
HETATM   17  N   UNL     1     -40.167 -46.753  10.984  1.00  0.00    -0.008 NA
ATOM     18  HN  UNL     1     -40.498 -45.202   9.530  1.00  0.00     0.184 HD
HETATM   19  N   UNL     1     -40.970 -47.620  11.585  1.00  0.00    -0.005 NA
ENDBRANCH  13  14
ENDBRANCH   2  13
TORSDOF 3
ENDMDL
