MODEL 1
REMARK VINA RESULT:      -6.1      0.000      0.000
REMARK  2 active torsions:
REMARK  status: ('A' for Active; 'I' for Inactive)
REMARK    1  A    between atoms: C_5  and  N_6 
REMARK       I    between atoms: N_6  and  C_7 
REMARK       I    between atoms: C_7  and  N_9 
REMARK    2  A    between atoms: N_9  and  C_10 
ROOT
HETATM    1  N   UNL     1     -43.664 -54.040  12.644  1.00  0.00    -0.295 N 
HETATM    2  C   UNL     1     -44.647 -53.112  12.843  1.00  0.00     0.322 C 
HETATM    3  O   UNL     1     -45.565 -53.014  12.031  1.00  0.00    -0.247 OA
HETATM    4  N   UNL     1     -44.523 -52.317  13.942  1.00  0.00    -0.338 N 
HETATM    5  H   UNL     1     -43.809 -54.598  11.811  1.00  0.00     0.172 HD
HETATM    6  H   UNL     1     -43.722 -52.524  14.537  1.00  0.00     0.164 HD
ENDROOT
BRANCH   1   7
HETATM    7  C   UNL     1     -42.473 -54.204  13.361  1.00  0.00     0.108 A 
HETATM    8  C   UNL     1     -42.540 -54.668  14.667  1.00  0.00     0.049 A 
HETATM    9  C   UNL     1     -41.347 -54.903  15.355  1.00  0.00     0.012 A 
HETATM   10  C   UNL     1     -40.126 -54.679  14.721  1.00  0.00    -0.046 A 
HETATM   11  C   UNL     1     -38.813 -54.948  15.379  1.00  0.00     0.049 C 
HETATM   12  C   UNL     1     -40.161 -54.190  13.426  1.00  0.00     0.096 A 
HETATM   13  N   UNL     1     -41.297 -53.948  12.744  1.00  0.00    -0.352 N 
ATOM     14  HN  UNL     1     -41.271 -53.584  11.792  1.00  0.00     0.166 HD
ENDBRANCH   1   7
BRANCH   4  15
HETATM   15  C   UNL     1     -45.324 -51.137  14.200  1.00  0.00     0.086 C 
HETATM   16  C   UNL     1     -44.718 -50.324  15.356  1.00  0.00     0.025 C 
HETATM   17  C   UNL     1     -45.138 -50.800  16.745  1.00  0.00     0.002 C 
HETATM   18  C   UNL     1     -46.654 -50.885  16.847  1.00  0.00     0.000 C 
HETATM   19  C   UNL     1     -47.193 -51.874  15.823  1.00  0.00     0.002 C 
HETATM   20  C   UNL     1     -46.806 -51.489  14.394  1.00  0.00     0.025 C 
ENDBRANCH   4  15
TORSDOF 2
ENDMDL
MODEL 2
REMARK VINA RESULT:      -6.0      2.598      3.385
REMARK  2 active torsions:
REMARK  status: ('A' for Active; 'I' for Inactive)
REMARK    1  A    between atoms: C_5  and  N_6 
REMARK       I    between atoms: N_6  and  C_7 
REMARK       I    between atoms: C_7  and  N_9 
REMARK    2  A    between atoms: N_9  and  C_10 
ROOT
HETATM    1  N   UNL     1     -43.080 -53.098  11.958  1.00  0.00    -0.295 N 
HETATM    2  C   UNL     1     -44.024 -53.613  12.802  1.00  0.00     0.322 C 
HETATM    3  O   UNL     1     -44.825 -54.447  12.383  1.00  0.00    -0.247 OA
HETATM    4  N   UNL     1     -44.032 -53.132  14.077  1.00  0.00    -0.338 N 
HETATM    5  H   UNL     1     -43.125 -53.492  11.026  1.00  0.00     0.172 HD
HETATM    6  H   UNL     1     -43.297 -52.458  14.288  1.00  0.00     0.164 HD
ENDROOT
BRANCH   1   7
HETATM    7  C   UNL     1     -42.189 -52.046  12.199  1.00  0.00     0.108 A 
HETATM    8  C   UNL     1     -40.863 -52.345  12.474  1.00  0.00     0.049 A 
HETATM    9  C   UNL     1     -39.959 -51.292  12.639  1.00  0.00     0.012 A 
HETATM   10  C   UNL     1     -40.401 -49.976  12.515  1.00  0.00    -0.046 A 
HETATM   11  C   UNL     1     -39.485 -48.802  12.635  1.00  0.00     0.049 C 
HETATM   12  C   UNL     1     -41.748 -49.776  12.264  1.00  0.00     0.096 A 
HETATM   13  N   UNL     1     -42.639 -50.774  12.109  1.00  0.00    -0.352 N 
ATOM     14  HN  UNL     1     -43.624 -50.576  11.930  1.00  0.00     0.166 HD
ENDBRANCH   1   7
BRANCH   4  15
HETATM   15  C   UNL     1     -45.085 -53.375  15.042  1.00  0.00     0.086 C 
HETATM   16  C   UNL     1     -46.435 -52.885  14.493  1.00  0.00     0.025 C 
HETATM   17  C   UNL     1     -46.700 -51.398  14.714  1.00  0.00     0.002 C 
HETATM   18  C   UNL     1     -46.521 -51.033  16.180  1.00  0.00     0.000 C 
HETATM   19  C   UNL     1     -45.096 -51.333  16.624  1.00  0.00     0.002 C 
HETATM   20  C   UNL     1     -44.730 -52.804  16.423  1.00  0.00     0.025 C 
ENDBRANCH   4  15
TORSDOF 2
ENDMDL
MODEL 3
REMARK VINA RESULT:      -6.0      4.371      5.686
REMARK  2 active torsions:
REMARK  status: ('A' for Active; 'I' for Inactive)
REMARK    1  A    between atoms: C_5  and  N_6 
REMARK       I    between atoms: N_6  and  C_7 
REMARK       I    between atoms: C_7  and  N_9 
REMARK    2  A    between atoms: N_9  and  C_10 
ROOT
HETATM    1  N   UNL     1     -40.210 -51.094  11.499  1.00  0.00    -0.295 N 
HETATM    2  C   UNL     1     -40.863 -52.005  12.282  1.00  0.00     0.322 C 
HETATM    3  O   UNL     1     -40.597 -53.201  12.174  1.00  0.00    -0.247 OA
HETATM    4  N   UNL     1     -41.811 -51.515  13.129  1.00  0.00    -0.338 N 
HETATM    5  H   UNL     1     -39.520 -51.517  10.890  1.00  0.00     0.172 HD
HETATM    6  H   UNL     1     -41.910 -50.501  13.124  1.00  0.00     0.164 HD
ENDROOT
BRANCH   1   7
HETATM    7  C   UNL     1     -40.472 -49.726  11.366  1.00  0.00     0.108 A 
HETATM    8  C   UNL     1     -39.590 -48.819  11.937  1.00  0.00     0.049 A 
HETATM    9  C   UNL     1     -39.811 -47.454  11.739  1.00  0.00     0.012 A 
HETATM   10  C   UNL     1     -40.896 -47.033  10.971  1.00  0.00    -0.046 A 
HETATM   11  C   UNL     1     -41.171 -45.594  10.681  1.00  0.00     0.049 C 
HETATM   12  C   UNL     1     -41.736 -48.011  10.464  1.00  0.00     0.096 A 
HETATM   13  N   UNL     1     -41.548 -49.332  10.648  1.00  0.00    -0.352 N 
ATOM     14  HN  UNL     1     -42.197 -50.014  10.257  1.00  0.00     0.166 HD
ENDBRANCH   1   7
BRANCH   4  15
HETATM   15  C   UNL     1     -42.761 -52.329  13.860  1.00  0.00     0.086 C 
HETATM   16  C   UNL     1     -44.023 -52.565  13.013  1.00  0.00     0.025 C 
HETATM   17  C   UNL     1     -45.055 -51.443  13.099  1.00  0.00     0.002 C 
HETATM   18  C   UNL     1     -45.397 -51.138  14.550  1.00  0.00     0.000 C 
HETATM   19  C   UNL     1     -44.149 -50.694  15.301  1.00  0.00     0.002 C 
HETATM   20  C   UNL     1     -43.045 -51.751  15.255  1.00  0.00     0.025 C 
ENDBRANCH   4  15
TORSDOF 2
ENDMDL
MODEL 4
REMARK VINA RESULT:      -5.9      2.386      3.159
REMARK  2 active torsions:
REMARK  status: ('A' for Active; 'I' for Inactive)
REMARK    1  A    between atoms: C_5  and  N_6 
REMARK       I    between atoms: N_6  and  C_7 
REMARK       I    between atoms: C_7  and  N_9 
REMARK    2  A    between atoms: N_9  and  C_10 
ROOT
HETATM    1  N   UNL     1     -42.044 -54.492  14.318  1.00  0.00    -0.295 N 
HETATM    2  C   UNL     1     -43.320 -54.733  14.744  1.00  0.00     0.322 C 
HETATM    3  O   UNL     1     -43.627 -55.854  15.145  1.00  0.00    -0.247 OA
HETATM    4  N   UNL     1     -44.197 -53.694  14.664  1.00  0.00    -0.338 N 
HETATM    5  H   UNL     1     -41.440 -55.301  14.399  1.00  0.00     0.172 HD
HETATM    6  H   UNL     1     -43.799 -52.818  14.329  1.00  0.00     0.164 HD
ENDROOT
BRANCH   1   7
HETATM    7  C   UNL     1     -41.544 -53.344  13.694  1.00  0.00     0.108 A 
HETATM    8  C   UNL     1     -40.832 -52.428  14.455  1.00  0.00     0.049 A 
HETATM    9  C   UNL     1     -40.269 -51.320  13.816  1.00  0.00     0.012 A 
HETATM   10  C   UNL     1     -40.424 -51.163  12.439  1.00  0.00    -0.046 A 
HETATM   11  C   UNL     1     -39.815 -50.029  11.682  1.00  0.00     0.049 C 
HETATM   12  C   UNL     1     -41.174 -52.115  11.769  1.00  0.00     0.096 A 
HETATM   13  N   UNL     1     -41.733 -53.187  12.364  1.00  0.00    -0.352 N 
ATOM     14  HN  UNL     1     -42.281 -53.859  11.828  1.00  0.00     0.166 HD
ENDBRANCH   1   7
BRANCH   4  15
HETATM   15  C   UNL     1     -45.630 -53.810  14.844  1.00  0.00     0.086 C 
HETATM   16  C   UNL     1     -46.369 -52.941  13.812  1.00  0.00     0.025 C 
HETATM   17  C   UNL     1     -46.528 -51.479  14.221  1.00  0.00     0.002 C 
HETATM   18  C   UNL     1     -47.157 -51.373  15.602  1.00  0.00     0.000 C 
HETATM   19  C   UNL     1     -46.275 -52.062  16.634  1.00  0.00     0.002 C 
HETATM   20  C   UNL     1     -46.043 -53.536  16.298  1.00  0.00     0.025 C 
ENDBRANCH   4  15
TORSDOF 2
ENDMDL
MODEL 5
REMARK VINA RESULT:      -5.9      8.047      9.687
REMARK  2 active torsions:
REMARK  status: ('A' for Active; 'I' for Inactive)
REMARK    1  A    between atoms: C_5  and  N_6 
REMARK       I    between atoms: N_6  and  C_7 
REMARK       I    between atoms: C_7  and  N_9 
REMARK    2  A    between atoms: N_9  and  C_10 
ROOT
HETATM    1  N   UNL     1     -40.856 -46.351  10.210  1.00  0.00    -0.295 N 
HETATM    2  C   UNL     1     -40.425 -45.146  10.692  1.00  0.00     0.322 C 
HETATM    3  O   UNL     1     -39.246 -45.006  11.013  1.00  0.00    -0.247 OA
HETATM    4  N   UNL     1     -41.363 -44.166  10.814  1.00  0.00    -0.338 N 
HETATM    5  H   UNL     1     -40.116 -47.039  10.144  1.00  0.00     0.172 HD
HETATM    6  H   UNL     1     -42.296 -44.419  10.491  1.00  0.00     0.164 HD
ENDROOT
BRANCH   1   7
HETATM    7  C   UNL     1     -42.169 -46.751   9.935  1.00  0.00     0.108 A 
HETATM    8  C   UNL     1     -42.894 -47.387  10.932  1.00  0.00     0.049 A 
HETATM    9  C   UNL     1     -44.228 -47.718  10.681  1.00  0.00     0.012 A 
HETATM   10  C   UNL     1     -44.802 -47.398   9.452  1.00  0.00    -0.046 A 
HETATM   11  C   UNL     1     -46.232 -47.681   9.128  1.00  0.00     0.049 C 
HETATM   12  C   UNL     1     -43.990 -46.787   8.510  1.00  0.00     0.096 A 
HETATM   13  N   UNL     1     -42.700 -46.465   8.725  1.00  0.00    -0.352 N 
ATOM     14  HN  UNL     1     -42.141 -46.019   7.998  1.00  0.00     0.166 HD
ENDBRANCH   1   7
BRANCH   4  15
HETATM   15  C   UNL     1     -41.159 -42.913  11.512  1.00  0.00     0.086 C 
HETATM   16  C   UNL     1     -41.345 -43.111  13.026  1.00  0.00     0.025 C 
HETATM   17  C   UNL     1     -42.795 -43.031  13.496  1.00  0.00     0.002 C 
HETATM   18  C   UNL     1     -43.447 -41.746  13.010  1.00  0.00     0.000 C 
HETATM   19  C   UNL     1     -43.438 -41.696  11.488  1.00  0.00     0.002 C 
HETATM   20  C   UNL     1     -42.021 -41.788  10.920  1.00  0.00     0.025 C 
ENDBRANCH   4  15
TORSDOF 2
ENDMDL
MODEL 6
REMARK VINA RESULT:      -5.9      2.140      6.052
REMARK  2 active torsions:
REMARK  status: ('A' for Active; 'I' for Inactive)
REMARK    1  A    between atoms: C_5  and  N_6 
REMARK       I    between atoms: N_6  and  C_7 
REMARK       I    between atoms: C_7  and  N_9 
REMARK    2  A    between atoms: N_9  and  C_10 
ROOT
HETATM    1  N   UNL     1     -43.088 -50.199  12.543  1.00  0.00    -0.295 N 
HETATM    2  C   UNL     1     -41.847 -50.749  12.380  1.00  0.00     0.322 C 
HETATM    3  O   UNL     1     -41.102 -50.320  11.500  1.00  0.00    -0.247 OA
HETATM    4  N   UNL     1     -41.523 -51.783  13.205  1.00  0.00    -0.338 N 
HETATM    5  H   UNL     1     -43.272 -49.438  11.901  1.00  0.00     0.172 HD
HETATM    6  H   UNL     1     -42.231 -52.019  13.899  1.00  0.00     0.164 HD
ENDROOT
BRANCH   1   7
HETATM    7  C   UNL     1     -44.124 -50.640  13.374  1.00  0.00     0.108 A 
HETATM    8  C   UNL     1     -44.017 -50.430  14.742  1.00  0.00     0.049 A 
HETATM    9  C   UNL     1     -45.085 -50.801  15.562  1.00  0.00     0.012 A 
HETATM   10  C   UNL     1     -46.230 -51.360  14.996  1.00  0.00    -0.046 A 
HETATM   11  C   UNL     1     -47.427 -51.742  15.804  1.00  0.00     0.049 C 
HETATM   12  C   UNL     1     -46.233 -51.555  13.624  1.00  0.00     0.096 A 
HETATM   13  N   UNL     1     -45.214 -51.213  12.814  1.00  0.00    -0.352 N 
ATOM     14  HN  UNL     1     -45.261 -51.380  11.810  1.00  0.00     0.166 HD
ENDBRANCH   1   7
BRANCH   4  15
HETATM   15  C   UNL     1     -40.365 -52.638  13.038  1.00  0.00     0.086 C 
HETATM   16  C   UNL     1     -40.738 -54.102  13.329  1.00  0.00     0.025 C 
HETATM   17  C   UNL     1     -40.691 -54.480  14.807  1.00  0.00     0.002 C 
HETATM   18  C   UNL     1     -39.346 -54.109  15.413  1.00  0.00     0.000 C 
HETATM   19  C   UNL     1     -39.116 -52.608  15.299  1.00  0.00     0.002 C 
HETATM   20  C   UNL     1     -39.163 -52.129  13.848  1.00  0.00     0.025 C 
ENDBRANCH   4  15
TORSDOF 2
ENDMDL
MODEL 7
REMARK VINA RESULT:      -5.8      3.511      4.716
REMARK  2 active torsions:
REMARK  status: ('A' for Active; 'I' for Inactive)
REMARK    1  A    between atoms: C_5  and  N_6 
REMARK       I    between atoms: N_6  and  C_7 
REMARK       I    between atoms: C_7  and  N_9 
REMARK    2  A    between atoms: N_9  and  C_10 
ROOT
HETATM    1  N   UNL     1     -40.858 -51.770  11.425  1.00  0.00    -0.295 N 
HETATM    2  C   UNL     1     -40.526 -50.481  11.735  1.00  0.00     0.322 C 
HETATM    3  O   UNL     1     -39.610 -49.926  11.130  1.00  0.00    -0.247 OA
HETATM    4  N   UNL     1     -41.232 -49.892  12.740  1.00  0.00    -0.338 N 
HETATM    5  H   UNL     1     -40.299 -52.153  10.673  1.00  0.00     0.172 HD
HETATM    6  H   UNL     1     -41.975 -50.465  13.138  1.00  0.00     0.164 HD
ENDROOT
BRANCH   1   7
HETATM    7  C   UNL     1     -41.755 -52.614  12.090  1.00  0.00     0.108 A 
HETATM    8  C   UNL     1     -41.279 -53.418  13.115  1.00  0.00     0.049 A 
HETATM    9  C   UNL     1     -42.189 -54.203  13.827  1.00  0.00     0.012 A 
HETATM   10  C   UNL     1     -43.545 -54.157  13.504  1.00  0.00    -0.046 A 
HETATM   11  C   UNL     1     -44.580 -54.934  14.249  1.00  0.00     0.049 C 
HETATM   12  C   UNL     1     -43.921 -53.343  12.448  1.00  0.00     0.096 A 
HETATM   13  N   UNL     1     -43.062 -52.584  11.742  1.00  0.00    -0.352 N 
ATOM     14  HN  UNL     1     -43.386 -52.004  10.969  1.00  0.00     0.166 HD
ENDBRANCH   1   7
BRANCH   4  15
HETATM   15  C   UNL     1     -40.882 -48.633  13.364  1.00  0.00     0.086 C 
HETATM   16  C   UNL     1     -41.314 -48.632  14.841  1.00  0.00     0.025 C 
HETATM   17  C   UNL     1     -42.770 -48.236  15.069  1.00  0.00     0.002 C 
HETATM   18  C   UNL     1     -43.079 -46.910  14.390  1.00  0.00     0.000 C 
HETATM   19  C   UNL     1     -42.846 -47.023  12.889  1.00  0.00     0.002 C 
HETATM   20  C   UNL     1     -41.411 -47.435  12.560  1.00  0.00     0.025 C 
ENDBRANCH   4  15
TORSDOF 2
ENDMDL
MODEL 8
REMARK VINA RESULT:      -5.8      6.371      7.120
REMARK  2 active torsions:
REMARK  status: ('A' for Active; 'I' for Inactive)
REMARK    1  A    between atoms: C_5  and  N_6 
REMARK       I    between atoms: N_6  and  C_7 
REMARK       I    between atoms: C_7  and  N_9 
REMARK    2  A    between atoms: N_9  and  C_10 
ROOT
HETATM    1  N   UNL     1     -41.628 -49.245  10.640  1.00  0.00    -0.295 N 
HETATM    2  C   UNL     1     -41.982 -47.983  10.254  1.00  0.00     0.322 C 
HETATM    3  O   UNL     1     -42.909 -47.827   9.460  1.00  0.00    -0.247 OA
HETATM    4  N   UNL     1     -41.245 -46.958  10.765  1.00  0.00    -0.338 N 
HETATM    5  H   UNL     1     -42.209 -49.964  10.227  1.00  0.00     0.172 HD
HETATM    6  H   UNL     1     -40.521 -47.235  11.426  1.00  0.00     0.164 HD
ENDROOT
BRANCH   1   7
HETATM    7  C   UNL     1     -40.523 -49.635  11.406  1.00  0.00     0.108 A 
HETATM    8  C   UNL     1     -40.723 -49.992  12.732  1.00  0.00     0.049 A 
HETATM    9  C   UNL     1     -39.632 -50.453  13.473  1.00  0.00     0.012 A 
HETATM   10  C   UNL     1     -38.379 -50.555  12.870  1.00  0.00    -0.046 A 
HETATM   11  C   UNL     1     -37.178 -51.080  13.586  1.00  0.00     0.049 C 
HETATM   12  C   UNL     1     -38.273 -50.150  11.549  1.00  0.00     0.096 A 
HETATM   13  N   UNL     1     -39.307 -49.695  10.817  1.00  0.00    -0.352 N 
ATOM     14  HN  UNL     1     -39.178 -49.405   9.848  1.00  0.00     0.166 HD
ENDBRANCH   1   7
BRANCH   4  15
HETATM   15  C   UNL     1     -41.312 -45.586  10.304  1.00  0.00     0.086 C 
HETATM   16  C   UNL     1     -39.922 -44.931  10.378  1.00  0.00     0.025 C 
HETATM   17  C   UNL     1     -39.571 -44.357  11.748  1.00  0.00     0.002 C 
HETATM   18  C   UNL     1     -40.664 -43.418  12.233  1.00  0.00     0.000 C 
HETATM   19  C   UNL     1     -41.983 -44.168  12.356  1.00  0.00     0.002 C 
HETATM   20  C   UNL     1     -42.412 -44.796  11.030  1.00  0.00     0.025 C 
ENDBRANCH   4  15
TORSDOF 2
ENDMDL
MODEL 9
REMARK VINA RESULT:      -5.8      4.289      5.991
REMARK  2 active torsions:
REMARK  status: ('A' for Active; 'I' for Inactive)
REMARK    1  A    between atoms: C_5  and  N_6 
REMARK       I    between atoms: N_6  and  C_7 
REMARK       I    between atoms: C_7  and  N_9 
REMARK    2  A    between atoms: N_9  and  C_10 
ROOT
HETATM    1  N   UNL     1     -41.583 -51.529  12.722  1.00  0.00    -0.295 N 
HETATM    2  C   UNL     1     -41.011 -50.609  11.888  1.00  0.00     0.322 C 
HETATM    3  O   UNL     1     -39.806 -50.670  11.649  1.00  0.00    -0.247 OA
HETATM    4  N   UNL     1     -41.831 -49.643  11.389  1.00  0.00    -0.338 N 
HETATM    5  H   UNL     1     -40.925 -52.219  13.061  1.00  0.00     0.172 HD
HETATM    6  H   UNL     1     -42.811 -49.728  11.658  1.00  0.00     0.164 HD
ENDROOT
BRANCH   1   7
HETATM    7  C   UNL     1     -42.887 -51.540  13.230  1.00  0.00     0.108 A 
HETATM    8  C   UNL     1     -43.166 -50.797  14.368  1.00  0.00     0.049 A 
HETATM    9  C   UNL     1     -44.483 -50.749  14.830  1.00  0.00     0.012 A 
HETATM   10  C   UNL     1     -45.484 -51.432  14.140  1.00  0.00    -0.046 A 
HETATM   11  C   UNL     1     -46.920 -51.391  14.550  1.00  0.00     0.049 C 
HETATM   12  C   UNL     1     -45.104 -52.168  13.030  1.00  0.00     0.096 A 
HETATM   13  N   UNL     1     -43.840 -52.237  12.570  1.00  0.00    -0.352 N 
ATOM     14  HN  UNL     1     -43.609 -52.796  11.750  1.00  0.00     0.166 HD
ENDBRANCH   1   7
BRANCH   4  15
HETATM   15  C   UNL     1     -41.378 -48.459  10.687  1.00  0.00     0.086 C 
HETATM   16  C   UNL     1     -40.730 -47.471  11.671  1.00  0.00     0.025 C 
HETATM   17  C   UNL     1     -41.721 -46.556  12.385  1.00  0.00     0.002 C 
HETATM   18  C   UNL     1     -42.617 -45.847  11.381  1.00  0.00     0.000 C 
HETATM   19  C   UNL     1     -43.409 -46.867  10.574  1.00  0.00     0.002 C 
HETATM   20  C   UNL     1     -42.497 -47.844   9.832  1.00  0.00     0.025 C 
ENDBRANCH   4  15
TORSDOF 2
ENDMDL
