MODEL 1
REMARK VINA RESULT:      -5.6      0.000      0.000
REMARK  4 active torsions:
REMARK  status: ('A' for Active; 'I' for Inactive)
REMARK    1  A    between atoms: N_2  and  C_4 
REMARK    2  A    between atoms: C_4  and  C_5 
REMARK    3  A    between atoms: C_5  and  N_6 
REMARK       I    between atoms: N_6  and  C_7 
REMARK       I    between atoms: C_7  and  N_9 
REMARK    4  A    between atoms: N_9  and  C_10 
ROOT
HETATM    1  N   UNL     1     -42.924 -49.538  12.049  1.00  0.00    -0.340 N 
HETATM    2  C   UNL     1     -43.554 -50.235  13.050  1.00  0.00     0.320 C 
HETATM    3  O   UNL     1     -43.103 -50.280  14.189  1.00  0.00    -0.247 OA
HETATM    4  N   UNL     1     -44.711 -50.845  12.623  1.00  0.00    -0.308 N 
HETATM    5  H   UNL     1     -43.246 -49.639  11.101  1.00  0.00     0.164 HD
HETATM    6  H   UNL     1     -45.155 -50.444  11.810  1.00  0.00     0.170 HD
ENDROOT
BRANCH   1   7
HETATM    7  C   UNL     1     -41.657 -48.860  12.289  1.00  0.00     0.166 C 
BRANCH   7   8
HETATM    8  C   UNL     1     -41.629 -47.306  12.039  1.00  0.00     0.178 C 
HETATM    9  C   UNL     1     -40.291 -47.000  11.285  1.00  0.00     0.069 C 
HETATM   10  C   UNL     1     -40.224 -45.550  10.818  1.00  0.00     0.170 C 
HETATM   11  O   UNL     1     -41.289 -45.276   9.910  1.00  0.00    -0.391 OA
HETATM   12  C   UNL     1     -42.566 -45.462  10.520  1.00  0.00     0.170 C 
HETATM   13  C   UNL     1     -42.734 -46.896  11.016  1.00  0.00     0.069 C 
BRANCH   8  14
HETATM   14  N   UNL     1     -41.704 -46.476  13.290  1.00  0.00     0.091 N 
HETATM   15  C   UNL     1     -43.011 -46.390  13.938  1.00  0.00     0.310 C 
HETATM   16  C   UNL     1     -40.686 -46.776  14.301  1.00  0.00     0.310 C 
ENDBRANCH   8  14
ENDBRANCH   7   8
ENDBRANCH   1   7
BRANCH   4  17
HETATM   17  C   UNL     1     -45.476 -51.747  13.400  1.00  0.00     0.051 A 
HETATM   18  C   UNL     1     -46.284 -51.346  14.462  1.00  0.00     0.032 A 
HETATM   19  C   UNL     1     -47.036 -52.282  15.165  1.00  0.00     0.019 A 
HETATM   20  C   UNL     1     -46.945 -53.610  14.790  1.00  0.00     0.088 A 
HETATM   21  N   UNL     1     -46.148 -54.053  13.794  1.00  0.00    -0.373 N 
HETATM   22  C   UNL     1     -45.433 -53.112  13.127  1.00  0.00     0.117 A 
ATOM     23  HN  UNL     1     -46.087 -55.042  13.555  1.00  0.00     0.164 HD
ENDBRANCH   4  17
TORSDOF 4
ENDMDL
MODEL 2
REMARK VINA RESULT:      -5.6      1.799      2.117
REMARK  4 active torsions:
REMARK  status: ('A' for Active; 'I' for Inactive)
REMARK    1  A    between atoms: N_2  and  C_4 
REMARK    2  A    between atoms: C_4  and  C_5 
REMARK    3  A    between atoms: C_5  and  N_6 
REMARK       I    between atoms: N_6  and  C_7 
REMARK       I    between atoms: C_7  and  N_9 
REMARK    4  A    between atoms: N_9  and  C_10 
ROOT
HETATM    1  N   UNL     1     -41.177 -50.215  11.394  1.00  0.00    -0.340 N 
HETATM    2  C   UNL     1     -41.798 -50.939  12.381  1.00  0.00     0.320 C 
HETATM    3  O   UNL     1     -41.732 -50.612  13.561  1.00  0.00    -0.247 OA
HETATM    4  N   UNL     1     -42.477 -52.030  11.890  1.00  0.00    -0.308 N 
HETATM    5  H   UNL     1     -41.136 -50.590  10.461  1.00  0.00     0.164 HD
HETATM    6  H   UNL     1     -42.761 -51.982  10.923  1.00  0.00     0.170 HD
ENDROOT
BRANCH   1   7
HETATM    7  C   UNL     1     -40.367 -49.048  11.715  1.00  0.00     0.166 C 
BRANCH   7   8
HETATM    8  C   UNL     1     -41.071 -47.644  11.597  1.00  0.00     0.178 C 
HETATM    9  C   UNL     1     -40.013 -46.665  10.989  1.00  0.00     0.069 C 
HETATM   10  C   UNL     1     -40.625 -45.309  10.651  1.00  0.00     0.170 C 
HETATM   11  O   UNL     1     -41.658 -45.465   9.680  1.00  0.00    -0.391 OA
HETATM   12  C   UNL     1     -42.715 -46.296  10.161  1.00  0.00     0.170 C 
HETATM   13  C   UNL     1     -42.199 -47.687  10.521  1.00  0.00     0.069 C 
BRANCH   8  14
HETATM   14  N   UNL     1     -41.577 -47.094  12.901  1.00  0.00     0.091 N 
HETATM   15  C   UNL     1     -42.926 -47.495  13.299  1.00  0.00     0.310 C 
HETATM   16  C   UNL     1     -40.672 -47.258  14.042  1.00  0.00     0.310 C 
ENDBRANCH   8  14
ENDBRANCH   7   8
ENDBRANCH   1   7
BRANCH   4  17
HETATM   17  C   UNL     1     -43.076 -53.030  12.693  1.00  0.00     0.051 A 
HETATM   18  C   UNL     1     -42.356 -53.833  13.576  1.00  0.00     0.032 A 
HETATM   19  C   UNL     1     -43.012 -54.776  14.362  1.00  0.00     0.019 A 
HETATM   20  C   UNL     1     -44.383 -54.900  14.228  1.00  0.00     0.088 A 
HETATM   21  N   UNL     1     -45.119 -54.172  13.360  1.00  0.00    -0.373 N 
HETATM   22  C   UNL     1     -44.447 -53.259  12.615  1.00  0.00     0.117 A 
ATOM     23  HN  UNL     1     -46.126 -54.301  13.270  1.00  0.00     0.164 HD
ENDBRANCH   4  17
TORSDOF 4
ENDMDL
MODEL 3
REMARK VINA RESULT:      -5.6      2.374      7.244
REMARK  4 active torsions:
REMARK  status: ('A' for Active; 'I' for Inactive)
REMARK    1  A    between atoms: N_2  and  C_4 
REMARK    2  A    between atoms: C_4  and  C_5 
REMARK    3  A    between atoms: C_5  and  N_6 
REMARK       I    between atoms: N_6  and  C_7 
REMARK       I    between atoms: C_7  and  N_9 
REMARK    4  A    between atoms: N_9  and  C_10 
ROOT
HETATM    1  N   UNL     1     -41.954 -51.316  11.879  1.00  0.00    -0.340 N 
HETATM    2  C   UNL     1     -41.700 -49.983  12.085  1.00  0.00     0.320 C 
HETATM    3  O   UNL     1     -41.308 -49.560  13.166  1.00  0.00    -0.247 OA
HETATM    4  N   UNL     1     -41.930 -49.221  10.963  1.00  0.00    -0.308 N 
HETATM    5  H   UNL     1     -42.405 -51.605  11.027  1.00  0.00     0.164 HD
HETATM    6  H   UNL     1     -41.884 -49.703  10.077  1.00  0.00     0.170 HD
ENDROOT
BRANCH   1   7
HETATM    7  C   UNL     1     -41.815 -52.283  12.960  1.00  0.00     0.166 C 
BRANCH   7   8
HETATM    8  C   UNL     1     -43.148 -52.802  13.619  1.00  0.00     0.178 C 
HETATM    9  C   UNL     1     -44.256 -52.708  12.518  1.00  0.00     0.069 C 
HETATM   10  C   UNL     1     -45.562 -53.354  12.972  1.00  0.00     0.170 C 
HETATM   11  O   UNL     1     -45.356 -54.739  13.243  1.00  0.00    -0.391 OA
HETATM   12  C   UNL     1     -44.403 -54.938  14.287  1.00  0.00     0.170 C 
HETATM   13  C   UNL     1     -43.052 -54.329  13.920  1.00  0.00     0.069 C 
BRANCH   8  14
HETATM   14  N   UNL     1     -43.578 -52.029  14.835  1.00  0.00     0.091 N 
HETATM   15  C   UNL     1     -42.557 -51.796  15.855  1.00  0.00     0.310 C 
HETATM   16  C   UNL     1     -44.278 -50.771  14.560  1.00  0.00     0.310 C 
ENDBRANCH   8  14
ENDBRANCH   7   8
ENDBRANCH   1   7
BRANCH   4  17
HETATM   17  C   UNL     1     -41.896 -47.807  10.934  1.00  0.00     0.051 A 
HETATM   18  C   UNL     1     -40.712 -47.071  10.888  1.00  0.00     0.032 A 
HETATM   19  C   UNL     1     -40.750 -45.682  10.828  1.00  0.00     0.019 A 
HETATM   20  C   UNL     1     -41.985 -45.060  10.832  1.00  0.00     0.088 A 
HETATM   21  N   UNL     1     -43.158 -45.726  10.913  1.00  0.00    -0.373 N 
HETATM   22  C   UNL     1     -43.083 -47.080  10.964  1.00  0.00     0.117 A 
ATOM     23  HN  UNL     1     -44.053 -45.237  10.935  1.00  0.00     0.164 HD
ENDBRANCH   4  17
TORSDOF 4
ENDMDL
MODEL 4
REMARK VINA RESULT:      -5.6      2.887      3.932
REMARK  4 active torsions:
REMARK  status: ('A' for Active; 'I' for Inactive)
REMARK    1  A    between atoms: N_2  and  C_4 
REMARK    2  A    between atoms: C_4  and  C_5 
REMARK    3  A    between atoms: C_5  and  N_6 
REMARK       I    between atoms: N_6  and  C_7 
REMARK       I    between atoms: C_7  and  N_9 
REMARK    4  A    between atoms: N_9  and  C_10 
ROOT
HETATM    1  N   UNL     1     -41.736 -50.896  11.724  1.00  0.00    -0.340 N 
HETATM    2  C   UNL     1     -42.724 -51.367  12.552  1.00  0.00     0.320 C 
HETATM    3  O   UNL     1     -43.075 -50.754  13.553  1.00  0.00    -0.247 OA
HETATM    4  N   UNL     1     -43.247 -52.566  12.123  1.00  0.00    -0.308 N 
HETATM    5  H   UNL     1     -41.380 -51.492  10.995  1.00  0.00     0.164 HD
HETATM    6  H   UNL     1     -43.151 -52.770  11.140  1.00  0.00     0.170 HD
ENDROOT
BRANCH   1   7
HETATM    7  C   UNL     1     -41.023 -49.664  12.031  1.00  0.00     0.166 C 
BRANCH   7   8
HETATM    8  C   UNL     1     -39.551 -49.813  12.571  1.00  0.00     0.178 C 
HETATM    9  C   UNL     1     -39.421 -51.277  13.110  1.00  0.00     0.069 C 
HETATM   10  C   UNL     1     -37.984 -51.612  13.496  1.00  0.00     0.170 C 
HETATM   11  O   UNL     1     -37.132 -51.507  12.356  1.00  0.00    -0.391 OA
HETATM   12  C   UNL     1     -37.126 -50.185  11.819  1.00  0.00     0.170 C 
HETATM   13  C   UNL     1     -38.529 -49.758  11.393  1.00  0.00     0.069 C 
BRANCH   8  14
HETATM   14  N   UNL     1     -39.189 -48.841  13.658  1.00  0.00     0.091 N 
HETATM   15  C   UNL     1     -39.089 -47.435  13.270  1.00  0.00     0.310 C 
HETATM   16  C   UNL     1     -39.989 -48.945  14.881  1.00  0.00     0.310 C 
ENDBRANCH   8  14
ENDBRANCH   7   8
ENDBRANCH   1   7
BRANCH   4  17
HETATM   17  C   UNL     1     -44.167 -53.349  12.861  1.00  0.00     0.051 A 
HETATM   18  C   UNL     1     -43.790 -54.455  13.621  1.00  0.00     0.032 A 
HETATM   19  C   UNL     1     -44.741 -55.162  14.350  1.00  0.00     0.019 A 
HETATM   20  C   UNL     1     -46.058 -54.747  14.284  1.00  0.00     0.088 A 
HETATM   21  N   UNL     1     -46.478 -53.706  13.533  1.00  0.00    -0.373 N 
HETATM   22  C   UNL     1     -45.523 -53.036  12.840  1.00  0.00     0.117 A 
ATOM     23  HN  UNL     1     -47.461 -53.437  13.489  1.00  0.00     0.164 HD
ENDBRANCH   4  17
TORSDOF 4
ENDMDL
MODEL 5
REMARK VINA RESULT:      -5.5      1.368      2.180
REMARK  4 active torsions:
REMARK  status: ('A' for Active; 'I' for Inactive)
REMARK    1  A    between atoms: N_2  and  C_4 
REMARK    2  A    between atoms: C_4  and  C_5 
REMARK    3  A    between atoms: C_5  and  N_6 
REMARK       I    between atoms: N_6  and  C_7 
REMARK       I    between atoms: C_7  and  N_9 
REMARK    4  A    between atoms: N_9  and  C_10 
ROOT
HETATM    1  N   UNL     1     -43.641 -49.549  12.399  1.00  0.00    -0.340 N 
HETATM    2  C   UNL     1     -44.132 -50.511  13.246  1.00  0.00     0.320 C 
HETATM    3  O   UNL     1     -43.947 -50.462  14.456  1.00  0.00    -0.247 OA
HETATM    4  N   UNL     1     -44.834 -51.492  12.583  1.00  0.00    -0.308 N 
HETATM    5  H   UNL     1     -43.692 -49.696  11.404  1.00  0.00     0.164 HD
HETATM    6  H   UNL     1     -45.222 -51.236  11.687  1.00  0.00     0.170 HD
ENDROOT
BRANCH   1   7
HETATM    7  C   UNL     1     -42.829 -48.449  12.902  1.00  0.00     0.166 C 
BRANCH   7   8
HETATM    8  C   UNL     1     -42.224 -47.469  11.828  1.00  0.00     0.178 C 
HETATM    9  C   UNL     1     -43.135 -47.578  10.561  1.00  0.00     0.069 C 
HETATM   10  C   UNL     1     -42.764 -46.540   9.506  1.00  0.00     0.170 C 
HETATM   11  O   UNL     1     -42.933 -45.224  10.032  1.00  0.00    -0.391 OA
HETATM   12  C   UNL     1     -42.093 -44.994  11.163  1.00  0.00     0.170 C 
HETATM   13  C   UNL     1     -42.395 -45.986  12.283  1.00  0.00     0.069 C 
BRANCH   8  14
HETATM   14  N   UNL     1     -40.798 -47.766  11.453  1.00  0.00     0.091 N 
HETATM   15  C   UNL     1     -39.772 -47.352  12.408  1.00  0.00     0.310 C 
HETATM   16  C   UNL     1     -40.537 -49.146  11.037  1.00  0.00     0.310 C 
ENDBRANCH   8  14
ENDBRANCH   7   8
ENDBRANCH   1   7
BRANCH   4  17
HETATM   17  C   UNL     1     -45.317 -52.678  13.185  1.00  0.00     0.051 A 
HETATM   18  C   UNL     1     -44.623 -53.887  13.157  1.00  0.00     0.032 A 
HETATM   19  C   UNL     1     -45.141 -55.008  13.798  1.00  0.00     0.019 A 
HETATM   20  C   UNL     1     -46.358 -54.890  14.443  1.00  0.00     0.088 A 
HETATM   21  N   UNL     1     -47.085 -53.752  14.466  1.00  0.00    -0.373 N 
HETATM   22  C   UNL     1     -46.548 -52.678  13.835  1.00  0.00     0.117 A 
ATOM     23  HN  UNL     1     -47.990 -53.703  14.933  1.00  0.00     0.164 HD
ENDBRANCH   4  17
TORSDOF 4
ENDMDL
MODEL 6
REMARK VINA RESULT:      -5.3      3.304      7.463
REMARK  4 active torsions:
REMARK  status: ('A' for Active; 'I' for Inactive)
REMARK    1  A    between atoms: N_2  and  C_4 
REMARK    2  A    between atoms: C_4  and  C_5 
REMARK    3  A    between atoms: C_5  and  N_6 
REMARK       I    between atoms: N_6  and  C_7 
REMARK       I    between atoms: C_7  and  N_9 
REMARK    4  A    between atoms: N_9  and  C_10 
ROOT
HETATM    1  N   UNL     1     -43.524 -50.681  13.439  1.00  0.00    -0.340 N 
HETATM    2  C   UNL     1     -42.344 -51.019  12.825  1.00  0.00     0.320 C 
HETATM    3  O   UNL     1     -42.221 -52.059  12.188  1.00  0.00    -0.247 OA
HETATM    4  N   UNL     1     -41.362 -50.073  13.010  1.00  0.00    -0.308 N 
HETATM    5  H   UNL     1     -43.545 -49.894  14.066  1.00  0.00     0.164 HD
HETATM    6  H   UNL     1     -41.676 -49.136  13.216  1.00  0.00     0.170 HD
ENDROOT
BRANCH   1   7
HETATM    7  C   UNL     1     -44.673 -51.576  13.401  1.00  0.00     0.166 C 
BRANCH   7   8
HETATM    8  C   UNL     1     -45.359 -51.906  14.780  1.00  0.00     0.178 C 
HETATM    9  C   UNL     1     -44.690 -50.974  15.844  1.00  0.00     0.069 C 
HETATM   10  C   UNL     1     -45.393 -51.063  17.195  1.00  0.00     0.170 C 
HETATM   11  O   UNL     1     -46.752 -50.649  17.070  1.00  0.00    -0.391 OA
HETATM   12  C   UNL     1     -47.477 -51.480  16.164  1.00  0.00     0.170 C 
HETATM   13  C   UNL     1     -46.851 -51.451  14.772  1.00  0.00     0.069 C 
BRANCH   8  14
HETATM   14  N   UNL     1     -45.225 -53.340  15.210  1.00  0.00     0.091 N 
HETATM   15  C   UNL     1     -46.035 -54.317  14.484  1.00  0.00     0.310 C 
HETATM   16  C   UNL     1     -43.850 -53.836  15.310  1.00  0.00     0.310 C 
ENDBRANCH   8  14
ENDBRANCH   7   8
ENDBRANCH   1   7
BRANCH   4  17
HETATM   17  C   UNL     1     -40.012 -50.232  12.619  1.00  0.00     0.051 A 
HETATM   18  C   UNL     1     -39.042 -50.808  13.438  1.00  0.00     0.032 A 
HETATM   19  C   UNL     1     -37.738 -50.965  12.979  1.00  0.00     0.019 A 
HETATM   20  C   UNL     1     -37.435 -50.523  11.705  1.00  0.00     0.088 A 
HETATM   21  N   UNL     1     -38.329 -49.925  10.888  1.00  0.00    -0.373 N 
HETATM   22  C   UNL     1     -39.592 -49.793  11.366  1.00  0.00     0.117 A 
ATOM     23  HN  UNL     1     -38.069 -49.590   9.960  1.00  0.00     0.164 HD
ENDBRANCH   4  17
TORSDOF 4
ENDMDL
MODEL 7
REMARK VINA RESULT:      -5.3      2.195      7.219
REMARK  4 active torsions:
REMARK  status: ('A' for Active; 'I' for Inactive)
REMARK    1  A    between atoms: N_2  and  C_4 
REMARK    2  A    between atoms: C_4  and  C_5 
REMARK    3  A    between atoms: C_5  and  N_6 
REMARK       I    between atoms: N_6  and  C_7 
REMARK       I    between atoms: C_7  and  N_9 
REMARK    4  A    between atoms: N_9  and  C_10 
ROOT
HETATM    1  N   UNL     1     -42.562 -51.541  12.489  1.00  0.00    -0.340 N 
HETATM    2  C   UNL     1     -42.203 -50.216  12.487  1.00  0.00     0.320 C 
HETATM    3  O   UNL     1     -42.042 -49.588  13.527  1.00  0.00    -0.247 OA
HETATM    4  N   UNL     1     -42.052 -49.711  11.216  1.00  0.00    -0.308 N 
HETATM    5  H   UNL     1     -42.821 -51.982  11.623  1.00  0.00     0.164 HD
HETATM    6  H   UNL     1     -41.849 -50.381  10.489  1.00  0.00     0.170 HD
ENDROOT
BRANCH   1   7
HETATM    7  C   UNL     1     -42.816 -52.248  13.738  1.00  0.00     0.166 C 
BRANCH   7   8
HETATM    8  C   UNL     1     -44.325 -52.484  14.121  1.00  0.00     0.178 C 
HETATM    9  C   UNL     1     -44.724 -51.327  15.097  1.00  0.00     0.069 C 
HETATM   10  C   UNL     1     -46.218 -51.335  15.402  1.00  0.00     0.170 C 
HETATM   11  O   UNL     1     -46.966 -51.148  14.202  1.00  0.00    -0.391 OA
HETATM   12  C   UNL     1     -46.724 -52.192  13.259  1.00  0.00     0.170 C 
HETATM   13  C   UNL     1     -45.246 -52.260  12.882  1.00  0.00     0.069 C 
BRANCH   8  14
HETATM   14  N   UNL     1     -44.596 -53.811  14.774  1.00  0.00     0.091 N 
HETATM   15  C   UNL     1     -44.944 -54.917  13.884  1.00  0.00     0.310 C 
HETATM   16  C   UNL     1     -43.574 -54.262  15.722  1.00  0.00     0.310 C 
ENDBRANCH   8  14
ENDBRANCH   7   8
ENDBRANCH   1   7
BRANCH   4  17
HETATM   17  C   UNL     1     -41.837 -48.345  10.916  1.00  0.00     0.051 A 
HETATM   18  C   UNL     1     -42.867 -47.462  10.595  1.00  0.00     0.032 A 
HETATM   19  C   UNL     1     -42.590 -46.121  10.343  1.00  0.00     0.019 A 
HETATM   20  C   UNL     1     -41.274 -45.702  10.406  1.00  0.00     0.088 A 
HETATM   21  N   UNL     1     -40.238 -46.526  10.676  1.00  0.00    -0.373 N 
HETATM   22  C   UNL     1     -40.546 -47.825  10.921  1.00  0.00     0.117 A 
ATOM     23  HN  UNL     1     -39.275 -46.191  10.695  1.00  0.00     0.164 HD
ENDBRANCH   4  17
TORSDOF 4
ENDMDL
MODEL 8
REMARK VINA RESULT:      -5.1      3.149      7.232
REMARK  4 active torsions:
REMARK  status: ('A' for Active; 'I' for Inactive)
REMARK    1  A    between atoms: N_2  and  C_4 
REMARK    2  A    between atoms: C_4  and  C_5 
REMARK    3  A    between atoms: C_5  and  N_6 
REMARK       I    between atoms: N_6  and  C_7 
REMARK       I    between atoms: C_7  and  N_9 
REMARK    4  A    between atoms: N_9  and  C_10 
ROOT
HETATM    1  N   UNL     1     -41.896 -51.252  11.789  1.00  0.00    -0.340 N 
HETATM    2  C   UNL     1     -41.485 -49.943  11.754  1.00  0.00     0.320 C 
HETATM    3  O   UNL     1     -40.338 -49.617  12.036  1.00  0.00    -0.247 OA
HETATM    4  N   UNL     1     -42.490 -49.083  11.373  1.00  0.00    -0.308 N 
HETATM    5  H   UNL     1     -42.875 -51.464  11.688  1.00  0.00     0.164 HD
HETATM    6  H   UNL     1     -43.239 -49.484  10.829  1.00  0.00     0.170 HD
ENDROOT
BRANCH   1   7
HETATM    7  C   UNL     1     -40.991 -52.312  12.214  1.00  0.00     0.166 C 
BRANCH   7   8
HETATM    8  C   UNL     1     -41.284 -52.972  13.613  1.00  0.00     0.178 C 
HETATM    9  C   UNL     1     -42.239 -51.996  14.376  1.00  0.00     0.069 C 
HETATM   10  C   UNL     1     -42.749 -52.605  15.678  1.00  0.00     0.170 C 
HETATM   11  O   UNL     1     -43.493 -53.792  15.407  1.00  0.00    -0.391 OA
HETATM   12  C   UNL     1     -42.691 -54.783  14.765  1.00  0.00     0.170 C 
HETATM   13  C   UNL     1     -42.138 -54.267  13.439  1.00  0.00     0.069 C 
BRANCH   8  14
HETATM   14  N   UNL     1     -40.058 -53.231  14.444  1.00  0.00     0.091 N 
HETATM   15  C   UNL     1     -39.219 -54.357  14.036  1.00  0.00     0.310 C 
HETATM   16  C   UNL     1     -39.209 -52.062  14.685  1.00  0.00     0.310 C 
ENDBRANCH   8  14
ENDBRANCH   7   8
ENDBRANCH   1   7
BRANCH   4  17
HETATM   17  C   UNL     1     -42.390 -47.672  11.398  1.00  0.00     0.051 A 
HETATM   18  C   UNL     1     -41.736 -46.934  10.413  1.00  0.00     0.032 A 
HETATM   19  C   UNL     1     -41.703 -45.545  10.481  1.00  0.00     0.019 A 
HETATM   20  C   UNL     1     -42.318 -44.928  11.554  1.00  0.00     0.088 A 
HETATM   21  N   UNL     1     -42.931 -45.599  12.553  1.00  0.00    -0.373 N 
HETATM   22  C   UNL     1     -42.949 -46.952  12.451  1.00  0.00     0.117 A 
ATOM     23  HN  UNL     1     -43.359 -45.116  13.343  1.00  0.00     0.164 HD
ENDBRANCH   4  17
TORSDOF 4
ENDMDL
MODEL 9
REMARK VINA RESULT:      -5.1      2.363      7.543
REMARK  4 active torsions:
REMARK  status: ('A' for Active; 'I' for Inactive)
REMARK    1  A    between atoms: N_2  and  C_4 
REMARK    2  A    between atoms: C_4  and  C_5 
REMARK    3  A    between atoms: C_5  and  N_6 
REMARK       I    between atoms: N_6  and  C_7 
REMARK       I    between atoms: C_7  and  N_9 
REMARK    4  A    between atoms: N_9  and  C_10 
ROOT
HETATM    1  N   UNL     1     -43.397 -51.166  12.550  1.00  0.00    -0.340 N 
HETATM    2  C   UNL     1     -42.881 -49.894  12.584  1.00  0.00     0.320 C 
HETATM    3  O   UNL     1     -43.127 -49.121  13.503  1.00  0.00    -0.247 OA
HETATM    4  N   UNL     1     -42.083 -49.618  11.497  1.00  0.00    -0.308 N 
HETATM    5  H   UNL     1     -43.288 -51.719  11.717  1.00  0.00     0.164 HD
HETATM    6  H   UNL     1     -41.671 -50.412  11.031  1.00  0.00     0.170 HD
ENDROOT
BRANCH   1   7
HETATM    7  C   UNL     1     -44.305 -51.635  13.588  1.00  0.00     0.166 C 
BRANCH   7   8
HETATM    8  C   UNL     1     -43.783 -52.800  14.510  1.00  0.00     0.178 C 
HETATM    9  C   UNL     1     -42.576 -53.455  13.760  1.00  0.00     0.069 C 
HETATM   10  C   UNL     1     -41.860 -54.483  14.630  1.00  0.00     0.170 C 
HETATM   11  O   UNL     1     -41.337 -53.858  15.801  1.00  0.00    -0.391 OA
HETATM   12  C   UNL     1     -42.370 -53.279  16.598  1.00  0.00     0.170 C 
HETATM   13  C   UNL     1     -43.144 -52.224  15.812  1.00  0.00     0.069 C 
BRANCH   8  14
HETATM   14  N   UNL     1     -44.813 -53.850  14.823  1.00  0.00     0.091 N 
HETATM   15  C   UNL     1     -45.944 -53.430  15.648  1.00  0.00     0.310 C 
HETATM   16  C   UNL     1     -45.314 -54.598  13.666  1.00  0.00     0.310 C 
ENDBRANCH   8  14
ENDBRANCH   7   8
ENDBRANCH   1   7
BRANCH   4  17
HETATM   17  C   UNL     1     -41.549 -48.342  11.199  1.00  0.00     0.051 A 
HETATM   18  C   UNL     1     -40.391 -47.841  11.792  1.00  0.00     0.032 A 
HETATM   19  C   UNL     1     -39.901 -46.590  11.429  1.00  0.00     0.019 A 
HETATM   20  C   UNL     1     -40.600 -45.862  10.484  1.00  0.00     0.088 A 
HETATM   21  N   UNL     1     -41.746 -46.287   9.910  1.00  0.00    -0.373 N 
HETATM   22  C   UNL     1     -42.191 -47.513  10.284  1.00  0.00     0.117 A 
ATOM     23  HN  UNL     1     -42.250 -45.717   9.231  1.00  0.00     0.164 HD
ENDBRANCH   4  17
TORSDOF 4
ENDMDL
