MODEL 1
REMARK VINA RESULT:      -6.4      0.000      0.000
REMARK  6 active torsions:
REMARK  status: ('A' for Active; 'I' for Inactive)
REMARK    1  A    between atoms: C_2  and  C_3 
REMARK    2  A    between atoms: C_5  and  C_6 
REMARK    3  A    between atoms: N_8  and  C_11 
REMARK    4  A    between atoms: N_23  and  C_24 
REMARK    5  A    between atoms: C_24  and  C_25 
REMARK    6  A    between atoms: C_25  and  O_26 
ROOT
HETATM    1  C   UNL     1     -41.959 -49.584  12.184  1.00  0.00     0.708 A 
HETATM    2  N   UNL     1     -43.028 -49.156  11.524  1.00  0.00    -0.172 N 
ATOM      3  HN  UNL     1     -43.942 -49.608  11.475  1.00  0.00     0.186 HD
HETATM    4  C   UNL     1     -42.657 -48.000  10.929  1.00  0.00     0.160 A 
HETATM    5  N   UNL     1     -43.450 -47.214  10.120  1.00  0.00    -0.287 N 
HETATM    6  C   UNL     1     -44.819 -47.562   9.801  1.00  0.00     0.163 C 
HETATM    7  C   UNL     1     -42.912 -46.049   9.582  1.00  0.00     0.330 A 
HETATM    8  O   UNL     1     -43.545 -45.281   8.858  1.00  0.00    -0.246 OA
HETATM    9  N   UNL     1     -41.603 -45.762   9.897  1.00  0.00    -0.273 N 
HETATM   10  C   UNL     1     -40.742 -46.517  10.661  1.00  0.00     0.280 A 
HETATM   11  O   UNL     1     -39.574 -46.186  10.825  1.00  0.00    -0.265 OA
HETATM   12  C   UNL     1     -41.361 -47.681  11.209  1.00  0.00     0.164 A 
HETATM   13  N   UNL     1     -40.906 -48.683  12.051  1.00  0.00    -0.170 N 
HETATM   14  H   UNL     1     -41.226 -44.921   9.489  1.00  0.00     0.173 HD
ENDROOT
BRANCH   1  15
HETATM   15  N   UNL     1     -41.978 -50.806  12.884  1.00  0.00    -0.090 N 
HETATM   16  C   UNL     1     -42.688 -51.167  14.026  1.00  0.00     0.054 A 
HETATM   17  C   UNL     1     -42.355 -52.481  14.292  1.00  0.00     0.054 A 
HETATM   18  C   UNL     1     -41.471 -52.854  13.265  1.00  0.00     0.028 A 
HETATM   19  N   UNL     1     -41.226 -51.837  12.435  1.00  0.00    -0.284 N 
ATOM     20  HN  UNL     1     -40.601 -51.837  11.629  1.00  0.00     0.188 HD
BRANCH  16  21
HETATM   21  C   UNL     1     -43.644 -50.288  14.764  1.00  0.00     0.055 C 
HETATM   22  C   UNL     1     -44.968 -50.986  15.028  1.00  0.00     0.011 C 
ENDBRANCH  16  21
BRANCH  18  23
HETATM   23  C   UNL     1     -40.853 -54.191  13.031  1.00  0.00     0.054 C 
HETATM   24  C   UNL     1     -39.590 -54.404  13.850  1.00  0.00     0.011 C 
ENDBRANCH  18  23
ENDBRANCH   1  15
BRANCH  13  25
HETATM   25  C   UNL     1     -39.556 -48.729  12.587  1.00  0.00     0.174 C 
BRANCH  25  26
HETATM   26  C   UNL     1     -38.573 -49.498  11.705  1.00  0.00     0.187 C 
BRANCH  26  27
HETATM   27  O   UNL     1     -38.522 -50.867  12.118  1.00  0.00    -0.394 OA
HETATM   28  C   UNL     1     -37.355 -51.125  12.891  1.00  0.00     0.201 C 
ENDBRANCH  26  27
ENDBRANCH  25  26
ENDBRANCH  13  25
TORSDOF 6
ENDMDL
MODEL 2
REMARK VINA RESULT:      -6.2      3.446      6.070
REMARK  6 active torsions:
REMARK  status: ('A' for Active; 'I' for Inactive)
REMARK    1  A    between atoms: C_2  and  C_3 
REMARK    2  A    between atoms: C_5  and  C_6 
REMARK    3  A    between atoms: N_8  and  C_11 
REMARK    4  A    between atoms: N_23  and  C_24 
REMARK    5  A    between atoms: C_24  and  C_25 
REMARK    6  A    between atoms: C_25  and  O_26 
ROOT
HETATM    1  C   UNL     1     -43.080 -51.594  13.660  1.00  0.00     0.708 A 
HETATM    2  N   UNL     1     -42.394 -50.458  13.695  1.00  0.00    -0.172 N 
ATOM      3  HN  UNL     1     -42.774 -49.511  13.698  1.00  0.00     0.186 HD
HETATM    4  C   UNL     1     -41.090 -50.814  13.726  1.00  0.00     0.160 A 
HETATM    5  N   UNL     1     -40.016 -49.951  13.749  1.00  0.00    -0.287 N 
HETATM    6  C   UNL     1     -40.174 -48.512  13.734  1.00  0.00     0.163 C 
HETATM    7  C   UNL     1     -38.730 -50.483  13.778  1.00  0.00     0.330 A 
HETATM    8  O   UNL     1     -37.710 -49.793  13.809  1.00  0.00    -0.246 OA
HETATM    9  N   UNL     1     -38.621 -51.855  13.776  1.00  0.00    -0.273 N 
HETATM   10  C   UNL     1     -39.643 -52.775  13.712  1.00  0.00     0.280 A 
HETATM   11  O   UNL     1     -39.420 -53.978  13.658  1.00  0.00    -0.265 OA
HETATM   12  C   UNL     1     -40.936 -52.169  13.717  1.00  0.00     0.164 A 
HETATM   13  N   UNL     1     -42.220 -52.688  13.709  1.00  0.00    -0.170 N 
HETATM   14  H   UNL     1     -37.683 -52.222  13.785  1.00  0.00     0.173 HD
ENDROOT
BRANCH   1  15
HETATM   15  N   UNL     1     -44.485 -51.592  13.569  1.00  0.00    -0.090 N 
HETATM   16  C   UNL     1     -45.441 -51.336  14.548  1.00  0.00     0.054 A 
HETATM   17  C   UNL     1     -46.672 -51.455  13.933  1.00  0.00     0.054 A 
HETATM   18  C   UNL     1     -46.386 -51.754  12.590  1.00  0.00     0.028 A 
HETATM   19  N   UNL     1     -45.071 -51.862  12.380  1.00  0.00    -0.284 N 
ATOM     20  HN  UNL     1     -44.605 -52.098  11.504  1.00  0.00     0.188 HD
BRANCH  16  21
HETATM   21  C   UNL     1     -45.148 -50.967  15.967  1.00  0.00     0.055 C 
HETATM   22  C   UNL     1     -46.414 -50.882  16.803  1.00  0.00     0.011 C 
ENDBRANCH  16  21
BRANCH  18  23
HETATM   23  C   UNL     1     -47.351 -51.923  11.465  1.00  0.00     0.054 C 
HETATM   24  C   UNL     1     -47.468 -50.677  10.603  1.00  0.00     0.011 C 
ENDBRANCH  18  23
ENDBRANCH   1  15
BRANCH  13  25
HETATM   25  C   UNL     1     -42.510 -54.113  13.693  1.00  0.00     0.174 C 
BRANCH  25  26
HETATM   26  C   UNL     1     -43.169 -54.617  14.977  1.00  0.00     0.187 C 
BRANCH  26  27
HETATM   27  O   UNL     1     -44.131 -55.627  14.662  1.00  0.00    -0.394 OA
HETATM   28  C   UNL     1     -45.235 -55.080  13.950  1.00  0.00     0.201 C 
ENDBRANCH  26  27
ENDBRANCH  25  26
ENDBRANCH  13  25
TORSDOF 6
ENDMDL
MODEL 3
REMARK VINA RESULT:      -6.0      1.928      2.912
REMARK  6 active torsions:
REMARK  status: ('A' for Active; 'I' for Inactive)
REMARK    1  A    between atoms: C_2  and  C_3 
REMARK    2  A    between atoms: C_5  and  C_6 
REMARK    3  A    between atoms: N_8  and  C_11 
REMARK    4  A    between atoms: N_23  and  C_24 
REMARK    5  A    between atoms: C_24  and  C_25 
REMARK    6  A    between atoms: C_25  and  O_26 
ROOT
HETATM    1  C   UNL     1     -41.753 -49.105  11.848  1.00  0.00     0.708 A 
HETATM    2  N   UNL     1     -42.308 -48.854  10.669  1.00  0.00    -0.172 N 
ATOM      3  HN  UNL     1     -42.498 -49.524   9.924  1.00  0.00     0.186 HD
HETATM    4  C   UNL     1     -42.569 -47.527  10.658  1.00  0.00     0.160 A 
HETATM    5  N   UNL     1     -43.133 -46.821   9.617  1.00  0.00    -0.287 N 
HETATM    6  C   UNL     1     -43.514 -47.449   8.369  1.00  0.00     0.163 C 
HETATM    7  C   UNL     1     -43.334 -45.452   9.768  1.00  0.00     0.330 A 
HETATM    8  O   UNL     1     -43.839 -44.741   8.898  1.00  0.00    -0.246 OA
HETATM    9  N   UNL     1     -42.945 -44.891  10.963  1.00  0.00    -0.273 N 
HETATM   10  C   UNL     1     -42.341 -45.524  12.026  1.00  0.00     0.280 A 
HETATM   11  O   UNL     1     -41.985 -44.904  13.021  1.00  0.00    -0.265 OA
HETATM   12  C   UNL     1     -42.191 -46.929  11.824  1.00  0.00     0.164 A 
HETATM   13  N   UNL     1     -41.690 -47.947  12.618  1.00  0.00    -0.170 N 
HETATM   14  H   UNL     1     -43.088 -43.898  11.049  1.00  0.00     0.173 HD
ENDROOT
BRANCH   1  15
HETATM   15  N   UNL     1     -41.301 -50.398  12.178  1.00  0.00    -0.090 N 
HETATM   16  C   UNL     1     -40.007 -50.909  12.204  1.00  0.00     0.054 A 
HETATM   17  C   UNL     1     -40.116 -52.227  12.604  1.00  0.00     0.054 A 
HETATM   18  C   UNL     1     -41.488 -52.433  12.828  1.00  0.00     0.028 A 
HETATM   19  N   UNL     1     -42.201 -51.338  12.545  1.00  0.00    -0.284 N 
ATOM     20  HN  UNL     1     -43.214 -51.234  12.597  1.00  0.00     0.188 HD
BRANCH  16  21
HETATM   21  C   UNL     1     -38.765 -50.138  11.891  1.00  0.00     0.055 C 
HETATM   22  C   UNL     1     -37.523 -50.813  12.449  1.00  0.00     0.011 C 
ENDBRANCH  16  21
BRANCH  18  23
HETATM   23  C   UNL     1     -42.157 -53.664  13.337  1.00  0.00     0.054 C 
HETATM   24  C   UNL     1     -43.599 -53.784  12.867  1.00  0.00     0.011 C 
ENDBRANCH  18  23
ENDBRANCH   1  15
BRANCH  13  25
HETATM   25  C   UNL     1     -41.168 -47.736  13.958  1.00  0.00     0.174 C 
BRANCH  25  26
HETATM   26  C   UNL     1     -39.703 -47.299  13.981  1.00  0.00     0.187 C 
BRANCH  26  27
HETATM   27  O   UNL     1     -38.941 -48.204  14.785  1.00  0.00    -0.394 OA
HETATM   28  C   UNL     1     -37.559 -47.863  14.770  1.00  0.00     0.201 C 
ENDBRANCH  26  27
ENDBRANCH  25  26
ENDBRANCH  13  25
TORSDOF 6
ENDMDL
MODEL 4
REMARK VINA RESULT:      -5.8      2.833      5.550
REMARK  6 active torsions:
REMARK  status: ('A' for Active; 'I' for Inactive)
REMARK    1  A    between atoms: C_2  and  C_3 
REMARK    2  A    between atoms: C_5  and  C_6 
REMARK    3  A    between atoms: N_8  and  C_11 
REMARK    4  A    between atoms: N_23  and  C_24 
REMARK    5  A    between atoms: C_24  and  C_25 
REMARK    6  A    between atoms: C_25  and  O_26 
ROOT
HETATM    1  C   UNL     1     -43.699 -51.251  13.750  1.00  0.00     0.708 A 
HETATM    2  N   UNL     1     -43.351 -50.246  12.956  1.00  0.00    -0.172 N 
ATOM      3  HN  UNL     1     -43.933 -49.459  12.670  1.00  0.00     0.186 HD
HETATM    4  C   UNL     1     -42.066 -50.482  12.603  1.00  0.00     0.160 A 
HETATM    5  N   UNL     1     -41.301 -49.699  11.766  1.00  0.00    -0.287 N 
HETATM    6  C   UNL     1     -41.813 -48.497  11.142  1.00  0.00     0.163 C 
HETATM    7  C   UNL     1     -39.989 -50.085  11.503  1.00  0.00     0.330 A 
HETATM    8  O   UNL     1     -39.228 -49.446  10.776  1.00  0.00    -0.246 OA
HETATM    9  N   UNL     1     -39.546 -51.241  12.102  1.00  0.00    -0.273 N 
HETATM   10  C   UNL     1     -40.264 -52.091  12.913  1.00  0.00     0.280 A 
HETATM   11  O   UNL     1     -39.775 -53.128  13.344  1.00  0.00    -0.265 OA
HETATM   12  C   UNL     1     -41.588 -51.625  13.171  1.00  0.00     0.164 A 
HETATM   13  N   UNL     1     -42.626 -52.117  13.945  1.00  0.00    -0.170 N 
HETATM   14  H   UNL     1     -38.599 -51.511  11.891  1.00  0.00     0.173 HD
ENDROOT
BRANCH   1  15
HETATM   15  N   UNL     1     -45.006 -51.352  14.264  1.00  0.00    -0.090 N 
HETATM   16  C   UNL     1     -46.167 -51.824  13.658  1.00  0.00     0.054 A 
HETATM   17  C   UNL     1     -47.171 -51.715  14.601  1.00  0.00     0.054 A 
HETATM   18  C   UNL     1     -46.546 -51.200  15.749  1.00  0.00     0.028 A 
HETATM   19  N   UNL     1     -45.249 -50.958  15.535  1.00  0.00    -0.284 N 
ATOM     20  HN  UNL     1     -44.581 -50.560  16.194  1.00  0.00     0.188 HD
BRANCH  16  21
HETATM   21  C   UNL     1     -46.257 -52.373  12.271  1.00  0.00     0.055 C 
HETATM   22  C   UNL     1     -47.238 -51.589  11.415  1.00  0.00     0.011 C 
ENDBRANCH  16  21
BRANCH  18  23
HETATM   23  C   UNL     1     -47.155 -50.946  17.086  1.00  0.00     0.054 C 
HETATM   24  C   UNL     1     -46.987 -52.119  18.039  1.00  0.00     0.011 C 
ENDBRANCH  18  23
ENDBRANCH   1  15
BRANCH  13  25
HETATM   25  C   UNL     1     -42.536 -53.341  14.725  1.00  0.00     0.174 C 
BRANCH  25  26
HETATM   26  C   UNL     1     -43.281 -54.520  14.099  1.00  0.00     0.187 C 
BRANCH  26  27
HETATM   27  O   UNL     1     -43.505 -55.530  15.087  1.00  0.00    -0.394 OA
HETATM   28  C   UNL     1     -42.427 -55.587  16.015  1.00  0.00     0.201 C 
ENDBRANCH  26  27
ENDBRANCH  25  26
ENDBRANCH  13  25
TORSDOF 6
ENDMDL
MODEL 5
REMARK VINA RESULT:      -5.8      2.325      6.010
REMARK  6 active torsions:
REMARK  status: ('A' for Active; 'I' for Inactive)
REMARK    1  A    between atoms: C_2  and  C_3 
REMARK    2  A    between atoms: C_5  and  C_6 
REMARK    3  A    between atoms: N_8  and  C_11 
REMARK    4  A    between atoms: N_23  and  C_24 
REMARK    5  A    between atoms: C_24  and  C_25 
REMARK    6  A    between atoms: C_25  and  O_26 
ROOT
HETATM    1  C   UNL     1     -42.500 -50.084  12.353  1.00  0.00     0.708 A 
HETATM    2  N   UNL     1     -43.489 -50.804  12.867  1.00  0.00    -0.172 N 
ATOM      3  HN  UNL     1     -44.465 -50.524  12.970  1.00  0.00     0.186 HD
HETATM    4  C   UNL     1     -42.937 -51.986  13.227  1.00  0.00     0.160 A 
HETATM    5  N   UNL     1     -43.597 -53.038  13.824  1.00  0.00    -0.287 N 
HETATM    6  C   UNL     1     -45.006 -52.987  14.152  1.00  0.00     0.163 C 
HETATM    7  C   UNL     1     -42.878 -54.190  14.134  1.00  0.00     0.330 A 
HETATM    8  O   UNL     1     -43.383 -55.183  14.659  1.00  0.00    -0.246 OA
HETATM    9  N   UNL     1     -41.538 -54.193  13.820  1.00  0.00    -0.273 N 
HETATM   10  C   UNL     1     -40.808 -53.168  13.264  1.00  0.00     0.280 A 
HETATM   11  O   UNL     1     -39.600 -53.268  13.083  1.00  0.00    -0.265 OA
HETATM   12  C   UNL     1     -41.605 -52.029  12.941  1.00  0.00     0.164 A 
HETATM   13  N   UNL     1     -41.314 -50.814  12.342  1.00  0.00    -0.170 N 
HETATM   14  H   UNL     1     -41.032 -55.030  14.062  1.00  0.00     0.173 HD
ENDROOT
BRANCH   1  15
HETATM   15  N   UNL     1     -42.714 -48.761  11.919  1.00  0.00    -0.090 N 
HETATM   16  C   UNL     1     -42.758 -47.580  12.654  1.00  0.00     0.054 A 
HETATM   17  C   UNL     1     -42.988 -46.564  11.745  1.00  0.00     0.054 A 
HETATM   18  C   UNL     1     -43.043 -47.196  10.491  1.00  0.00     0.028 A 
HETATM   19  N   UNL     1     -42.904 -48.520  10.602  1.00  0.00    -0.284 N 
ATOM     20  HN  UNL     1     -42.935 -49.207   9.848  1.00  0.00     0.188 HD
BRANCH  16  21
HETATM   21  C   UNL     1     -42.552 -47.471  14.130  1.00  0.00     0.055 C 
HETATM   22  C   UNL     1     -43.130 -46.181  14.689  1.00  0.00     0.011 C 
ENDBRANCH  16  21
BRANCH  18  23
HETATM   23  C   UNL     1     -43.206 -46.558   9.153  1.00  0.00     0.054 C 
HETATM   24  C   UNL     1     -43.627 -47.550   8.080  1.00  0.00     0.011 C 
ENDBRANCH  18  23
ENDBRANCH   1  15
BRANCH  13  25
HETATM   25  C   UNL     1     -39.986 -50.443  11.882  1.00  0.00     0.174 C 
BRANCH  25  26
HETATM   26  C   UNL     1     -39.268 -49.466  12.812  1.00  0.00     0.187 C 
BRANCH  26  27
HETATM   27  O   UNL     1     -37.883 -49.395  12.463  1.00  0.00    -0.394 OA
HETATM   28  C   UNL     1     -37.383 -50.673  12.084  1.00  0.00     0.201 C 
ENDBRANCH  26  27
ENDBRANCH  25  26
ENDBRANCH  13  25
TORSDOF 6
ENDMDL
MODEL 6
REMARK VINA RESULT:      -5.6      3.319      6.978
REMARK  6 active torsions:
REMARK  status: ('A' for Active; 'I' for Inactive)
REMARK    1  A    between atoms: C_2  and  C_3 
REMARK    2  A    between atoms: C_5  and  C_6 
REMARK    3  A    between atoms: N_8  and  C_11 
REMARK    4  A    between atoms: N_23  and  C_24 
REMARK    5  A    between atoms: C_24  and  C_25 
REMARK    6  A    between atoms: C_25  and  O_26 
ROOT
HETATM    1  C   UNL     1     -43.277 -52.596  14.827  1.00  0.00     0.708 A 
HETATM    2  N   UNL     1     -42.840 -53.666  15.479  1.00  0.00    -0.172 N 
ATOM      3  HN  UNL     1     -43.360 -54.231  16.151  1.00  0.00     0.186 HD
HETATM    4  C   UNL     1     -41.565 -53.854  15.070  1.00  0.00     0.160 A 
HETATM    5  N   UNL     1     -40.713 -54.846  15.505  1.00  0.00    -0.287 N 
HETATM    6  C   UNL     1     -41.105 -55.829  16.493  1.00  0.00     0.163 C 
HETATM    7  C   UNL     1     -39.424 -54.899  14.983  1.00  0.00     0.330 A 
HETATM    8  O   UNL     1     -38.597 -55.753  15.303  1.00  0.00    -0.246 OA
HETATM    9  N   UNL     1     -39.085 -53.938  14.058  1.00  0.00    -0.273 N 
HETATM   10  C   UNL     1     -39.866 -52.897  13.609  1.00  0.00     0.280 A 
HETATM   11  O   UNL     1     -39.433 -52.065  12.822  1.00  0.00    -0.265 OA
HETATM   12  C   UNL     1     -41.184 -52.916  14.156  1.00  0.00     0.164 A 
HETATM   13  N   UNL     1     -42.297 -52.113  13.963  1.00  0.00    -0.170 N 
HETATM   14  H   UNL     1     -38.145 -53.984  13.699  1.00  0.00     0.173 HD
ENDROOT
BRANCH   1  15
HETATM   15  N   UNL     1     -44.568 -52.082  15.056  1.00  0.00    -0.090 N 
HETATM   16  C   UNL     1     -45.676 -52.049  14.213  1.00  0.00     0.054 A 
HETATM   17  C   UNL     1     -46.691 -51.444  14.929  1.00  0.00     0.054 A 
HETATM   18  C   UNL     1     -46.140 -51.167  16.191  1.00  0.00     0.028 A 
HETATM   19  N   UNL     1     -44.855 -51.527  16.256  1.00  0.00    -0.284 N 
ATOM     20  HN  UNL     1     -44.222 -51.409  17.047  1.00  0.00     0.188 HD
BRANCH  16  21
HETATM   21  C   UNL     1     -45.725 -52.606  12.828  1.00  0.00     0.055 C 
HETATM   22  C   UNL     1     -46.723 -51.864  11.954  1.00  0.00     0.011 C 
ENDBRANCH  16  21
BRANCH  18  23
HETATM   23  C   UNL     1     -46.823 -50.573  17.377  1.00  0.00     0.054 C 
HETATM   24  C   UNL     1     -48.322 -50.828  17.377  1.00  0.00     0.011 C 
ENDBRANCH  18  23
ENDBRANCH   1  15
BRANCH  13  25
HETATM   25  C   UNL     1     -42.318 -50.975  13.060  1.00  0.00     0.174 C 
BRANCH  25  26
HETATM   26  C   UNL     1     -41.946 -49.654  13.733  1.00  0.00     0.187 C 
BRANCH  26  27
HETATM   27  O   UNL     1     -41.280 -48.804  12.794  1.00  0.00    -0.394 OA
HETATM   28  C   UNL     1     -41.295 -49.371  11.488  1.00  0.00     0.201 C 
ENDBRANCH  26  27
ENDBRANCH  25  26
ENDBRANCH  13  25
TORSDOF 6
ENDMDL
MODEL 7
REMARK VINA RESULT:      -5.6      1.838      3.243
REMARK  6 active torsions:
REMARK  status: ('A' for Active; 'I' for Inactive)
REMARK    1  A    between atoms: C_2  and  C_3 
REMARK    2  A    between atoms: C_5  and  C_6 
REMARK    3  A    between atoms: N_8  and  C_11 
REMARK    4  A    between atoms: N_23  and  C_24 
REMARK    5  A    between atoms: C_24  and  C_25 
REMARK    6  A    between atoms: C_25  and  O_26 
ROOT
HETATM    1  C   UNL     1     -42.359 -49.830  12.470  1.00  0.00     0.708 A 
HETATM    2  N   UNL     1     -42.673 -49.065  11.432  1.00  0.00    -0.172 N 
ATOM      3  HN  UNL     1     -43.416 -49.226  10.751  1.00  0.00     0.186 HD
HETATM    4  C   UNL     1     -41.805 -48.028  11.461  1.00  0.00     0.160 A 
HETATM    5  N   UNL     1     -41.751 -46.991  10.555  1.00  0.00    -0.287 N 
HETATM    6  C   UNL     1     -42.649 -46.902   9.422  1.00  0.00     0.163 C 
HETATM    7  C   UNL     1     -40.791 -45.999  10.729  1.00  0.00     0.330 A 
HETATM    8  O   UNL     1     -40.672 -45.031   9.976  1.00  0.00    -0.246 OA
HETATM    9  N   UNL     1     -39.947 -46.128  11.808  1.00  0.00    -0.273 N 
HETATM   10  C   UNL     1     -39.916 -47.152  12.727  1.00  0.00     0.280 A 
HETATM   11  O   UNL     1     -39.076 -47.188  13.618  1.00  0.00    -0.265 OA
HETATM   12  C   UNL     1     -40.943 -48.120  12.514  1.00  0.00     0.164 A 
HETATM   13  N   UNL     1     -41.313 -49.267  13.197  1.00  0.00    -0.170 N 
HETATM   14  H   UNL     1     -39.251 -45.407  11.911  1.00  0.00     0.173 HD
ENDROOT
BRANCH   1  15
HETATM   15  N   UNL     1     -43.039 -51.039  12.713  1.00  0.00    -0.090 N 
HETATM   16  C   UNL     1     -42.595 -52.352  12.578  1.00  0.00     0.054 A 
HETATM   17  C   UNL     1     -43.650 -53.161  12.953  1.00  0.00     0.054 A 
HETATM   18  C   UNL     1     -44.679 -52.278  13.325  1.00  0.00     0.028 A 
HETATM   19  N   UNL     1     -44.317 -51.003  13.155  1.00  0.00    -0.284 N 
ATOM     20  HN  UNL     1     -44.886 -50.174  13.323  1.00  0.00     0.188 HD
BRANCH  16  21
HETATM   21  C   UNL     1     -41.224 -52.762  12.148  1.00  0.00     0.055 C 
HETATM   22  C   UNL     1     -40.777 -54.046  12.827  1.00  0.00     0.011 C 
ENDBRANCH  16  21
BRANCH  18  23
HETATM   23  C   UNL     1     -46.023 -52.619  13.873  1.00  0.00     0.054 C 
HETATM   24  C   UNL     1     -46.736 -51.413  14.466  1.00  0.00     0.011 C 
ENDBRANCH  18  23
ENDBRANCH   1  15
BRANCH  13  25
HETATM   25  C   UNL     1     -40.639 -49.742  14.395  1.00  0.00     0.174 C 
BRANCH  25  26
HETATM   26  C   UNL     1     -39.407 -50.598  14.103  1.00  0.00     0.187 C 
BRANCH  26  27
HETATM   27  O   UNL     1     -39.221 -51.551  15.153  1.00  0.00    -0.394 OA
HETATM   28  C   UNL     1     -40.454 -51.848  15.801  1.00  0.00     0.201 C 
ENDBRANCH  26  27
ENDBRANCH  25  26
ENDBRANCH  13  25
TORSDOF 6
ENDMDL
MODEL 8
REMARK VINA RESULT:      -5.5      2.917      6.933
REMARK  6 active torsions:
REMARK  status: ('A' for Active; 'I' for Inactive)
REMARK    1  A    between atoms: C_2  and  C_3 
REMARK    2  A    between atoms: C_5  and  C_6 
REMARK    3  A    between atoms: N_8  and  C_11 
REMARK    4  A    between atoms: N_23  and  C_24 
REMARK    5  A    between atoms: C_24  and  C_25 
REMARK    6  A    between atoms: C_25  and  O_26 
ROOT
HETATM    1  C   UNL     1     -40.497 -47.618  11.919  1.00  0.00     0.708 A 
HETATM    2  N   UNL     1     -39.456 -48.140  11.282  1.00  0.00    -0.172 N 
ATOM      3  HN  UNL     1     -39.059 -47.830  10.395  1.00  0.00     0.186 HD
HETATM    4  C   UNL     1     -39.030 -49.167  12.052  1.00  0.00     0.160 A 
HETATM    5  N   UNL     1     -37.976 -50.008  11.768  1.00  0.00    -0.287 N 
HETATM    6  C   UNL     1     -37.186 -49.884  10.561  1.00  0.00     0.163 C 
HETATM    7  C   UNL     1     -37.667 -51.023  12.669  1.00  0.00     0.330 A 
HETATM    8  O   UNL     1     -36.739 -51.816  12.506  1.00  0.00    -0.246 OA
HETATM    9  N   UNL     1     -38.451 -51.118  13.797  1.00  0.00    -0.273 N 
HETATM   10  C   UNL     1     -39.540 -50.342  14.125  1.00  0.00     0.280 A 
HETATM   11  O   UNL     1     -40.199 -50.559  15.134  1.00  0.00    -0.265 OA
HETATM   12  C   UNL     1     -39.786 -49.302  13.179  1.00  0.00     0.164 A 
HETATM   13  N   UNL     1     -40.721 -48.281  13.122  1.00  0.00    -0.170 N 
HETATM   14  H   UNL     1     -38.220 -51.865  14.432  1.00  0.00     0.173 HD
ENDROOT
BRANCH   1  15
HETATM   15  N   UNL     1     -41.226 -46.548  11.364  1.00  0.00    -0.090 N 
HETATM   16  C   UNL     1     -42.237 -46.562  10.406  1.00  0.00     0.054 A 
HETATM   17  C   UNL     1     -42.618 -45.246  10.224  1.00  0.00     0.054 A 
HETATM   18  C   UNL     1     -41.825 -44.504  11.114  1.00  0.00     0.028 A 
HETATM   19  N   UNL     1     -40.970 -45.287  11.780  1.00  0.00    -0.284 N 
ATOM     20  HN  UNL     1     -40.270 -44.994  12.460  1.00  0.00     0.188 HD
BRANCH  16  21
HETATM   21  C   UNL     1     -42.797 -47.786   9.757  1.00  0.00     0.055 C 
HETATM   22  C   UNL     1     -43.614 -47.448   8.521  1.00  0.00     0.011 C 
ENDBRANCH  16  21
BRANCH  18  23
HETATM   23  C   UNL     1     -41.871 -43.037  11.375  1.00  0.00     0.054 C 
HETATM   24  C   UNL     1     -43.251 -42.444  11.140  1.00  0.00     0.011 C 
ENDBRANCH  18  23
ENDBRANCH   1  15
BRANCH  13  25
HETATM   25  C   UNL     1     -41.737 -48.066  14.139  1.00  0.00     0.174 C 
BRANCH  25  26
HETATM   26  C   UNL     1     -41.386 -46.955  15.128  1.00  0.00     0.187 C 
BRANCH  26  27
HETATM   27  O   UNL     1     -41.944 -45.716  14.681  1.00  0.00    -0.394 OA
HETATM   28  C   UNL     1     -43.317 -45.866  14.339  1.00  0.00     0.201 C 
ENDBRANCH  26  27
ENDBRANCH  25  26
ENDBRANCH  13  25
TORSDOF 6
ENDMDL
MODEL 9
REMARK VINA RESULT:      -5.5      2.532      6.051
REMARK  6 active torsions:
REMARK  status: ('A' for Active; 'I' for Inactive)
REMARK    1  A    between atoms: C_2  and  C_3 
REMARK    2  A    between atoms: C_5  and  C_6 
REMARK    3  A    between atoms: N_8  and  C_11 
REMARK    4  A    between atoms: N_23  and  C_24 
REMARK    5  A    between atoms: C_24  and  C_25 
REMARK    6  A    between atoms: C_25  and  O_26 
ROOT
HETATM    1  C   UNL     1     -42.459 -49.335  12.284  1.00  0.00     0.708 A 
HETATM    2  N   UNL     1     -43.599 -49.918  12.634  1.00  0.00    -0.172 N 
ATOM      3  HN  UNL     1     -44.493 -49.461  12.815  1.00  0.00     0.186 HD
HETATM    4  C   UNL     1     -43.331 -51.242  12.701  1.00  0.00     0.160 A 
HETATM    5  N   UNL     1     -44.225 -52.232  13.049  1.00  0.00    -0.287 N 
HETATM    6  C   UNL     1     -45.600 -51.948  13.402  1.00  0.00     0.163 C 
HETATM    7  C   UNL     1     -43.785 -53.553  13.071  1.00  0.00     0.330 A 
HETATM    8  O   UNL     1     -44.512 -54.504  13.360  1.00  0.00    -0.246 OA
HETATM    9  N   UNL     1     -42.468 -53.779  12.744  1.00  0.00    -0.273 N 
HETATM   10  C   UNL     1     -41.512 -52.840  12.428  1.00  0.00     0.280 A 
HETATM   11  O   UNL     1     -40.350 -53.159  12.210  1.00  0.00    -0.265 OA
HETATM   12  C   UNL     1     -42.030 -51.511  12.391  1.00  0.00     0.164 A 
HETATM   13  N   UNL     1     -41.461 -50.285  12.085  1.00  0.00    -0.170 N 
HETATM   14  H   UNL     1     -42.165 -54.739  12.777  1.00  0.00     0.173 HD
ENDROOT
BRANCH   1  15
HETATM   15  N   UNL     1     -42.364 -47.934  12.172  1.00  0.00    -0.090 N 
HETATM   16  C   UNL     1     -42.659 -47.105  11.093  1.00  0.00     0.054 A 
HETATM   17  C   UNL     1     -42.401 -45.814  11.511  1.00  0.00     0.054 A 
HETATM   18  C   UNL     1     -41.985 -45.934  12.847  1.00  0.00     0.028 A 
HETATM   19  N   UNL     1     -41.939 -47.213  13.234  1.00  0.00    -0.284 N 
ATOM     20  HN  UNL     1     -41.644 -47.570  14.142  1.00  0.00     0.188 HD
BRANCH  16  21
HETATM   21  C   UNL     1     -43.189 -47.561   9.772  1.00  0.00     0.055 C 
HETATM   22  C   UNL     1     -44.703 -47.457   9.702  1.00  0.00     0.011 C 
ENDBRANCH  16  21
BRANCH  18  23
HETATM   23  C   UNL     1     -41.642 -44.840  13.801  1.00  0.00     0.054 C 
HETATM   24  C   UNL     1     -42.682 -43.730  13.815  1.00  0.00     0.011 C 
ENDBRANCH  18  23
ENDBRANCH   1  15
BRANCH  13  25
HETATM   25  C   UNL     1     -40.069 -50.120  11.702  1.00  0.00     0.174 C 
BRANCH  25  26
HETATM   26  C   UNL     1     -39.171 -49.655  12.849  1.00  0.00     0.187 C 
BRANCH  26  27
HETATM   27  O   UNL     1     -39.051 -48.230  12.822  1.00  0.00    -0.394 OA
HETATM   28  C   UNL     1     -38.387 -47.749  13.985  1.00  0.00     0.201 C 
ENDBRANCH  26  27
ENDBRANCH  25  26
ENDBRANCH  13  25
TORSDOF 6
ENDMDL
