MODEL 1
REMARK VINA RESULT:      -6.4      0.000      0.000
REMARK  7 active torsions:
REMARK  status: ('A' for Active; 'I' for Inactive)
REMARK    1  A    between atoms: C_5  and  N_9 
REMARK    2  A    between atoms: N_9  and  C_10 
REMARK    3  A    between atoms: N_14  and  C_15 
REMARK    4  A    between atoms: C_15  and  C_16 
REMARK       I    between atoms: C_16  and  N_18 
REMARK    5  A    between atoms: N_18  and  C_19 
REMARK    6  A    between atoms: C_19  and  C_20 
REMARK    7  A    between atoms: C_20  and  O_21 
ROOT
HETATM    1  C   UNL     1     -42.841 -49.505  12.742  1.00  0.00     0.062 A 
HETATM    2  C   UNL     1     -41.789 -50.037  11.974  1.00  0.00     0.138 A 
HETATM    3  N   UNL     1     -41.475 -49.255  10.934  1.00  0.00    -0.307 N 
ATOM      4  HN  UNL     1     -40.739 -49.389  10.241  1.00  0.00     0.186 HD
HETATM    5  N   UNL     1     -42.371 -48.247  11.024  1.00  0.00    -0.293 N 
HETATM    6  C   UNL     1     -43.201 -48.348  12.103  1.00  0.00     0.141 A 
ENDROOT
BRANCH   1   7
HETATM    7  N   UNL     1     -43.439 -49.970  13.855  1.00  0.00    -0.383 N 
HETATM    8  H   UNL     1     -43.613 -49.330  14.625  1.00  0.00     0.160 HD
BRANCH   7   9
HETATM    9  C   UNL     1     -43.670 -51.386  14.133  1.00  0.00     0.082 C 
HETATM   10  C   UNL     1     -44.613 -52.016  13.093  1.00  0.00     0.025 C 
HETATM   11  C   UNL     1     -46.024 -51.430  13.155  1.00  0.00     0.006 C 
HETATM   12  C   UNL     1     -46.658 -51.558  14.550  1.00  0.00    -0.015 C 
HETATM   13  C   UNL     1     -47.077 -53.009  14.815  1.00  0.00     0.010 C 
HETATM   14  C   UNL     1     -45.717 -50.965  15.628  1.00  0.00    -0.013 C 
HETATM   15  C   UNL     1     -44.285 -51.534  15.539  1.00  0.00     0.029 C 
HETATM   16  C   UNL     1     -46.267 -51.118  17.047  1.00  0.00     0.010 C 
ENDBRANCH   7   9
ENDBRANCH   1   7
BRANCH   5  17
HETATM   17  C   UNL     1     -42.391 -47.227   9.996  1.00  0.00     0.250 C 
BRANCH  17  18
HETATM   18  C   UNL     1     -43.628 -47.347   9.138  1.00  0.00     0.237 C 
HETATM   19  O   UNL     1     -43.597 -47.841   8.012  1.00  0.00    -0.272 OA
HETATM   20  N   UNL     1     -44.792 -46.863   9.704  1.00  0.00    -0.358 N 
HETATM   21  H   UNL     1     -44.794 -46.584  10.680  1.00  0.00     0.162 HD
BRANCH  20  22
HETATM   22  C   UNL     1     -46.051 -46.879   8.979  1.00  0.00     0.148 C 
BRANCH  22  23
HETATM   23  C   UNL     1     -46.624 -48.286   8.832  1.00  0.00     0.183 C 
BRANCH  23  24
HETATM   24  O   UNL     1     -46.460 -48.744   7.490  1.00  0.00    -0.399 OA
HETATM   25  H   UNL     1     -45.952 -48.056   7.024  1.00  0.00     0.209 HD
ENDBRANCH  23  24
ENDBRANCH  22  23
ENDBRANCH  20  22
ENDBRANCH  17  18
ENDBRANCH   5  17
TORSDOF 7
ENDMDL
MODEL 2
REMARK VINA RESULT:      -6.3      1.846      2.366
REMARK  7 active torsions:
REMARK  status: ('A' for Active; 'I' for Inactive)
REMARK    1  A    between atoms: C_5  and  N_9 
REMARK    2  A    between atoms: N_9  and  C_10 
REMARK    3  A    between atoms: N_14  and  C_15 
REMARK    4  A    between atoms: C_15  and  C_16 
REMARK       I    between atoms: C_16  and  N_18 
REMARK    5  A    between atoms: N_18  and  C_19 
REMARK    6  A    between atoms: C_19  and  C_20 
REMARK    7  A    between atoms: C_20  and  O_21 
ROOT
HETATM    1  C   UNL     1     -41.757 -50.568  12.193  1.00  0.00     0.062 A 
HETATM    2  C   UNL     1     -40.821 -50.237  11.197  1.00  0.00     0.138 A 
HETATM    3  N   UNL     1     -41.010 -49.003  10.714  1.00  0.00    -0.307 N 
ATOM      4  HN  UNL     1     -40.462 -48.506  10.012  1.00  0.00     0.186 HD
HETATM    5  N   UNL     1     -42.105 -48.575  11.382  1.00  0.00    -0.293 N 
HETATM    6  C   UNL     1     -42.578 -49.476  12.290  1.00  0.00     0.141 A 
ENDROOT
BRANCH   1   7
HETATM    7  N   UNL     1     -41.903 -51.690  12.924  1.00  0.00    -0.383 N 
HETATM    8  H   UNL     1     -41.501 -51.726  13.856  1.00  0.00     0.160 HD
BRANCH   7   9
HETATM    9  C   UNL     1     -42.418 -52.953  12.397  1.00  0.00     0.082 C 
HETATM   10  C   UNL     1     -43.946 -52.908  12.225  1.00  0.00     0.025 C 
HETATM   11  C   UNL     1     -44.679 -52.781  13.562  1.00  0.00     0.006 C 
HETATM   12  C   UNL     1     -44.317 -53.906  14.545  1.00  0.00    -0.015 C 
HETATM   13  C   UNL     1     -44.984 -55.221  14.123  1.00  0.00     0.010 C 
HETATM   14  C   UNL     1     -42.780 -54.003  14.714  1.00  0.00    -0.013 C 
HETATM   15  C   UNL     1     -42.043 -54.095  13.361  1.00  0.00     0.029 C 
HETATM   16  C   UNL     1     -42.353 -55.146  15.636  1.00  0.00     0.010 C 
ENDBRANCH   7   9
ENDBRANCH   1   7
BRANCH   5  17
HETATM   17  C   UNL     1     -42.669 -47.281  11.056  1.00  0.00     0.250 C 
BRANCH  17  18
HETATM   18  C   UNL     1     -43.563 -47.369   9.843  1.00  0.00     0.237 C 
HETATM   19  O   UNL     1     -43.146 -47.752   8.750  1.00  0.00    -0.272 OA
HETATM   20  N   UNL     1     -44.876 -46.990  10.044  1.00  0.00    -0.358 N 
HETATM   21  H   UNL     1     -45.203 -46.806  10.987  1.00  0.00     0.162 HD
BRANCH  20  22
HETATM   22  C   UNL     1     -45.839 -46.989   8.957  1.00  0.00     0.148 C 
BRANCH  22  23
HETATM   23  C   UNL     1     -46.513 -48.346   8.769  1.00  0.00     0.183 C 
BRANCH  23  24
HETATM   24  O   UNL     1     -46.427 -48.750   7.403  1.00  0.00    -0.399 OA
HETATM   25  H   UNL     1     -47.227 -49.275   7.219  1.00  0.00     0.209 HD
ENDBRANCH  23  24
ENDBRANCH  22  23
ENDBRANCH  20  22
ENDBRANCH  17  18
ENDBRANCH   5  17
TORSDOF 7
ENDMDL
MODEL 3
REMARK VINA RESULT:      -6.1      3.333      3.835
REMARK  7 active torsions:
REMARK  status: ('A' for Active; 'I' for Inactive)
REMARK    1  A    between atoms: C_5  and  N_9 
REMARK    2  A    between atoms: N_9  and  C_10 
REMARK    3  A    between atoms: N_14  and  C_15 
REMARK    4  A    between atoms: C_15  and  C_16 
REMARK       I    between atoms: C_16  and  N_18 
REMARK    5  A    between atoms: N_18  and  C_19 
REMARK    6  A    between atoms: C_19  and  C_20 
REMARK    7  A    between atoms: C_20  and  O_21 
ROOT
HETATM    1  C   UNL     1     -42.134 -50.986  12.331  1.00  0.00     0.062 A 
HETATM    2  C   UNL     1     -41.131 -51.904  11.968  1.00  0.00     0.138 A 
HETATM    3  N   UNL     1     -39.942 -51.314  11.795  1.00  0.00    -0.307 N 
ATOM      4  HN  UNL     1     -39.049 -51.746  11.560  1.00  0.00     0.186 HD
HETATM    5  N   UNL     1     -40.213 -50.006  12.006  1.00  0.00    -0.293 N 
HETATM    6  C   UNL     1     -41.513 -49.766  12.344  1.00  0.00     0.141 A 
ENDROOT
BRANCH   1   7
HETATM    7  N   UNL     1     -43.439 -51.172  12.601  1.00  0.00    -0.383 N 
HETATM    8  H   UNL     1     -44.089 -50.405  12.452  1.00  0.00     0.160 HD
BRANCH   7   9
HETATM    9  C   UNL     1     -43.976 -52.339  13.301  1.00  0.00     0.082 C 
HETATM   10  C   UNL     1     -45.370 -52.719  12.771  1.00  0.00     0.025 C 
HETATM   11  C   UNL     1     -46.418 -51.645  13.066  1.00  0.00     0.006 C 
HETATM   12  C   UNL     1     -46.522 -51.313  14.564  1.00  0.00    -0.015 C 
HETATM   13  C   UNL     1     -47.238 -52.443  15.312  1.00  0.00     0.010 C 
HETATM   14  C   UNL     1     -45.127 -50.960  15.138  1.00  0.00    -0.013 C 
HETATM   15  C   UNL     1     -44.065 -52.031  14.808  1.00  0.00     0.029 C 
HETATM   16  C   UNL     1     -45.155 -50.679  16.641  1.00  0.00     0.010 C 
ENDBRANCH   7   9
ENDBRANCH   1   7
BRANCH   5  17
HETATM   17  C   UNL     1     -39.160 -49.029  11.820  1.00  0.00     0.250 C 
BRANCH  17  18
HETATM   18  C   UNL     1     -39.708 -47.624  11.885  1.00  0.00     0.237 C 
HETATM   19  O   UNL     1     -39.784 -47.001  12.943  1.00  0.00    -0.272 OA
HETATM   20  N   UNL     1     -40.116 -47.090  10.678  1.00  0.00    -0.358 N 
HETATM   21  H   UNL     1     -39.915 -47.589   9.818  1.00  0.00     0.162 HD
BRANCH  20  22
HETATM   22  C   UNL     1     -40.698 -45.761  10.596  1.00  0.00     0.148 C 
BRANCH  22  23
HETATM   23  C   UNL     1     -39.680 -44.700  10.186  1.00  0.00     0.183 C 
BRANCH  23  24
HETATM   24  O   UNL     1     -38.831 -45.206   9.156  1.00  0.00    -0.399 OA
HETATM   25  H   UNL     1     -37.945 -45.300   9.550  1.00  0.00     0.209 HD
ENDBRANCH  23  24
ENDBRANCH  22  23
ENDBRANCH  20  22
ENDBRANCH  17  18
ENDBRANCH   5  17
TORSDOF 7
ENDMDL
MODEL 4
REMARK VINA RESULT:      -6.1      1.638      2.221
REMARK  7 active torsions:
REMARK  status: ('A' for Active; 'I' for Inactive)
REMARK    1  A    between atoms: C_5  and  N_9 
REMARK    2  A    between atoms: N_9  and  C_10 
REMARK    3  A    between atoms: N_14  and  C_15 
REMARK    4  A    between atoms: C_15  and  C_16 
REMARK       I    between atoms: C_16  and  N_18 
REMARK    5  A    between atoms: N_18  and  C_19 
REMARK    6  A    between atoms: C_19  and  C_20 
REMARK    7  A    between atoms: C_20  and  O_21 
ROOT
HETATM    1  C   UNL     1     -41.647 -50.107  11.773  1.00  0.00     0.062 A 
HETATM    2  C   UNL     1     -40.296 -49.976  11.403  1.00  0.00     0.138 A 
HETATM    3  N   UNL     1     -39.968 -48.710  11.118  1.00  0.00    -0.307 N 
ATOM      4  HN  UNL     1     -39.057 -48.336  10.853  1.00  0.00     0.186 HD
HETATM    5  N   UNL     1     -41.137 -48.048  11.268  1.00  0.00    -0.293 N 
HETATM    6  C   UNL     1     -42.168 -48.845  11.674  1.00  0.00     0.141 A 
ENDROOT
BRANCH   1   7
HETATM    7  N   UNL     1     -42.357 -51.191  12.137  1.00  0.00    -0.383 N 
HETATM    8  H   UNL     1     -42.878 -51.700  11.429  1.00  0.00     0.160 HD
BRANCH   7   9
HETATM    9  C   UNL     1     -42.612 -51.579  13.524  1.00  0.00     0.082 C 
HETATM   10  C   UNL     1     -42.451 -53.096  13.721  1.00  0.00     0.025 C 
HETATM   11  C   UNL     1     -43.501 -53.899  12.952  1.00  0.00     0.006 C 
HETATM   12  C   UNL     1     -44.939 -53.496  13.317  1.00  0.00    -0.015 C 
HETATM   13  C   UNL     1     -45.310 -54.035  14.703  1.00  0.00     0.010 C 
HETATM   14  C   UNL     1     -45.127 -51.965  13.164  1.00  0.00    -0.013 C 
HETATM   15  C   UNL     1     -44.044 -51.160  13.912  1.00  0.00     0.029 C 
HETATM   16  C   UNL     1     -46.523 -51.493  13.571  1.00  0.00     0.010 C 
ENDBRANCH   7   9
ENDBRANCH   1   7
BRANCH   5  17
HETATM   17  C   UNL     1     -41.192 -46.634  10.957  1.00  0.00     0.250 C 
BRANCH  17  18
HETATM   18  C   UNL     1     -42.282 -46.341   9.955  1.00  0.00     0.237 C 
HETATM   19  O   UNL     1     -42.791 -45.227   9.851  1.00  0.00    -0.272 OA
HETATM   20  N   UNL     1     -42.666 -47.409   9.167  1.00  0.00    -0.358 N 
HETATM   21  H   UNL     1     -42.131 -48.271   9.198  1.00  0.00     0.162 HD
BRANCH  20  22
HETATM   22  C   UNL     1     -43.729 -47.282   8.185  1.00  0.00     0.148 C 
BRANCH  22  23
HETATM   23  C   UNL     1     -45.093 -47.685   8.742  1.00  0.00     0.183 C 
BRANCH  23  24
HETATM   24  O   UNL     1     -45.931 -48.161   7.689  1.00  0.00    -0.399 OA
HETATM   25  H   UNL     1     -45.353 -48.651   7.077  1.00  0.00     0.209 HD
ENDBRANCH  23  24
ENDBRANCH  22  23
ENDBRANCH  20  22
ENDBRANCH  17  18
ENDBRANCH   5  17
TORSDOF 7
ENDMDL
MODEL 5
REMARK VINA RESULT:      -6.1      4.314      6.240
REMARK  7 active torsions:
REMARK  status: ('A' for Active; 'I' for Inactive)
REMARK    1  A    between atoms: C_5  and  N_9 
REMARK    2  A    between atoms: N_9  and  C_10 
REMARK    3  A    between atoms: N_14  and  C_15 
REMARK    4  A    between atoms: C_15  and  C_16 
REMARK       I    between atoms: C_16  and  N_18 
REMARK    5  A    between atoms: N_18  and  C_19 
REMARK    6  A    between atoms: C_19  and  C_20 
REMARK    7  A    between atoms: C_20  and  O_21 
ROOT
HETATM    1  C   UNL     1     -41.649 -50.215  11.986  1.00  0.00     0.062 A 
HETATM    2  C   UNL     1     -41.475 -48.898  11.524  1.00  0.00     0.138 A 
HETATM    3  N   UNL     1     -40.196 -48.624  11.243  1.00  0.00    -0.307 N 
ATOM      4  HN  UNL     1     -39.800 -47.762  10.869  1.00  0.00     0.186 HD
HETATM    5  N   UNL     1     -39.555 -49.767  11.576  1.00  0.00    -0.293 N 
HETATM    6  C   UNL     1     -40.391 -50.754  12.013  1.00  0.00     0.141 A 
ENDROOT
BRANCH   1   7
HETATM    7  N   UNL     1     -42.761 -50.875  12.361  1.00  0.00    -0.383 N 
HETATM    8  H   UNL     1     -43.634 -50.684  11.878  1.00  0.00     0.160 HD
BRANCH   7   9
HETATM    9  C   UNL     1     -42.861 -51.704  13.562  1.00  0.00     0.082 C 
HETATM   10  C   UNL     1     -42.865 -53.202  13.211  1.00  0.00     0.025 C 
HETATM   11  C   UNL     1     -44.109 -53.612  12.421  1.00  0.00     0.006 C 
HETATM   12  C   UNL     1     -45.416 -53.263  13.150  1.00  0.00    -0.015 C 
HETATM   13  C   UNL     1     -45.648 -54.225  14.321  1.00  0.00     0.010 C 
HETATM   14  C   UNL     1     -45.429 -51.766  13.550  1.00  0.00    -0.013 C 
HETATM   15  C   UNL     1     -44.156 -51.349  14.317  1.00  0.00     0.029 C 
HETATM   16  C   UNL     1     -46.681 -51.370  14.334  1.00  0.00     0.010 C 
ENDBRANCH   7   9
ENDBRANCH   1   7
BRANCH   5  17
HETATM   17  C   UNL     1     -38.111 -49.819  11.483  1.00  0.00     0.250 C 
BRANCH  17  18
HETATM   18  C   UNL     1     -37.516 -50.530  12.674  1.00  0.00     0.237 C 
HETATM   19  O   UNL     1     -37.059 -51.669  12.594  1.00  0.00    -0.272 OA
HETATM   20  N   UNL     1     -37.522 -49.814  13.856  1.00  0.00    -0.358 N 
HETATM   21  H   UNL     1     -37.788 -48.835  13.845  1.00  0.00     0.162 HD
BRANCH  20  22
HETATM   22  C   UNL     1     -37.015 -50.387  15.091  1.00  0.00     0.148 C 
BRANCH  22  23
HETATM   23  C   UNL     1     -36.250 -49.372  15.938  1.00  0.00     0.183 C 
BRANCH  23  24
HETATM   24  O   UNL     1     -34.919 -49.832  16.169  1.00  0.00    -0.399 OA
HETATM   25  H   UNL     1     -34.659 -50.337  15.378  1.00  0.00     0.209 HD
ENDBRANCH  23  24
ENDBRANCH  22  23
ENDBRANCH  20  22
ENDBRANCH  17  18
ENDBRANCH   5  17
TORSDOF 7
ENDMDL
MODEL 6
REMARK VINA RESULT:      -5.9      2.285      3.246
REMARK  7 active torsions:
REMARK  status: ('A' for Active; 'I' for Inactive)
REMARK    1  A    between atoms: C_5  and  N_9 
REMARK    2  A    between atoms: N_9  and  C_10 
REMARK    3  A    between atoms: N_14  and  C_15 
REMARK    4  A    between atoms: C_15  and  C_16 
REMARK       I    between atoms: C_16  and  N_18 
REMARK    5  A    between atoms: N_18  and  C_19 
REMARK    6  A    between atoms: C_19  and  C_20 
REMARK    7  A    between atoms: C_20  and  O_21 
ROOT
HETATM    1  C   UNL     1     -41.389 -52.271  13.368  1.00  0.00     0.062 A 
HETATM    2  C   UNL     1     -40.307 -51.591  13.959  1.00  0.00     0.138 A 
HETATM    3  N   UNL     1     -39.872 -50.578  13.201  1.00  0.00    -0.307 N 
ATOM      4  HN  UNL     1     -39.126 -49.911  13.402  1.00  0.00     0.186 HD
HETATM    5  N   UNL     1     -40.659 -50.652  12.104  1.00  0.00    -0.293 N 
HETATM    6  C   UNL     1     -41.593 -51.644  12.169  1.00  0.00     0.141 A 
ENDROOT
BRANCH   1   7
HETATM    7  N   UNL     1     -42.108 -53.323  13.803  1.00  0.00    -0.383 N 
HETATM    8  H   UNL     1     -42.157 -54.158  13.228  1.00  0.00     0.160 HD
BRANCH   7   9
HETATM    9  C   UNL     1     -43.008 -53.284  14.955  1.00  0.00     0.082 C 
HETATM   10  C   UNL     1     -43.670 -54.651  15.196  1.00  0.00     0.025 C 
HETATM   11  C   UNL     1     -44.607 -55.055  14.056  1.00  0.00     0.006 C 
HETATM   12  C   UNL     1     -45.700 -54.008  13.788  1.00  0.00    -0.015 C 
HETATM   13  C   UNL     1     -46.764 -54.053  14.890  1.00  0.00     0.010 C 
HETATM   14  C   UNL     1     -45.069 -52.609  13.576  1.00  0.00    -0.013 C 
HETATM   15  C   UNL     1     -44.098 -52.221  14.711  1.00  0.00     0.029 C 
HETATM   16  C   UNL     1     -46.112 -51.511  13.364  1.00  0.00     0.010 C 
ENDBRANCH   7   9
ENDBRANCH   1   7
BRANCH   5  17
HETATM   17  C   UNL     1     -40.419 -49.743  11.002  1.00  0.00     0.250 C 
BRANCH  17  18
HETATM   18  C   UNL     1     -41.387 -48.585  11.034  1.00  0.00     0.237 C 
HETATM   19  O   UNL     1     -41.476 -47.835  12.005  1.00  0.00    -0.272 OA
HETATM   20  N   UNL     1     -42.164 -48.429   9.902  1.00  0.00    -0.358 N 
HETATM   21  H   UNL     1     -41.966 -48.990   9.080  1.00  0.00     0.162 HD
BRANCH  20  22
HETATM   22  C   UNL     1     -43.164 -47.379   9.809  1.00  0.00     0.148 C 
BRANCH  22  23
HETATM   23  C   UNL     1     -43.565 -47.078   8.367  1.00  0.00     0.183 C 
BRANCH  23  24
HETATM   24  O   UNL     1     -42.731 -46.052   7.830  1.00  0.00    -0.399 OA
HETATM   25  H   UNL     1     -42.074 -45.842   8.518  1.00  0.00     0.209 HD
ENDBRANCH  23  24
ENDBRANCH  22  23
ENDBRANCH  20  22
ENDBRANCH  17  18
ENDBRANCH   5  17
TORSDOF 7
ENDMDL
MODEL 7
REMARK VINA RESULT:      -5.8      3.225      3.897
REMARK  7 active torsions:
REMARK  status: ('A' for Active; 'I' for Inactive)
REMARK    1  A    between atoms: C_5  and  N_9 
REMARK    2  A    between atoms: N_9  and  C_10 
REMARK    3  A    between atoms: N_14  and  C_15 
REMARK    4  A    between atoms: C_15  and  C_16 
REMARK       I    between atoms: C_16  and  N_18 
REMARK    5  A    between atoms: N_18  and  C_19 
REMARK    6  A    between atoms: C_19  and  C_20 
REMARK    7  A    between atoms: C_20  and  O_21 
ROOT
HETATM    1  C   UNL     1     -41.757 -51.031  12.687  1.00  0.00     0.062 A 
HETATM    2  C   UNL     1     -40.650 -51.153  11.827  1.00  0.00     0.138 A 
HETATM    3  N   UNL     1     -40.516 -50.093  11.021  1.00  0.00    -0.307 N 
ATOM      4  HN  UNL     1     -39.790 -49.912  10.328  1.00  0.00     0.186 HD
HETATM    5  N   UNL     1     -41.576 -49.320  11.348  1.00  0.00    -0.293 N 
HETATM    6  C   UNL     1     -42.339 -49.838  12.354  1.00  0.00     0.141 A 
ENDROOT
BRANCH   1   7
HETATM    7  N   UNL     1     -42.224 -51.860  13.639  1.00  0.00    -0.383 N 
HETATM    8  H   UNL     1     -42.233 -51.547  14.606  1.00  0.00     0.160 HD
BRANCH   7   9
HETATM    9  C   UNL     1     -42.531 -53.273  13.421  1.00  0.00     0.082 C 
HETATM   10  C   UNL     1     -43.711 -53.447  12.449  1.00  0.00     0.025 C 
HETATM   11  C   UNL     1     -45.023 -52.908  13.022  1.00  0.00     0.006 C 
HETATM   12  C   UNL     1     -45.386 -53.545  14.374  1.00  0.00    -0.015 C 
HETATM   13  C   UNL     1     -45.881 -54.982  14.171  1.00  0.00     0.010 C 
HETATM   14  C   UNL     1     -44.203 -53.419  15.366  1.00  0.00    -0.013 C 
HETATM   15  C   UNL     1     -42.875 -53.932  14.770  1.00  0.00     0.029 C 
HETATM   16  C   UNL     1     -44.481 -54.089  16.713  1.00  0.00     0.010 C 
ENDBRANCH   7   9
ENDBRANCH   1   7
BRANCH   5  17
HETATM   17  C   UNL     1     -41.813 -48.098  10.607  1.00  0.00     0.250 C 
BRANCH  17  18
HETATM   18  C   UNL     1     -40.739 -47.076  10.889  1.00  0.00     0.237 C 
HETATM   19  O   UNL     1     -39.861 -47.266  11.730  1.00  0.00    -0.272 OA
HETATM   20  N   UNL     1     -40.812 -45.917  10.141  1.00  0.00    -0.358 N 
HETATM   21  H   UNL     1     -41.472 -45.859   9.373  1.00  0.00     0.162 HD
BRANCH  20  22
HETATM   22  C   UNL     1     -39.865 -44.831  10.333  1.00  0.00     0.148 C 
BRANCH  22  23
HETATM   23  C   UNL     1     -40.381 -43.768  11.300  1.00  0.00     0.183 C 
BRANCH  23  24
HETATM   24  O   UNL     1     -40.663 -42.560  10.595  1.00  0.00    -0.399 OA
HETATM   25  H   UNL     1     -40.938 -41.907  11.263  1.00  0.00     0.209 HD
ENDBRANCH  23  24
ENDBRANCH  22  23
ENDBRANCH  20  22
ENDBRANCH  17  18
ENDBRANCH   5  17
TORSDOF 7
ENDMDL
MODEL 8
REMARK VINA RESULT:      -5.6      1.942      2.448
REMARK  7 active torsions:
REMARK  status: ('A' for Active; 'I' for Inactive)
REMARK    1  A    between atoms: C_5  and  N_9 
REMARK    2  A    between atoms: N_9  and  C_10 
REMARK    3  A    between atoms: N_14  and  C_15 
REMARK    4  A    between atoms: C_15  and  C_16 
REMARK       I    between atoms: C_16  and  N_18 
REMARK    5  A    between atoms: N_18  and  C_19 
REMARK    6  A    between atoms: C_19  and  C_20 
REMARK    7  A    between atoms: C_20  and  O_21 
ROOT
HETATM    1  C   UNL     1     -42.188 -51.783  12.845  1.00  0.00     0.062 A 
HETATM    2  C   UNL     1     -41.366 -52.224  11.791  1.00  0.00     0.138 A 
HETATM    3  N   UNL     1     -40.793 -51.207  11.137  1.00  0.00    -0.307 N 
ATOM      4  HN  UNL     1     -40.135 -51.245  10.359  1.00  0.00     0.186 HD
HETATM    5  N   UNL     1     -41.297 -50.117  11.758  1.00  0.00    -0.293 N 
HETATM    6  C   UNL     1     -42.128 -50.416  12.798  1.00  0.00     0.141 A 
ENDROOT
BRANCH   1   7
HETATM    7  N   UNL     1     -42.923 -52.477  13.734  1.00  0.00    -0.383 N 
HETATM    8  H   UNL     1     -42.469 -52.856  14.560  1.00  0.00     0.160 HD
BRANCH   7   9
HETATM    9  C   UNL     1     -44.299 -52.915  13.501  1.00  0.00     0.082 C 
HETATM   10  C   UNL     1     -45.251 -51.717  13.347  1.00  0.00     0.025 C 
HETATM   11  C   UNL     1     -45.376 -50.902  14.635  1.00  0.00     0.006 C 
HETATM   12  C   UNL     1     -45.829 -51.753  15.833  1.00  0.00    -0.015 C 
HETATM   13  C   UNL     1     -47.320 -52.091  15.714  1.00  0.00     0.010 C 
HETATM   14  C   UNL     1     -44.911 -52.991  15.995  1.00  0.00    -0.013 C 
HETATM   15  C   UNL     1     -44.760 -53.789  14.683  1.00  0.00     0.029 C 
HETATM   16  C   UNL     1     -45.348 -53.911  17.136  1.00  0.00     0.010 C 
ENDBRANCH   7   9
ENDBRANCH   1   7
BRANCH   5  17
HETATM   17  C   UNL     1     -40.958 -48.801  11.257  1.00  0.00     0.250 C 
BRANCH  17  18
HETATM   18  C   UNL     1     -42.184 -47.925  11.162  1.00  0.00     0.237 C 
HETATM   19  O   UNL     1     -42.413 -47.031  11.976  1.00  0.00    -0.272 OA
HETATM   20  N   UNL     1     -43.027 -48.197  10.102  1.00  0.00    -0.358 N 
HETATM   21  H   UNL     1     -42.733 -48.854   9.387  1.00  0.00     0.162 HD
BRANCH  20  22
HETATM   22  C   UNL     1     -44.262 -47.459   9.908  1.00  0.00     0.148 C 
BRANCH  22  23
HETATM   23  C   UNL     1     -44.112 -46.317   8.906  1.00  0.00     0.183 C 
BRANCH  23  24
HETATM   24  O   UNL     1     -45.338 -45.594   8.798  1.00  0.00    -0.399 OA
HETATM   25  H   UNL     1     -45.594 -45.624   7.859  1.00  0.00     0.209 HD
ENDBRANCH  23  24
ENDBRANCH  22  23
ENDBRANCH  20  22
ENDBRANCH  17  18
ENDBRANCH   5  17
TORSDOF 7
ENDMDL
MODEL 9
REMARK VINA RESULT:      -5.5      4.421      6.175
REMARK  7 active torsions:
REMARK  status: ('A' for Active; 'I' for Inactive)
REMARK    1  A    between atoms: C_5  and  N_9 
REMARK    2  A    between atoms: N_9  and  C_10 
REMARK    3  A    between atoms: N_14  and  C_15 
REMARK    4  A    between atoms: C_15  and  C_16 
REMARK       I    between atoms: C_16  and  N_18 
REMARK    5  A    between atoms: N_18  and  C_19 
REMARK    6  A    between atoms: C_19  and  C_20 
REMARK    7  A    between atoms: C_20  and  O_21 
ROOT
HETATM    1  C   UNL     1     -41.998 -51.403  12.515  1.00  0.00     0.062 A 
HETATM    2  C   UNL     1     -40.856 -52.216  12.395  1.00  0.00     0.138 A 
HETATM    3  N   UNL     1     -39.722 -51.528  12.578  1.00  0.00    -0.307 N 
ATOM      4  HN  UNL     1     -38.763 -51.874  12.574  1.00  0.00     0.186 HD
HETATM    5  N   UNL     1     -40.158 -50.262  12.769  1.00  0.00    -0.293 N 
HETATM    6  C   UNL     1     -41.517 -50.144  12.753  1.00  0.00     0.141 A 
ENDROOT
BRANCH   1   7
HETATM    7  N   UNL     1     -43.306 -51.706  12.412  1.00  0.00    -0.383 N 
HETATM    8  H   UNL     1     -43.909 -51.105  11.859  1.00  0.00     0.160 HD
BRANCH   7   9
HETATM    9  C   UNL     1     -43.979 -52.726  13.215  1.00  0.00     0.082 C 
HETATM   10  C   UNL     1     -45.428 -52.944  12.745  1.00  0.00     0.025 C 
HETATM   11  C   UNL     1     -46.306 -51.712  12.970  1.00  0.00     0.006 C 
HETATM   12  C   UNL     1     -46.317 -51.252  14.437  1.00  0.00    -0.015 C 
HETATM   13  C   UNL     1     -47.162 -52.206  15.289  1.00  0.00     0.010 C 
HETATM   14  C   UNL     1     -44.870 -51.057  14.954  1.00  0.00    -0.013 C 
HETATM   15  C   UNL     1     -43.979 -52.290  14.693  1.00  0.00     0.029 C 
HETATM   16  C   UNL     1     -44.813 -50.657  16.429  1.00  0.00     0.010 C 
ENDBRANCH   7   9
ENDBRANCH   1   7
BRANCH   5  17
HETATM   17  C   UNL     1     -39.187 -49.198  12.921  1.00  0.00     0.250 C 
BRANCH  17  18
HETATM   18  C   UNL     1     -38.183 -49.530  13.998  1.00  0.00     0.237 C 
HETATM   19  O   UNL     1     -37.372 -50.448  13.875  1.00  0.00    -0.272 OA
HETATM   20  N   UNL     1     -38.239 -48.736  15.127  1.00  0.00    -0.358 N 
HETATM   21  H   UNL     1     -38.834 -47.914  15.130  1.00  0.00     0.162 HD
BRANCH  20  22
HETATM   22  C   UNL     1     -37.358 -48.965  16.259  1.00  0.00     0.148 C 
BRANCH  22  23
HETATM   23  C   UNL     1     -36.098 -48.105  16.205  1.00  0.00     0.183 C 
BRANCH  23  24
HETATM   24  O   UNL     1     -34.937 -48.929  16.299  1.00  0.00    -0.399 OA
HETATM   25  H   UNL     1     -34.972 -49.358  17.172  1.00  0.00     0.209 HD
ENDBRANCH  23  24
ENDBRANCH  22  23
ENDBRANCH  20  22
ENDBRANCH  17  18
ENDBRANCH   5  17
TORSDOF 7
ENDMDL
