MODEL 1
REMARK VINA RESULT:      -5.5      0.000      0.000
REMARK  5 active torsions:
REMARK  status: ('A' for Active; 'I' for Inactive)
REMARK    1  A    between atoms: C_1  and  C_2 
REMARK    2  A    between atoms: C_1  and  N_9 
REMARK    3  A    between atoms: C_2  and  N_3 
REMARK    4  A    between atoms: N_9  and  C_10 
REMARK    5  A    between atoms: C_10  and  C_11 
ROOT
HETATM    1  N   UNL     1     -42.868 -52.708  11.765  1.00  0.00     0.087 N 
HETATM    2  H   UNL     1     -42.962 -53.690  11.501  1.00  0.00     0.316 HD
ENDROOT
BRANCH   1   3
HETATM    3  C   UNL     1     -41.486 -52.368  12.129  1.00  0.00     0.291 C 
BRANCH   3   4
HETATM    4  C   UNL     1     -41.122 -50.885  12.003  1.00  0.00     0.178 C 
BRANCH   4   5
HETATM    5  N   UNL     1     -39.685 -50.681  12.024  1.00  0.00    -0.302 N 
HETATM    6  C   UNL     1     -38.813 -51.097  12.987  1.00  0.00     0.111 A 
HETATM    7  C   UNL     1     -37.576 -50.640  12.592  1.00  0.00     0.037 A 
HETATM    8  C   UNL     1     -37.812 -49.957  11.385  1.00  0.00     0.108 A 
HETATM    9  N   UNL     1     -39.101 -49.979  11.035  1.00  0.00    -0.310 N 
ATOM     10  HN  UNL     1     -39.539 -49.562  10.214  1.00  0.00     0.186 HD
ENDBRANCH   4   5
ENDBRANCH   3   4
ENDBRANCH   1   3
BRANCH   1  11
HETATM   11  C   UNL     1     -43.818 -52.411  12.845  1.00  0.00     0.301 C 
BRANCH  11  12
HETATM   12  C   UNL     1     -45.265 -52.802  12.466  1.00  0.00     0.149 C 
HETATM   13  C   UNL     1     -46.250 -51.665  12.766  1.00  0.00     0.034 C 
HETATM   14  C   UNL     1     -46.500 -51.502  14.262  1.00  0.00     0.004 C 
HETATM   15  C   UNL     1     -46.877 -52.839  14.885  1.00  0.00     0.026 C 
HETATM   16  C   UNL     1     -45.873 -53.922  14.519  1.00  0.00     0.168 C 
HETATM   17  O   UNL     1     -45.688 -54.017  13.109  1.00  0.00    -0.384 OA
ENDBRANCH  11  12
ENDBRANCH   1  11
TORSDOF 5
ENDMDL
MODEL 2
REMARK VINA RESULT:      -5.2      2.170      2.957
REMARK  5 active torsions:
REMARK  status: ('A' for Active; 'I' for Inactive)
REMARK    1  A    between atoms: C_1  and  C_2 
REMARK    2  A    between atoms: C_1  and  N_9 
REMARK    3  A    between atoms: C_2  and  N_3 
REMARK    4  A    between atoms: N_9  and  C_10 
REMARK    5  A    between atoms: C_10  and  C_11 
ROOT
HETATM    1  N   UNL     1     -42.835 -51.764  12.056  1.00  0.00     0.087 N 
HETATM    2  H   UNL     1     -42.372 -52.453  11.461  1.00  0.00     0.316 HD
ENDROOT
BRANCH   1   3
HETATM    3  C   UNL     1     -41.874 -50.844  12.679  1.00  0.00     0.291 C 
BRANCH   3   4
HETATM    4  C   UNL     1     -41.092 -49.956  11.705  1.00  0.00     0.178 C 
BRANCH   4   5
HETATM    5  N   UNL     1     -41.920 -48.892  11.166  1.00  0.00    -0.302 N 
HETATM    6  C   UNL     1     -42.979 -48.289  11.777  1.00  0.00     0.111 A 
HETATM    7  C   UNL     1     -43.465 -47.377  10.868  1.00  0.00     0.037 A 
HETATM    8  C   UNL     1     -42.634 -47.514   9.741  1.00  0.00     0.108 A 
HETATM    9  N   UNL     1     -41.689 -48.441   9.919  1.00  0.00    -0.310 N 
ATOM     10  HN  UNL     1     -40.964 -48.736   9.265  1.00  0.00     0.186 HD
ENDBRANCH   4   5
ENDBRANCH   3   4
ENDBRANCH   1   3
BRANCH   1  11
HETATM   11  C   UNL     1     -43.659 -52.466  13.047  1.00  0.00     0.301 C 
BRANCH  11  12
HETATM   12  C   UNL     1     -45.064 -52.803  12.498  1.00  0.00     0.149 C 
HETATM   13  C   UNL     1     -46.070 -51.687  12.809  1.00  0.00     0.034 C 
HETATM   14  C   UNL     1     -46.461 -51.662  14.283  1.00  0.00     0.004 C 
HETATM   15  C   UNL     1     -46.900 -53.046  14.739  1.00  0.00     0.026 C 
HETATM   16  C   UNL     1     -45.868 -54.102  14.369  1.00  0.00     0.168 C 
HETATM   17  O   UNL     1     -45.550 -54.068  12.981  1.00  0.00    -0.384 OA
ENDBRANCH  11  12
ENDBRANCH   1  11
TORSDOF 5
ENDMDL
MODEL 3
REMARK VINA RESULT:      -5.1      1.870      2.375
REMARK  5 active torsions:
REMARK  status: ('A' for Active; 'I' for Inactive)
REMARK    1  A    between atoms: C_1  and  C_2 
REMARK    2  A    between atoms: C_1  and  N_9 
REMARK    3  A    between atoms: C_2  and  N_3 
REMARK    4  A    between atoms: N_9  and  C_10 
REMARK    5  A    between atoms: C_10  and  C_11 
ROOT
HETATM    1  N   UNL     1     -43.482 -51.191  12.490  1.00  0.00     0.087 N 
HETATM    2  H   UNL     1     -43.879 -51.072  11.556  1.00  0.00     0.316 HD
ENDROOT
BRANCH   1   3
HETATM    3  C   UNL     1     -42.017 -51.082  12.480  1.00  0.00     0.291 C 
BRANCH   3   4
HETATM    4  C   UNL     1     -41.276 -52.294  11.904  1.00  0.00     0.178 C 
BRANCH   4   5
HETATM    5  N   UNL     1     -40.451 -52.944  12.906  1.00  0.00    -0.302 N 
HETATM    6  C   UNL     1     -39.678 -52.336  13.851  1.00  0.00     0.111 A 
HETATM    7  C   UNL     1     -39.058 -53.354  14.538  1.00  0.00     0.037 A 
HETATM    8  C   UNL     1     -39.518 -54.535  13.926  1.00  0.00     0.108 A 
HETATM    9  N   UNL     1     -40.369 -54.287  12.926  1.00  0.00    -0.310 N 
ATOM     10  HN  UNL     1     -40.844 -54.957  12.322  1.00  0.00     0.186 HD
ENDBRANCH   4   5
ENDBRANCH   3   4
ENDBRANCH   1   3
BRANCH   1  11
HETATM   11  C   UNL     1     -43.944 -52.468  13.047  1.00  0.00     0.301 C 
BRANCH  11  12
HETATM   12  C   UNL     1     -45.396 -52.790  12.630  1.00  0.00     0.149 C 
HETATM   13  C   UNL     1     -46.339 -51.616  12.925  1.00  0.00     0.034 C 
HETATM   14  C   UNL     1     -46.616 -51.464  14.418  1.00  0.00     0.004 C 
HETATM   15  C   UNL     1     -47.064 -52.793  15.011  1.00  0.00     0.026 C 
HETATM   16  C   UNL     1     -46.099 -53.913  14.650  1.00  0.00     0.168 C 
HETATM   17  O   UNL     1     -45.886 -53.995  13.244  1.00  0.00    -0.384 OA
ENDBRANCH  11  12
ENDBRANCH   1  11
TORSDOF 5
ENDMDL
MODEL 4
REMARK VINA RESULT:      -4.9      1.156      1.850
REMARK  5 active torsions:
REMARK  status: ('A' for Active; 'I' for Inactive)
REMARK    1  A    between atoms: C_1  and  C_2 
REMARK    2  A    between atoms: C_1  and  N_9 
REMARK    3  A    between atoms: C_2  and  N_3 
REMARK    4  A    between atoms: N_9  and  C_10 
REMARK    5  A    between atoms: C_10  and  C_11 
ROOT
HETATM    1  N   UNL     1     -42.988 -51.662  12.414  1.00  0.00     0.087 N 
HETATM    2  H   UNL     1     -43.542 -51.167  11.713  1.00  0.00     0.316 HD
ENDROOT
BRANCH   1   3
HETATM    3  C   UNL     1     -41.564 -51.705  12.055  1.00  0.00     0.291 C 
BRANCH   3   4
HETATM    4  C   UNL     1     -40.888 -50.339  11.896  1.00  0.00     0.178 C 
BRANCH   4   5
HETATM    5  N   UNL     1     -39.442 -50.444  11.964  1.00  0.00    -0.302 N 
HETATM    6  C   UNL     1     -38.707 -51.001  12.969  1.00  0.00     0.111 A 
HETATM    7  C   UNL     1     -37.390 -50.832  12.606  1.00  0.00     0.037 A 
HETATM    8  C   UNL     1     -37.439 -50.160  11.371  1.00  0.00     0.108 A 
HETATM    9  N   UNL     1     -38.693 -49.919  10.976  1.00  0.00    -0.310 N 
ATOM     10  HN  UNL     1     -39.007 -49.450  10.128  1.00  0.00     0.186 HD
ENDBRANCH   4   5
ENDBRANCH   3   4
ENDBRANCH   1   3
BRANCH   1  11
HETATM   11  C   UNL     1     -43.555 -53.001  12.612  1.00  0.00     0.301 C 
BRANCH  11  12
HETATM   12  C   UNL     1     -43.670 -53.364  14.110  1.00  0.00     0.149 C 
HETATM   13  C   UNL     1     -43.973 -54.856  14.304  1.00  0.00     0.034 C 
HETATM   14  C   UNL     1     -45.411 -55.203  13.929  1.00  0.00     0.004 C 
HETATM   15  C   UNL     1     -46.383 -54.268  14.636  1.00  0.00     0.026 C 
HETATM   16  C   UNL     1     -46.001 -52.810  14.425  1.00  0.00     0.168 C 
HETATM   17  O   UNL     1     -44.647 -52.559  14.793  1.00  0.00    -0.384 OA
ENDBRANCH  11  12
ENDBRANCH   1  11
TORSDOF 5
ENDMDL
MODEL 5
REMARK VINA RESULT:      -4.6      5.338      7.897
REMARK  5 active torsions:
REMARK  status: ('A' for Active; 'I' for Inactive)
REMARK    1  A    between atoms: C_1  and  C_2 
REMARK    2  A    between atoms: C_1  and  N_9 
REMARK    3  A    between atoms: C_2  and  N_3 
REMARK    4  A    between atoms: N_9  and  C_10 
REMARK    5  A    between atoms: C_10  and  C_11 
ROOT
HETATM    1  N   UNL     1     -42.785 -47.700  11.165  1.00  0.00     0.087 N 
HETATM    2  H   UNL     1     -43.664 -48.139  11.443  1.00  0.00     0.316 HD
ENDROOT
BRANCH   1   3
HETATM    3  C   UNL     1     -42.583 -47.753   9.711  1.00  0.00     0.291 C 
BRANCH   3   4
HETATM    4  C   UNL     1     -43.505 -46.846   8.889  1.00  0.00     0.178 C 
BRANCH   4   5
HETATM    5  N   UNL     1     -44.824 -47.428   8.723  1.00  0.00    -0.302 N 
HETATM    6  C   UNL     1     -45.941 -47.148   9.454  1.00  0.00     0.111 A 
HETATM    7  C   UNL     1     -46.928 -47.969   8.958  1.00  0.00     0.037 A 
HETATM    8  C   UNL     1     -46.302 -48.707   7.936  1.00  0.00     0.108 A 
HETATM    9  N   UNL     1     -45.015 -48.380   7.791  1.00  0.00    -0.310 N 
ATOM     10  HN  UNL     1     -44.339 -48.760   7.130  1.00  0.00     0.186 HD
ENDBRANCH   4   5
ENDBRANCH   3   4
ENDBRANCH   1   3
BRANCH   1  11
HETATM   11  C   UNL     1     -41.683 -48.328  11.905  1.00  0.00     0.301 C 
BRANCH  11  12
HETATM   12  C   UNL     1     -40.307 -47.769  11.477  1.00  0.00     0.149 C 
HETATM   13  C   UNL     1     -39.167 -48.711  11.885  1.00  0.00     0.034 C 
HETATM   14  C   UNL     1     -38.908 -48.682  13.388  1.00  0.00     0.004 C 
HETATM   15  C   UNL     1     -38.737 -47.247  13.867  1.00  0.00     0.026 C 
HETATM   16  C   UNL     1     -39.887 -46.367  13.400  1.00  0.00     0.168 C 
HETATM   17  O   UNL     1     -40.073 -46.445  11.989  1.00  0.00    -0.384 OA
ENDBRANCH  11  12
ENDBRANCH   1  11
TORSDOF 5
ENDMDL
MODEL 6
REMARK VINA RESULT:      -4.6      3.632      5.142
REMARK  5 active torsions:
REMARK  status: ('A' for Active; 'I' for Inactive)
REMARK    1  A    between atoms: C_1  and  C_2 
REMARK    2  A    between atoms: C_1  and  N_9 
REMARK    3  A    between atoms: C_2  and  N_3 
REMARK    4  A    between atoms: N_9  and  C_10 
REMARK    5  A    between atoms: C_10  and  C_11 
ROOT
HETATM    1  N   UNL     1     -42.739 -50.149  12.245  1.00  0.00     0.087 N 
HETATM    2  H   UNL     1     -42.945 -50.536  11.323  1.00  0.00     0.316 HD
ENDROOT
BRANCH   1   3
HETATM    3  C   UNL     1     -41.725 -49.088  12.178  1.00  0.00     0.291 C 
BRANCH   3   4
HETATM    4  C   UNL     1     -41.234 -48.740  10.769  1.00  0.00     0.178 C 
BRANCH   4   5
HETATM    5  N   UNL     1     -42.137 -47.825  10.095  1.00  0.00    -0.302 N 
HETATM    6  C   UNL     1     -42.548 -46.603  10.542  1.00  0.00     0.111 A 
HETATM    7  C   UNL     1     -43.422 -46.133   9.589  1.00  0.00     0.037 A 
HETATM    8  C   UNL     1     -43.473 -47.146   8.614  1.00  0.00     0.108 A 
HETATM    9  N   UNL     1     -42.690 -48.183   8.922  1.00  0.00    -0.310 N 
ATOM     10  HN  UNL     1     -42.544 -49.042   8.392  1.00  0.00     0.186 HD
ENDBRANCH   4   5
ENDBRANCH   3   4
ENDBRANCH   1   3
BRANCH   1  11
HETATM   11  C   UNL     1     -42.347 -51.240  13.145  1.00  0.00     0.301 C 
BRANCH  11  12
HETATM   12  C   UNL     1     -41.751 -52.439  12.375  1.00  0.00     0.149 C 
HETATM   13  C   UNL     1     -42.314 -53.772  12.888  1.00  0.00     0.034 C 
HETATM   14  C   UNL     1     -41.750 -54.144  14.255  1.00  0.00     0.004 C 
HETATM   15  C   UNL     1     -40.229 -54.072  14.238  1.00  0.00     0.026 C 
HETATM   16  C   UNL     1     -39.746 -52.737  13.690  1.00  0.00     0.168 C 
HETATM   17  O   UNL     1     -40.313 -52.453  12.414  1.00  0.00    -0.384 OA
ENDBRANCH  11  12
ENDBRANCH   1  11
TORSDOF 5
ENDMDL
MODEL 7
REMARK VINA RESULT:      -4.5      2.709      3.082
REMARK  5 active torsions:
REMARK  status: ('A' for Active; 'I' for Inactive)
REMARK    1  A    between atoms: C_1  and  C_2 
REMARK    2  A    between atoms: C_1  and  N_9 
REMARK    3  A    between atoms: C_2  and  N_3 
REMARK    4  A    between atoms: N_9  and  C_10 
REMARK    5  A    between atoms: C_10  and  C_11 
ROOT
HETATM    1  N   UNL     1     -42.630 -50.547  12.116  1.00  0.00     0.087 N 
HETATM    2  H   UNL     1     -42.397 -51.532  11.983  1.00  0.00     0.316 HD
ENDROOT
BRANCH   1   3
HETATM    3  C   UNL     1     -41.447 -49.746  12.458  1.00  0.00     0.291 C 
BRANCH   3   4
HETATM    4  C   UNL     1     -40.613 -49.269  11.264  1.00  0.00     0.178 C 
BRANCH   4   5
HETATM    5  N   UNL     1     -40.466 -47.825  11.254  1.00  0.00    -0.302 N 
HETATM    6  C   UNL     1     -39.770 -47.066  12.149  1.00  0.00     0.111 A 
HETATM    7  C   UNL     1     -39.952 -45.761  11.753  1.00  0.00     0.037 A 
HETATM    8  C   UNL     1     -40.776 -45.840  10.615  1.00  0.00     0.108 A 
HETATM    9  N   UNL     1     -41.093 -47.101  10.308  1.00  0.00    -0.310 N 
ATOM     10  HN  UNL     1     -41.673 -47.436   9.539  1.00  0.00     0.186 HD
ENDBRANCH   4   5
ENDBRANCH   3   4
ENDBRANCH   1   3
BRANCH   1  11
HETATM   11  C   UNL     1     -43.688 -50.439  13.128  1.00  0.00     0.301 C 
BRANCH  11  12
HETATM   12  C   UNL     1     -44.146 -51.824  13.637  1.00  0.00     0.149 C 
HETATM   13  C   UNL     1     -45.399 -52.309  12.895  1.00  0.00     0.034 C 
HETATM   14  C   UNL     1     -46.649 -51.546  13.322  1.00  0.00     0.004 C 
HETATM   15  C   UNL     1     -46.778 -51.546  14.838  1.00  0.00     0.026 C 
HETATM   16  C   UNL     1     -45.490 -51.085  15.504  1.00  0.00     0.168 C 
HETATM   17  O   UNL     1     -44.365 -51.839  15.059  1.00  0.00    -0.384 OA
ENDBRANCH  11  12
ENDBRANCH   1  11
TORSDOF 5
ENDMDL
MODEL 8
REMARK VINA RESULT:      -4.3      4.890      7.276
REMARK  5 active torsions:
REMARK  status: ('A' for Active; 'I' for Inactive)
REMARK    1  A    between atoms: C_1  and  C_2 
REMARK    2  A    between atoms: C_1  and  N_9 
REMARK    3  A    between atoms: C_2  and  N_3 
REMARK    4  A    between atoms: N_9  and  C_10 
REMARK    5  A    between atoms: C_10  and  C_11 
ROOT
HETATM    1  N   UNL     1     -39.689 -47.710  11.114  1.00  0.00     0.087 N 
HETATM    2  H   UNL     1     -39.325 -47.567  10.171  1.00  0.00     0.316 HD
ENDROOT
BRANCH   1   3
HETATM    3  C   UNL     1     -40.707 -48.769  11.153  1.00  0.00     0.291 C 
BRANCH   3   4
HETATM    4  C   UNL     1     -40.202 -50.147  11.594  1.00  0.00     0.178 C 
BRANCH   4   5
HETATM    5  N   UNL     1     -41.293 -51.018  11.990  1.00  0.00    -0.302 N 
HETATM    6  C   UNL     1     -42.267 -50.746  12.904  1.00  0.00     0.111 A 
HETATM    7  C   UNL     1     -43.046 -51.879  12.968  1.00  0.00     0.037 A 
HETATM    8  C   UNL     1     -42.454 -52.775  12.059  1.00  0.00     0.108 A 
HETATM    9  N   UNL     1     -41.381 -52.252  11.460  1.00  0.00    -0.310 N 
ATOM     10  HN  UNL     1     -40.773 -52.685  10.766  1.00  0.00     0.186 HD
ENDBRANCH   4   5
ENDBRANCH   3   4
ENDBRANCH   1   3
BRANCH   1  11
HETATM   11  C   UNL     1     -40.192 -46.432  11.631  1.00  0.00     0.301 C 
BRANCH  11  12
HETATM   12  C   UNL     1     -40.340 -45.374  10.515  1.00  0.00     0.149 C 
HETATM   13  C   UNL     1     -40.057 -43.960  11.040  1.00  0.00     0.034 C 
HETATM   14  C   UNL     1     -41.187 -43.440  11.923  1.00  0.00     0.004 C 
HETATM   15  C   UNL     1     -42.526 -43.589  11.213  1.00  0.00     0.026 C 
HETATM   16  C   UNL     1     -42.721 -45.006  10.694  1.00  0.00     0.168 C 
HETATM   17  O   UNL     1     -41.629 -45.426   9.880  1.00  0.00    -0.384 OA
ENDBRANCH  11  12
ENDBRANCH   1  11
TORSDOF 5
ENDMDL
MODEL 9
REMARK VINA RESULT:      -4.2      3.436      6.367
REMARK  5 active torsions:
REMARK  status: ('A' for Active; 'I' for Inactive)
REMARK    1  A    between atoms: C_1  and  C_2 
REMARK    2  A    between atoms: C_1  and  N_9 
REMARK    3  A    between atoms: C_2  and  N_3 
REMARK    4  A    between atoms: N_9  and  C_10 
REMARK    5  A    between atoms: C_10  and  C_11 
ROOT
HETATM    1  N   UNL     1     -43.499 -54.005  12.481  1.00  0.00     0.087 N 
HETATM    2  H   UNL     1     -43.346 -54.219  11.494  1.00  0.00     0.316 HD
ENDROOT
BRANCH   1   3
HETATM    3  C   UNL     1     -44.232 -52.744  12.659  1.00  0.00     0.291 C 
BRANCH   3   4
HETATM    4  C   UNL     1     -45.750 -52.886  12.819  1.00  0.00     0.178 C 
BRANCH   4   5
HETATM    5  N   UNL     1     -46.185 -52.523  14.155  1.00  0.00    -0.302 N 
HETATM    6  C   UNL     1     -46.813 -51.370  14.527  1.00  0.00     0.111 A 
HETATM    7  C   UNL     1     -46.988 -51.463  15.889  1.00  0.00     0.037 A 
HETATM    8  C   UNL     1     -46.427 -52.705  16.241  1.00  0.00     0.108 A 
HETATM    9  N   UNL     1     -45.934 -53.354  15.183  1.00  0.00    -0.310 N 
ATOM     10  HN  UNL     1     -45.476 -54.265  15.160  1.00  0.00     0.186 HD
ENDBRANCH   4   5
ENDBRANCH   3   4
ENDBRANCH   1   3
BRANCH   1  11
HETATM   11  C   UNL     1     -42.206 -54.002  13.176  1.00  0.00     0.301 C 
BRANCH  11  12
HETATM   12  C   UNL     1     -42.320 -53.428  14.606  1.00  0.00     0.149 C 
HETATM   13  C   UNL     1     -40.937 -53.189  15.227  1.00  0.00     0.034 C 
HETATM   14  C   UNL     1     -40.250 -54.494  15.616  1.00  0.00     0.004 C 
HETATM   15  C   UNL     1     -41.179 -55.349  16.467  1.00  0.00     0.026 C 
HETATM   16  C   UNL     1     -42.539 -55.516  15.804  1.00  0.00     0.168 C 
HETATM   17  O   UNL     1     -43.120 -54.259  15.466  1.00  0.00    -0.384 OA
ENDBRANCH  11  12
ENDBRANCH   1  11
TORSDOF 5
ENDMDL
