MODEL 1
REMARK VINA RESULT:      -6.0      0.000      0.000
REMARK  7 active torsions:
REMARK  status: ('A' for Active; 'I' for Inactive)
REMARK    1  A    between atoms: O_2  and  C_3 
REMARK    2  A    between atoms: C_3  and  C_4 
REMARK    3  A    between atoms: C_4  and  N_5 
REMARK    4  A    between atoms: C_8  and  C_9 
REMARK    5  A    between atoms: C_9  and  N_10 
REMARK       I    between atoms: N_10  and  C_11 
REMARK    6  A    between atoms: C_11  and  C_13 
REMARK    7  A    between atoms: C_13  and  N_14 
ROOT
HETATM    1  N   UNL     1     -42.134 -49.723  11.782  1.00  0.00    -0.359 N 
HETATM    2  C   UNL     1     -41.232 -48.995  11.033  1.00  0.00     0.237 C 
HETATM    3  O   UNL     1     -40.144 -49.437  10.669  1.00  0.00    -0.272 OA
HETATM    4  H   UNL     1     -43.083 -49.369  11.854  1.00  0.00     0.162 HD
ENDROOT
BRANCH   1   5
HETATM    5  C   UNL     1     -41.887 -51.096  12.163  1.00  0.00     0.127 C 
BRANCH   5   6
HETATM    6  C   UNL     1     -42.626 -51.508  13.452  1.00  0.00     0.007 C 
HETATM    7  C   UNL     1     -41.909 -52.627  14.229  1.00  0.00     0.036 C 
HETATM    8  C   UNL     1     -42.041 -54.004  13.564  1.00  0.00     0.273 C 
HETATM    9  N   UNL     1     -43.419 -54.382  13.210  1.00  0.00     0.090 N 
HETATM   10  C   UNL     1     -44.062 -53.324  12.424  1.00  0.00     0.273 C 
HETATM   11  C   UNL     1     -44.055 -51.961  13.120  1.00  0.00     0.036 C 
BRANCH   9  12
HETATM   12  C   UNL     1     -44.200 -54.824  14.385  1.00  0.00     0.298 C 
BRANCH  12  13
HETATM   13  C   UNL     1     -45.685 -55.077  14.063  1.00  0.00     0.197 C 
BRANCH  13  14
HETATM   14  O   UNL     1     -46.519 -54.778  15.185  1.00  0.00    -0.394 OA
HETATM   15  C   UNL     1     -45.946 -53.721  15.954  1.00  0.00     0.201 C 
ENDBRANCH  13  14
ENDBRANCH  12  13
ENDBRANCH   9  12
ENDBRANCH   5   6
ENDBRANCH   1   5
BRANCH   2  16
HETATM   16  C   UNL     1     -41.679 -47.590  10.708  1.00  0.00     0.250 C 
BRANCH  16  17
HETATM   17  N   UNL     1     -42.857 -47.614   9.869  1.00  0.00    -0.294 N 
HETATM   18  C   UNL     1     -44.141 -47.380  10.259  1.00  0.00     0.118 A 
HETATM   19  C   UNL     1     -44.921 -47.519   9.132  1.00  0.00    -0.028 A 
HETATM   20  C   UNL     1     -46.385 -47.349   9.007  1.00  0.00     0.051 C 
HETATM   21  C   UNL     1     -43.999 -47.859   8.114  1.00  0.00     0.115 A 
HETATM   22  N   UNL     1     -42.739 -47.923   8.562  1.00  0.00    -0.309 N 
ATOM     23  HN  UNL     1     -41.893 -48.150   8.039  1.00  0.00     0.186 HD
ENDBRANCH  16  17
ENDBRANCH   2  16
TORSDOF 7
ENDMDL
MODEL 2
REMARK VINA RESULT:      -5.6      2.582      3.271
REMARK  7 active torsions:
REMARK  status: ('A' for Active; 'I' for Inactive)
REMARK    1  A    between atoms: O_2  and  C_3 
REMARK    2  A    between atoms: C_3  and  C_4 
REMARK    3  A    between atoms: C_4  and  N_5 
REMARK    4  A    between atoms: C_8  and  C_9 
REMARK    5  A    between atoms: C_9  and  N_10 
REMARK       I    between atoms: N_10  and  C_11 
REMARK    6  A    between atoms: C_11  and  C_13 
REMARK    7  A    between atoms: C_13  and  N_14 
ROOT
HETATM    1  N   UNL     1     -42.058 -50.078  11.827  1.00  0.00    -0.359 N 
HETATM    2  C   UNL     1     -41.160 -49.237  11.202  1.00  0.00     0.237 C 
HETATM    3  O   UNL     1     -40.061 -49.604  10.795  1.00  0.00    -0.272 OA
HETATM    4  H   UNL     1     -43.014 -49.754  11.934  1.00  0.00     0.162 HD
ENDROOT
BRANCH   1   5
HETATM    5  C   UNL     1     -41.791 -51.488  12.013  1.00  0.00     0.127 C 
BRANCH   5   6
HETATM    6  C   UNL     1     -41.888 -51.931  13.486  1.00  0.00     0.007 C 
HETATM    7  C   UNL     1     -40.600 -51.661  14.286  1.00  0.00     0.036 C 
HETATM    8  C   UNL     1     -39.460 -52.629  13.939  1.00  0.00     0.273 C 
HETATM    9  N   UNL     1     -39.835 -54.053  13.973  1.00  0.00     0.090 N 
HETATM   10  C   UNL     1     -41.032 -54.293  13.160  1.00  0.00     0.273 C 
HETATM   11  C   UNL     1     -42.226 -53.427  13.568  1.00  0.00     0.036 C 
BRANCH   9  12
HETATM   12  C   UNL     1     -39.923 -54.578  15.352  1.00  0.00     0.298 C 
BRANCH  12  13
HETATM   13  C   UNL     1     -38.631 -55.272  15.819  1.00  0.00     0.197 C 
BRANCH  13  14
HETATM   14  O   UNL     1     -38.887 -56.608  16.258  1.00  0.00    -0.394 OA
HETATM   15  C   UNL     1     -39.891 -56.607  17.272  1.00  0.00     0.201 C 
ENDBRANCH  13  14
ENDBRANCH  12  13
ENDBRANCH   9  12
ENDBRANCH   5   6
ENDBRANCH   1   5
BRANCH   2  16
HETATM   16  C   UNL     1     -41.630 -47.808  11.073  1.00  0.00     0.250 C 
BRANCH  16  17
HETATM   17  N   UNL     1     -42.740 -47.720  10.149  1.00  0.00    -0.294 N 
HETATM   18  C   UNL     1     -44.040 -47.456  10.460  1.00  0.00     0.118 A 
HETATM   19  C   UNL     1     -44.736 -47.481   9.271  1.00  0.00    -0.028 A 
HETATM   20  C   UNL     1     -46.178 -47.236   9.051  1.00  0.00     0.051 C 
HETATM   21  C   UNL     1     -43.753 -47.791   8.302  1.00  0.00     0.115 A 
HETATM   22  N   UNL     1     -42.535 -47.943   8.836  1.00  0.00    -0.309 N 
ATOM     23  HN  UNL     1     -41.661 -48.172   8.362  1.00  0.00     0.186 HD
ENDBRANCH  16  17
ENDBRANCH   2  16
TORSDOF 7
ENDMDL
MODEL 3
REMARK VINA RESULT:      -5.6      4.464      5.715
REMARK  7 active torsions:
REMARK  status: ('A' for Active; 'I' for Inactive)
REMARK    1  A    between atoms: O_2  and  C_3 
REMARK    2  A    between atoms: C_3  and  C_4 
REMARK    3  A    between atoms: C_4  and  N_5 
REMARK    4  A    between atoms: C_8  and  C_9 
REMARK    5  A    between atoms: C_9  and  N_10 
REMARK       I    between atoms: N_10  and  C_11 
REMARK    6  A    between atoms: C_11  and  C_13 
REMARK    7  A    between atoms: C_13  and  N_14 
ROOT
HETATM    1  N   UNL     1     -39.942 -48.844  10.947  1.00  0.00    -0.359 N 
HETATM    2  C   UNL     1     -41.290 -48.610  11.128  1.00  0.00     0.237 C 
HETATM    3  O   UNL     1     -42.051 -49.417  11.657  1.00  0.00    -0.272 OA
HETATM    4  H   UNL     1     -39.353 -48.054  10.705  1.00  0.00     0.162 HD
ENDROOT
BRANCH   1   5
HETATM    5  C   UNL     1     -39.302 -50.054  11.415  1.00  0.00     0.127 C 
BRANCH   5   6
HETATM    6  C   UNL     1     -37.979 -49.788  12.160  1.00  0.00     0.007 C 
HETATM    7  C   UNL     1     -37.374 -51.056  12.791  1.00  0.00     0.036 C 
HETATM    8  C   UNL     1     -38.129 -51.527  14.041  1.00  0.00     0.273 C 
HETATM    9  N   UNL     1     -38.364 -50.477  15.046  1.00  0.00     0.090 N 
HETATM   10  C   UNL     1     -38.990 -49.301  14.432  1.00  0.00     0.273 C 
HETATM   11  C   UNL     1     -38.191 -48.734  13.256  1.00  0.00     0.036 C 
BRANCH   9  12
HETATM   12  C   UNL     1     -37.151 -50.174  15.836  1.00  0.00     0.298 C 
BRANCH  12  13
HETATM   13  C   UNL     1     -37.455 -49.427  17.148  1.00  0.00     0.197 C 
BRANCH  13  14
HETATM   14  O   UNL     1     -37.049 -48.058  17.074  1.00  0.00    -0.394 OA
HETATM   15  C   UNL     1     -35.754 -47.962  16.483  1.00  0.00     0.201 C 
ENDBRANCH  13  14
ENDBRANCH  12  13
ENDBRANCH   9  12
ENDBRANCH   5   6
ENDBRANCH   1   5
BRANCH   2  16
HETATM   16  C   UNL     1     -41.769 -47.279  10.600  1.00  0.00     0.250 C 
BRANCH  16  17
HETATM   17  N   UNL     1     -42.948 -47.454   9.780  1.00  0.00    -0.294 N 
HETATM   18  C   UNL     1     -44.242 -47.263  10.163  1.00  0.00     0.118 A 
HETATM   19  C   UNL     1     -45.019 -47.554   9.063  1.00  0.00    -0.028 A 
HETATM   20  C   UNL     1     -46.491 -47.486   8.940  1.00  0.00     0.051 C 
HETATM   21  C   UNL     1     -44.084 -47.930   8.070  1.00  0.00     0.115 A 
HETATM   22  N   UNL     1     -42.820 -47.875   8.506  1.00  0.00    -0.309 N 
ATOM     23  HN  UNL     1     -41.965 -48.098   7.997  1.00  0.00     0.186 HD
ENDBRANCH  16  17
ENDBRANCH   2  16
TORSDOF 7
ENDMDL
MODEL 4
REMARK VINA RESULT:      -5.5      2.599      6.981
REMARK  7 active torsions:
REMARK  status: ('A' for Active; 'I' for Inactive)
REMARK    1  A    between atoms: O_2  and  C_3 
REMARK    2  A    between atoms: C_3  and  C_4 
REMARK    3  A    between atoms: C_4  and  N_5 
REMARK    4  A    between atoms: C_8  and  C_9 
REMARK    5  A    between atoms: C_9  and  N_10 
REMARK       I    between atoms: N_10  and  C_11 
REMARK    6  A    between atoms: C_11  and  C_13 
REMARK    7  A    between atoms: C_13  and  N_14 
ROOT
HETATM    1  N   UNL     1     -41.986 -51.335  11.989  1.00  0.00    -0.359 N 
HETATM    2  C   UNL     1     -42.345 -52.432  12.746  1.00  0.00     0.237 C 
HETATM    3  O   UNL     1     -41.723 -52.799  13.740  1.00  0.00    -0.272 OA
HETATM    4  H   UNL     1     -42.665 -50.976  11.325  1.00  0.00     0.162 HD
ENDROOT
BRANCH   1   5
HETATM    5  C   UNL     1     -40.863 -50.493  12.338  1.00  0.00     0.127 C 
BRANCH   5   6
HETATM    6  C   UNL     1     -40.565 -49.414  11.279  1.00  0.00     0.007 C 
HETATM    7  C   UNL     1     -39.521 -48.382  11.744  1.00  0.00     0.036 C 
HETATM    8  C   UNL     1     -40.070 -47.392  12.780  1.00  0.00     0.273 C 
HETATM    9  N   UNL     1     -41.339 -46.750  12.399  1.00  0.00     0.090 N 
HETATM   10  C   UNL     1     -42.334 -47.756  12.012  1.00  0.00     0.273 C 
HETATM   11  C   UNL     1     -41.857 -48.681  10.890  1.00  0.00     0.036 C 
BRANCH   9  12
HETATM   12  C   UNL     1     -41.148 -45.674  11.403  1.00  0.00     0.298 C 
BRANCH  12  13
HETATM   13  C   UNL     1     -42.468 -45.187  10.777  1.00  0.00     0.197 C 
BRANCH  13  14
HETATM   14  O   UNL     1     -42.506 -45.447   9.372  1.00  0.00    -0.394 OA
HETATM   15  C   UNL     1     -43.797 -45.926   8.997  1.00  0.00     0.201 C 
ENDBRANCH  13  14
ENDBRANCH  12  13
ENDBRANCH   9  12
ENDBRANCH   5   6
ENDBRANCH   1   5
BRANCH   2  16
HETATM   16  C   UNL     1     -43.563 -53.168  12.241  1.00  0.00     0.250 C 
BRANCH  16  17
HETATM   17  N   UNL     1     -44.770 -52.582  12.781  1.00  0.00    -0.294 N 
HETATM   18  C   UNL     1     -45.055 -52.370  14.097  1.00  0.00     0.118 A 
HETATM   19  C   UNL     1     -46.310 -51.802  14.136  1.00  0.00    -0.028 A 
HETATM   20  C   UNL     1     -47.076 -51.360  15.320  1.00  0.00     0.051 C 
HETATM   21  C   UNL     1     -46.700 -51.734  12.777  1.00  0.00     0.115 A 
HETATM   22  N   UNL     1     -45.764 -52.213  11.949  1.00  0.00    -0.309 N 
ATOM     23  HN  UNL     1     -45.796 -52.283  10.932  1.00  0.00     0.186 HD
ENDBRANCH  16  17
ENDBRANCH   2  16
TORSDOF 7
ENDMDL
MODEL 5
REMARK VINA RESULT:      -5.5      2.317      7.136
REMARK  7 active torsions:
REMARK  status: ('A' for Active; 'I' for Inactive)
REMARK    1  A    between atoms: O_2  and  C_3 
REMARK    2  A    between atoms: C_3  and  C_4 
REMARK    3  A    between atoms: C_4  and  N_5 
REMARK    4  A    between atoms: C_8  and  C_9 
REMARK    5  A    between atoms: C_9  and  N_10 
REMARK       I    between atoms: N_10  and  C_11 
REMARK    6  A    between atoms: C_11  and  C_13 
REMARK    7  A    between atoms: C_13  and  N_14 
ROOT
HETATM    1  N   UNL     1     -39.976 -50.667  12.831  1.00  0.00    -0.359 N 
HETATM    2  C   UNL     1     -41.001 -51.354  13.448  1.00  0.00     0.237 C 
HETATM    3  O   UNL     1     -41.789 -50.831  14.232  1.00  0.00    -0.272 OA
HETATM    4  H   UNL     1     -39.514 -51.113  12.045  1.00  0.00     0.162 HD
ENDROOT
BRANCH   1   5
HETATM    5  C   UNL     1     -39.775 -49.248  13.024  1.00  0.00     0.127 C 
BRANCH   5   6
HETATM    6  C   UNL     1     -39.834 -48.445  11.710  1.00  0.00     0.007 C 
HETATM    7  C   UNL     1     -39.883 -46.922  11.933  1.00  0.00     0.036 C 
HETATM    8  C   UNL     1     -41.245 -46.430  12.441  1.00  0.00     0.273 C 
HETATM    9  N   UNL     1     -42.398 -46.903  11.657  1.00  0.00     0.090 N 
HETATM   10  C   UNL     1     -42.358 -48.362  11.505  1.00  0.00     0.273 C 
HETATM   11  C   UNL     1     -41.056 -48.871  10.883  1.00  0.00     0.036 C 
BRANCH   9  12
HETATM   12  C   UNL     1     -42.554 -46.166  10.385  1.00  0.00     0.298 C 
BRANCH  12  13
HETATM   13  C   UNL     1     -43.793 -46.602   9.581  1.00  0.00     0.197 C 
BRANCH  13  14
HETATM   14  O   UNL     1     -43.533 -46.587   8.175  1.00  0.00    -0.394 OA
HETATM   15  C   UNL     1     -43.377 -47.920   7.691  1.00  0.00     0.201 C 
ENDBRANCH  13  14
ENDBRANCH  12  13
ENDBRANCH   9  12
ENDBRANCH   5   6
ENDBRANCH   1   5
BRANCH   2  16
HETATM   16  C   UNL     1     -41.068 -52.822  13.099  1.00  0.00     0.250 C 
BRANCH  16  17
HETATM   17  N   UNL     1     -42.444 -53.262  13.019  1.00  0.00    -0.294 N 
HETATM   18  C   UNL     1     -43.034 -54.233  13.771  1.00  0.00     0.118 A 
HETATM   19  C   UNL     1     -44.342 -54.314  13.344  1.00  0.00    -0.028 A 
HETATM   20  C   UNL     1     -45.415 -55.197  13.848  1.00  0.00     0.051 C 
HETATM   21  C   UNL     1     -44.427 -53.352  12.309  1.00  0.00     0.115 A 
HETATM   22  N   UNL     1     -43.268 -52.712  12.106  1.00  0.00    -0.309 N 
ATOM     23  HN  UNL     1     -43.060 -51.984  11.423  1.00  0.00     0.186 HD
ENDBRANCH  16  17
ENDBRANCH   2  16
TORSDOF 7
ENDMDL
MODEL 6
REMARK VINA RESULT:      -5.4      2.088      3.140
REMARK  7 active torsions:
REMARK  status: ('A' for Active; 'I' for Inactive)
REMARK    1  A    between atoms: O_2  and  C_3 
REMARK    2  A    between atoms: C_3  and  C_4 
REMARK    3  A    between atoms: C_4  and  N_5 
REMARK    4  A    between atoms: C_8  and  C_9 
REMARK    5  A    between atoms: C_9  and  N_10 
REMARK       I    between atoms: N_10  and  C_11 
REMARK    6  A    between atoms: C_11  and  C_13 
REMARK    7  A    between atoms: C_13  and  N_14 
ROOT
HETATM    1  N   UNL     1     -41.070 -49.992  11.092  1.00  0.00    -0.359 N 
HETATM    2  C   UNL     1     -41.749 -48.850  11.469  1.00  0.00     0.237 C 
HETATM    3  O   UNL     1     -42.105 -48.626  12.623  1.00  0.00    -0.272 OA
HETATM    4  H   UNL     1     -40.628 -49.999  10.178  1.00  0.00     0.162 HD
ENDROOT
BRANCH   1   5
HETATM    5  C   UNL     1     -40.678 -51.004  12.048  1.00  0.00     0.127 C 
BRANCH   5   6
HETATM    6  C   UNL     1     -41.549 -52.274  11.974  1.00  0.00     0.007 C 
HETATM    7  C   UNL     1     -42.877 -52.141  12.742  1.00  0.00     0.036 C 
HETATM    8  C   UNL     1     -42.702 -52.198  14.266  1.00  0.00     0.273 C 
HETATM    9  N   UNL     1     -41.905 -53.339  14.747  1.00  0.00     0.090 N 
HETATM   10  C   UNL     1     -40.622 -53.411  14.039  1.00  0.00     0.273 C 
HETATM   11  C   UNL     1     -40.772 -53.481  12.518  1.00  0.00     0.036 C 
BRANCH   9  12
HETATM   12  C   UNL     1     -42.672 -54.603  14.742  1.00  0.00     0.298 C 
BRANCH  12  13
HETATM   13  C   UNL     1     -44.025 -54.492  15.468  1.00  0.00     0.197 C 
BRANCH  13  14
HETATM   14  O   UNL     1     -45.068 -55.131  14.726  1.00  0.00    -0.394 OA
HETATM   15  C   UNL     1     -46.082 -54.185  14.392  1.00  0.00     0.201 C 
ENDBRANCH  13  14
ENDBRANCH  12  13
ENDBRANCH   9  12
ENDBRANCH   5   6
ENDBRANCH   1   5
BRANCH   2  16
HETATM   16  C   UNL     1     -42.043 -47.896  10.336  1.00  0.00     0.250 C 
BRANCH  16  17
HETATM   17  N   UNL     1     -41.367 -46.635  10.547  1.00  0.00    -0.294 N 
HETATM   18  C   UNL     1     -41.949 -45.434  10.820  1.00  0.00     0.118 A 
HETATM   19  C   UNL     1     -40.923 -44.521  10.932  1.00  0.00    -0.028 A 
HETATM   20  C   UNL     1     -41.013 -43.078  11.241  1.00  0.00     0.051 C 
HETATM   21  C   UNL     1     -39.756 -45.283  10.687  1.00  0.00     0.115 A 
HETATM   22  N   UNL     1     -40.024 -46.572  10.446  1.00  0.00    -0.309 N 
ATOM     23  HN  UNL     1     -39.369 -47.326  10.237  1.00  0.00     0.186 HD
ENDBRANCH  16  17
ENDBRANCH   2  16
TORSDOF 7
ENDMDL
MODEL 7
REMARK VINA RESULT:      -5.4      3.743      7.034
REMARK  7 active torsions:
REMARK  status: ('A' for Active; 'I' for Inactive)
REMARK    1  A    between atoms: O_2  and  C_3 
REMARK    2  A    between atoms: C_3  and  C_4 
REMARK    3  A    between atoms: C_4  and  N_5 
REMARK    4  A    between atoms: C_8  and  C_9 
REMARK    5  A    between atoms: C_9  and  N_10 
REMARK       I    between atoms: N_10  and  C_11 
REMARK    6  A    between atoms: C_11  and  C_13 
REMARK    7  A    between atoms: C_13  and  N_14 
ROOT
HETATM    1  N   UNL     1     -42.962 -53.995  13.879  1.00  0.00    -0.359 N 
HETATM    2  C   UNL     1     -43.992 -54.834  14.250  1.00  0.00     0.237 C 
HETATM    3  O   UNL     1     -43.866 -55.735  15.077  1.00  0.00    -0.272 OA
HETATM    4  H   UNL     1     -43.200 -53.153  13.363  1.00  0.00     0.162 HD
ENDROOT
BRANCH   1   5
HETATM    5  C   UNL     1     -41.647 -54.080  14.476  1.00  0.00     0.127 C 
BRANCH   5   6
HETATM    6  C   UNL     1     -40.507 -53.901  13.453  1.00  0.00     0.007 C 
HETATM    7  C   UNL     1     -39.128 -53.714  14.112  1.00  0.00     0.036 C 
HETATM    8  C   UNL     1     -38.945 -52.328  14.746  1.00  0.00     0.273 C 
HETATM    9  N   UNL     1     -39.285 -51.201  13.863  1.00  0.00     0.090 N 
HETATM   10  C   UNL     1     -40.625 -51.376  13.291  1.00  0.00     0.273 C 
HETATM   11  C   UNL     1     -40.797 -52.699  12.542  1.00  0.00     0.036 C 
BRANCH   9  12
HETATM   12  C   UNL     1     -38.230 -50.933  12.862  1.00  0.00     0.298 C 
BRANCH  12  13
HETATM   13  C   UNL     1     -37.885 -49.438  12.733  1.00  0.00     0.197 C 
BRANCH  13  14
HETATM   14  O   UNL     1     -38.540 -48.847  11.608  1.00  0.00    -0.394 OA
HETATM   15  C   UNL     1     -39.583 -47.979  12.049  1.00  0.00     0.201 C 
ENDBRANCH  13  14
ENDBRANCH  12  13
ENDBRANCH   9  12
ENDBRANCH   5   6
ENDBRANCH   1   5
BRANCH   2  16
HETATM   16  C   UNL     1     -45.298 -54.572  13.540  1.00  0.00     0.250 C 
BRANCH  16  17
HETATM   17  N   UNL     1     -45.935 -53.387  14.070  1.00  0.00    -0.294 N 
HETATM   18  C   UNL     1     -46.424 -53.219  15.331  1.00  0.00     0.118 A 
HETATM   19  C   UNL     1     -46.944 -51.943  15.380  1.00  0.00    -0.028 A 
HETATM   20  C   UNL     1     -47.576 -51.257  16.527  1.00  0.00     0.051 C 
HETATM   21  C   UNL     1     -46.730 -51.434  14.077  1.00  0.00     0.115 A 
HETATM   22  N   UNL     1     -46.120 -52.314  13.274  1.00  0.00    -0.309 N 
ATOM     23  HN  UNL     1     -45.857 -52.201  12.295  1.00  0.00     0.186 HD
ENDBRANCH  16  17
ENDBRANCH   2  16
TORSDOF 7
ENDMDL
MODEL 8
REMARK VINA RESULT:      -5.4      3.181      6.956
REMARK  7 active torsions:
REMARK  status: ('A' for Active; 'I' for Inactive)
REMARK    1  A    between atoms: O_2  and  C_3 
REMARK    2  A    between atoms: C_3  and  C_4 
REMARK    3  A    between atoms: C_4  and  N_5 
REMARK    4  A    between atoms: C_8  and  C_9 
REMARK    5  A    between atoms: C_9  and  N_10 
REMARK       I    between atoms: N_10  and  C_11 
REMARK    6  A    between atoms: C_11  and  C_13 
REMARK    7  A    between atoms: C_13  and  N_14 
ROOT
HETATM    1  N   UNL     1     -43.523 -54.511  14.412  1.00  0.00    -0.359 N 
HETATM    2  C   UNL     1     -44.646 -54.526  13.610  1.00  0.00     0.237 C 
HETATM    3  O   UNL     1     -44.603 -54.423  12.386  1.00  0.00    -0.272 OA
HETATM    4  H   UNL     1     -43.626 -54.816  15.375  1.00  0.00     0.162 HD
ENDROOT
BRANCH   1   5
HETATM    5  C   UNL     1     -42.187 -54.419  13.865  1.00  0.00     0.127 C 
BRANCH   5   6
HETATM    6  C   UNL     1     -41.442 -53.143  14.303  1.00  0.00     0.007 C 
HETATM    7  C   UNL     1     -42.366 -51.919  14.435  1.00  0.00     0.036 C 
HETATM    8  C   UNL     1     -42.808 -51.346  13.082  1.00  0.00     0.273 C 
HETATM    9  N   UNL     1     -41.709 -51.100  12.133  1.00  0.00     0.090 N 
HETATM   10  C   UNL     1     -40.876 -52.298  11.982  1.00  0.00     0.273 C 
HETATM   11  C   UNL     1     -40.317 -52.819  13.308  1.00  0.00     0.036 C 
BRANCH   9  12
HETATM   12  C   UNL     1     -40.952 -49.872  12.457  1.00  0.00     0.298 C 
BRANCH  12  13
HETATM   13  C   UNL     1     -39.852 -49.551  11.428  1.00  0.00     0.197 C 
BRANCH  13  14
HETATM   14  O   UNL     1     -38.607 -49.265  12.068  1.00  0.00    -0.394 OA
HETATM   15  C   UNL     1     -37.554 -49.998  11.443  1.00  0.00     0.201 C 
ENDBRANCH  13  14
ENDBRANCH  12  13
ENDBRANCH   9  12
ENDBRANCH   5   6
ENDBRANCH   1   5
BRANCH   2  16
HETATM   16  C   UNL     1     -45.949 -54.659  14.361  1.00  0.00     0.250 C 
BRANCH  16  17
HETATM   17  N   UNL     1     -46.405 -53.364  14.817  1.00  0.00    -0.294 N 
HETATM   18  C   UNL     1     -46.836 -53.047  16.070  1.00  0.00     0.118 A 
HETATM   19  C   UNL     1     -47.175 -51.711  16.038  1.00  0.00    -0.028 A 
HETATM   20  C   UNL     1     -47.680 -50.870  17.144  1.00  0.00     0.051 C 
HETATM   21  C   UNL     1     -46.924 -51.324  14.700  1.00  0.00     0.115 A 
HETATM   22  N   UNL     1     -46.459 -52.332  13.952  1.00  0.00    -0.309 N 
ATOM     23  HN  UNL     1     -46.207 -52.321  12.964  1.00  0.00     0.186 HD
ENDBRANCH  16  17
ENDBRANCH   2  16
TORSDOF 7
ENDMDL
MODEL 9
REMARK VINA RESULT:      -5.4      2.914      7.123
REMARK  7 active torsions:
REMARK  status: ('A' for Active; 'I' for Inactive)
REMARK    1  A    between atoms: O_2  and  C_3 
REMARK    2  A    between atoms: C_3  and  C_4 
REMARK    3  A    between atoms: C_4  and  N_5 
REMARK    4  A    between atoms: C_8  and  C_9 
REMARK    5  A    between atoms: C_9  and  N_10 
REMARK       I    between atoms: N_10  and  C_11 
REMARK    6  A    between atoms: C_11  and  C_13 
REMARK    7  A    between atoms: C_13  and  N_14 
ROOT
HETATM    1  N   UNL     1     -42.472 -52.627  11.880  1.00  0.00    -0.359 N 
HETATM    2  C   UNL     1     -42.882 -53.626  12.740  1.00  0.00     0.237 C 
HETATM    3  O   UNL     1     -42.153 -54.119  13.597  1.00  0.00    -0.272 OA
HETATM    4  H   UNL     1     -43.187 -52.131  11.357  1.00  0.00     0.162 HD
ENDROOT
BRANCH   1   5
HETATM    5  C   UNL     1     -41.151 -52.042  11.952  1.00  0.00     0.127 C 
BRANCH   5   6
HETATM    6  C   UNL     1     -41.072 -50.848  12.924  1.00  0.00     0.007 C 
HETATM    7  C   UNL     1     -42.104 -49.748  12.615  1.00  0.00     0.036 C 
HETATM    8  C   UNL     1     -41.750 -48.921  11.371  1.00  0.00     0.273 C 
HETATM    9  N   UNL     1     -40.374 -48.398  11.355  1.00  0.00     0.090 N 
HETATM   10  C   UNL     1     -39.407 -49.474  11.597  1.00  0.00     0.273 C 
HETATM   11  C   UNL     1     -39.663 -50.238  12.898  1.00  0.00     0.036 C 
BRANCH   9  12
HETATM   12  C   UNL     1     -40.208 -47.224  12.239  1.00  0.00     0.298 C 
BRANCH  12  13
HETATM   13  C   UNL     1     -40.905 -45.960  11.704  1.00  0.00     0.197 C 
BRANCH  13  14
HETATM   14  O   UNL     1     -39.970 -44.897  11.502  1.00  0.00    -0.394 OA
HETATM   15  C   UNL     1     -39.552 -44.865  10.138  1.00  0.00     0.201 C 
ENDBRANCH  13  14
ENDBRANCH  12  13
ENDBRANCH   9  12
ENDBRANCH   5   6
ENDBRANCH   1   5
BRANCH   2  16
HETATM   16  C   UNL     1     -44.304 -54.086  12.530  1.00  0.00     0.250 C 
BRANCH  16  17
HETATM   17  N   UNL     1     -45.235 -53.113  13.057  1.00  0.00    -0.294 N 
HETATM   18  C   UNL     1     -45.569 -52.928  14.365  1.00  0.00     0.118 A 
HETATM   19  C   UNL     1     -46.491 -51.904  14.390  1.00  0.00    -0.028 A 
HETATM   20  C   UNL     1     -47.155 -51.302  15.566  1.00  0.00     0.051 C 
HETATM   21  C   UNL     1     -46.656 -51.555  13.029  1.00  0.00     0.115 A 
HETATM   22  N   UNL     1     -45.895 -52.294  12.213  1.00  0.00    -0.309 N 
ATOM     23  HN  UNL     1     -45.830 -52.249  11.196  1.00  0.00     0.186 HD
ENDBRANCH  16  17
ENDBRANCH   2  16
TORSDOF 7
ENDMDL
