MODEL 1
REMARK VINA RESULT:      -6.6      0.000      0.000
REMARK  7 active torsions:
REMARK  status: ('A' for Active; 'I' for Inactive)
REMARK    1  A    between atoms: N_7  and  C_8 
REMARK    2  A    between atoms: C_8  and  C_9 
REMARK    3  A    between atoms: C_9  and  O_10 
REMARK    4  A    between atoms: C_9  and  C_11 
REMARK    5  A    between atoms: C_11  and  O_12 
REMARK    6  A    between atoms: O_12  and  C_13 
REMARK    7  A    between atoms: C_18  and  C_19 
ROOT
HETATM    1  C   UNL     1     -42.294 -51.199  12.370  1.00  0.00     0.162 C 
ENDROOT
BRANCH   1   2
HETATM    2  C   UNL     1     -41.055 -50.396  11.957  1.00  0.00     0.186 C 
BRANCH   2   3
HETATM    3  N   UNL     1     -41.320 -49.039  11.500  1.00  0.00    -0.255 N 
HETATM    4  C   UNL     1     -40.316 -48.081  11.558  1.00  0.00     0.262 A 
HETATM    5  C   UNL     1     -40.639 -46.767  10.966  1.00  0.00     0.078 A 
HETATM    6  O   UNL     1     -39.212 -48.254  12.064  1.00  0.00    -0.267 OA
HETATM    7  C   UNL     1     -41.834 -46.540  10.422  1.00  0.00     0.031 A 
HETATM    8  C   UNL     1     -42.813 -47.646  10.467  1.00  0.00     0.022 A 
HETATM    9  C   UNL     1     -44.181 -47.393   9.886  1.00  0.00     0.069 C 
HETATM   10  N   UNL     1     -42.573 -48.812  10.976  1.00  0.00    -0.300 N 
ATOM     11  HN  UNL     1     -43.288 -49.539  10.988  1.00  0.00     0.187 HD
ENDBRANCH   2   3
ENDBRANCH   1   2
BRANCH   1  12
HETATM   12  O   UNL     1     -42.304 -52.415  11.597  1.00  0.00    -0.392 OA
HETATM   13  H   UNL     1     -42.659 -53.127  12.155  1.00  0.00     0.210 HD
ENDBRANCH   1  12
BRANCH   1  14
HETATM   14  C   UNL     1     -42.332 -51.523  13.873  1.00  0.00     0.209 C 
BRANCH  14  15
HETATM   15  O   UNL     1     -43.184 -52.653  14.079  1.00  0.00    -0.348 OA
BRANCH  15  16
HETATM   16  C   UNL     1     -44.457 -52.441  14.527  1.00  0.00     0.084 A 
HETATM   17  C   UNL     1     -44.904 -51.240  15.093  1.00  0.00     0.037 A 
HETATM   18  C   UNL     1     -46.227 -51.101  15.520  1.00  0.00     0.003 A 
HETATM   19  C   UNL     1     -47.116 -52.163  15.393  1.00  0.00     0.001 A 
HETATM   20  C   UNL     1     -46.680 -53.361  14.835  1.00  0.00     0.019 A 
HETATM   21  C   UNL     1     -45.348 -53.518  14.396  1.00  0.00     0.081 A 
BRANCH  21  22
HETATM   22  C   UNL     1     -44.949 -54.858  13.822  1.00  0.00     0.420 C 
HETATM   23  F   UNL     1     -43.994 -55.555  14.491  1.00  0.00    -0.166 F 
HETATM   24  F   UNL     1     -46.020 -55.703  13.727  1.00  0.00    -0.166 F 
HETATM   25  F   UNL     1     -44.480 -54.738  12.544  1.00  0.00    -0.166 F 
ENDBRANCH  21  22
ENDBRANCH  15  16
ENDBRANCH  14  15
ENDBRANCH   1  14
TORSDOF 7
ENDMDL
MODEL 2
REMARK VINA RESULT:      -6.6      2.172      2.666
REMARK  7 active torsions:
REMARK  status: ('A' for Active; 'I' for Inactive)
REMARK    1  A    between atoms: N_7  and  C_8 
REMARK    2  A    between atoms: C_8  and  C_9 
REMARK    3  A    between atoms: C_9  and  O_10 
REMARK    4  A    between atoms: C_9  and  C_11 
REMARK    5  A    between atoms: C_11  and  O_12 
REMARK    6  A    between atoms: O_12  and  C_13 
REMARK    7  A    between atoms: C_18  and  C_19 
ROOT
HETATM    1  C   UNL     1     -41.246 -51.895  11.831  1.00  0.00     0.162 C 
ENDROOT
BRANCH   1   2
HETATM    2  C   UNL     1     -40.079 -50.941  12.113  1.00  0.00     0.186 C 
BRANCH   2   3
HETATM    3  N   UNL     1     -40.334 -49.542  11.802  1.00  0.00    -0.255 N 
HETATM    4  C   UNL     1     -39.498 -48.556  12.312  1.00  0.00     0.262 A 
HETATM    5  C   UNL     1     -39.763 -47.180  11.849  1.00  0.00     0.078 A 
HETATM    6  O   UNL     1     -38.584 -48.757  13.106  1.00  0.00    -0.267 OA
HETATM    7  C   UNL     1     -40.757 -46.925  10.999  1.00  0.00     0.031 A 
HETATM    8  C   UNL     1     -41.585 -48.072  10.572  1.00  0.00     0.022 A 
HETATM    9  C   UNL     1     -42.734 -47.795   9.637  1.00  0.00     0.069 C 
HETATM   10  N   UNL     1     -41.389 -49.294  10.952  1.00  0.00    -0.300 N 
ATOM     11  HN  UNL     1     -41.996 -50.049  10.633  1.00  0.00     0.187 HD
ENDBRANCH   2   3
ENDBRANCH   1   2
BRANCH   1  12
HETATM   12  O   UNL     1     -40.688 -53.159  11.420  1.00  0.00    -0.392 OA
HETATM   13  H   UNL     1     -41.196 -53.868  11.850  1.00  0.00     0.210 HD
ENDBRANCH   1  12
BRANCH   1  14
HETATM   14  C   UNL     1     -42.174 -52.091  13.043  1.00  0.00     0.209 C 
BRANCH  14  15
HETATM   15  O   UNL     1     -43.515 -52.258  12.573  1.00  0.00    -0.348 OA
BRANCH  15  16
HETATM   16  C   UNL     1     -44.319 -53.169  13.196  1.00  0.00     0.084 A 
HETATM   17  C   UNL     1     -43.928 -54.476  13.519  1.00  0.00     0.037 A 
HETATM   18  C   UNL     1     -44.810 -55.346  14.165  1.00  0.00     0.003 A 
HETATM   19  C   UNL     1     -46.095 -54.922  14.490  1.00  0.00     0.001 A 
HETATM   20  C   UNL     1     -46.492 -53.627  14.171  1.00  0.00     0.019 A 
HETATM   21  C   UNL     1     -45.614 -52.735  13.520  1.00  0.00     0.081 A 
BRANCH  21  22
HETATM   22  C   UNL     1     -46.131 -51.353  13.190  1.00  0.00     0.420 C 
HETATM   23  F   UNL     1     -46.694 -51.183  11.965  1.00  0.00    -0.166 F 
HETATM   24  F   UNL     1     -47.077 -50.943  14.088  1.00  0.00    -0.166 F 
HETATM   25  F   UNL     1     -45.141 -50.414  13.266  1.00  0.00    -0.166 F 
ENDBRANCH  21  22
ENDBRANCH  15  16
ENDBRANCH  14  15
ENDBRANCH   1  14
TORSDOF 7
ENDMDL
MODEL 3
REMARK VINA RESULT:      -6.6      3.894      6.024
REMARK  7 active torsions:
REMARK  status: ('A' for Active; 'I' for Inactive)
REMARK    1  A    between atoms: N_7  and  C_8 
REMARK    2  A    between atoms: C_8  and  C_9 
REMARK    3  A    between atoms: C_9  and  O_10 
REMARK    4  A    between atoms: C_9  and  C_11 
REMARK    5  A    between atoms: C_11  and  O_12 
REMARK    6  A    between atoms: O_12  and  C_13 
REMARK    7  A    between atoms: C_18  and  C_19 
ROOT
HETATM    1  C   UNL     1     -41.163 -53.740  12.725  1.00  0.00     0.162 C 
ENDROOT
BRANCH   1   2
HETATM    2  C   UNL     1     -42.579 -53.150  12.700  1.00  0.00     0.186 C 
BRANCH   2   3
HETATM    3  N   UNL     1     -42.651 -51.705  12.868  1.00  0.00    -0.255 N 
HETATM    4  C   UNL     1     -43.312 -51.168  13.966  1.00  0.00     0.262 A 
HETATM    5  C   UNL     1     -43.233 -49.701  14.114  1.00  0.00     0.078 A 
HETATM    6  O   UNL     1     -43.942 -51.821  14.791  1.00  0.00    -0.267 OA
HETATM    7  C   UNL     1     -42.570 -48.960  13.227  1.00  0.00     0.031 A 
HETATM    8  C   UNL     1     -41.949 -49.671  12.090  1.00  0.00     0.022 A 
HETATM    9  C   UNL     1     -41.223 -48.842  11.061  1.00  0.00     0.069 C 
HETATM   10  N   UNL     1     -41.992 -50.953  11.921  1.00  0.00    -0.300 N 
ATOM     11  HN  UNL     1     -41.552 -51.394  11.112  1.00  0.00     0.187 HD
ENDBRANCH   2   3
ENDBRANCH   1   2
BRANCH   1  12
HETATM   12  O   UNL     1     -40.513 -53.368  11.494  1.00  0.00    -0.392 OA
HETATM   13  H   UNL     1     -39.553 -53.388  11.640  1.00  0.00     0.210 HD
ENDBRANCH   1  12
BRANCH   1  14
HETATM   14  C   UNL     1     -40.332 -53.267  13.931  1.00  0.00     0.209 C 
BRANCH  14  15
HETATM   15  O   UNL     1     -39.338 -52.346  13.471  1.00  0.00    -0.348 OA
BRANCH  15  16
HETATM   16  C   UNL     1     -39.253 -51.122  14.069  1.00  0.00     0.084 A 
HETATM   17  C   UNL     1     -39.889 -50.784  15.271  1.00  0.00     0.037 A 
HETATM   18  C   UNL     1     -39.745 -49.509  15.822  1.00  0.00     0.003 A 
HETATM   19  C   UNL     1     -38.968 -48.553  15.175  1.00  0.00     0.001 A 
HETATM   20  C   UNL     1     -38.334 -48.879  13.979  1.00  0.00     0.019 A 
HETATM   21  C   UNL     1     -38.467 -50.163  13.410  1.00  0.00     0.081 A 
BRANCH  21  22
HETATM   22  C   UNL     1     -37.764 -50.428  12.099  1.00  0.00     0.420 C 
HETATM   23  F   UNL     1     -36.849 -51.434  12.083  1.00  0.00    -0.166 F 
HETATM   24  F   UNL     1     -38.652 -50.726  11.103  1.00  0.00    -0.166 F 
HETATM   25  F   UNL     1     -37.092 -49.324  11.655  1.00  0.00    -0.166 F 
ENDBRANCH  21  22
ENDBRANCH  15  16
ENDBRANCH  14  15
ENDBRANCH   1  14
TORSDOF 7
ENDMDL
MODEL 4
REMARK VINA RESULT:      -6.6      1.387      1.926
REMARK  7 active torsions:
REMARK  status: ('A' for Active; 'I' for Inactive)
REMARK    1  A    between atoms: N_7  and  C_8 
REMARK    2  A    between atoms: C_8  and  C_9 
REMARK    3  A    between atoms: C_9  and  O_10 
REMARK    4  A    between atoms: C_9  and  C_11 
REMARK    5  A    between atoms: C_11  and  O_12 
REMARK    6  A    between atoms: O_12  and  C_13 
REMARK    7  A    between atoms: C_18  and  C_19 
ROOT
HETATM    1  C   UNL     1     -41.348 -53.131  13.265  1.00  0.00     0.162 C 
ENDROOT
BRANCH   1   2
HETATM    2  C   UNL     1     -41.057 -52.505  11.896  1.00  0.00     0.186 C 
BRANCH   2   3
HETATM    3  N   UNL     1     -40.819 -51.068  11.910  1.00  0.00    -0.255 N 
HETATM    4  C   UNL     1     -39.531 -50.583  12.096  1.00  0.00     0.262 A 
HETATM    5  C   UNL     1     -39.367 -49.120  11.978  1.00  0.00     0.078 A 
HETATM    6  O   UNL     1     -38.552 -51.277  12.351  1.00  0.00    -0.267 OA
HETATM    7  C   UNL     1     -40.412 -48.336  11.718  1.00  0.00     0.031 A 
HETATM    8  C   UNL     1     -41.728 -48.994  11.582  1.00  0.00     0.022 A 
HETATM    9  C   UNL     1     -42.925 -48.116  11.321  1.00  0.00     0.069 C 
HETATM   10  N   UNL     1     -41.917 -50.271  11.677  1.00  0.00    -0.300 N 
ATOM     11  HN  UNL     1     -42.850 -50.674  11.582  1.00  0.00     0.187 HD
ENDBRANCH   2   3
ENDBRANCH   1   2
BRANCH   1  12
HETATM   12  O   UNL     1     -40.100 -53.212  13.982  1.00  0.00    -0.392 OA
HETATM   13  H   UNL     1     -39.646 -52.357  13.897  1.00  0.00     0.210 HD
ENDBRANCH   1  12
BRANCH   1  14
HETATM   14  C   UNL     1     -42.384 -52.342  14.084  1.00  0.00     0.209 C 
BRANCH  14  15
HETATM   15  O   UNL     1     -43.619 -52.317  13.362  1.00  0.00    -0.348 OA
BRANCH  15  16
HETATM   16  C   UNL     1     -44.788 -52.279  14.066  1.00  0.00     0.084 A 
HETATM   17  C   UNL     1     -45.331 -51.118  14.633  1.00  0.00     0.037 A 
HETATM   18  C   UNL     1     -46.538 -51.163  15.334  1.00  0.00     0.003 A 
HETATM   19  C   UNL     1     -47.216 -52.368  15.481  1.00  0.00     0.001 A 
HETATM   20  C   UNL     1     -46.683 -53.528  14.923  1.00  0.00     0.019 A 
HETATM   21  C   UNL     1     -45.465 -53.500  14.211  1.00  0.00     0.081 A 
BRANCH  21  22
HETATM   22  C   UNL     1     -44.945 -54.806  13.655  1.00  0.00     0.420 C 
HETATM   23  F   UNL     1     -45.829 -55.835  13.572  1.00  0.00    -0.166 F 
HETATM   24  F   UNL     1     -44.445 -54.651  12.392  1.00  0.00    -0.166 F 
HETATM   25  F   UNL     1     -43.900 -55.287  14.393  1.00  0.00    -0.166 F 
ENDBRANCH  21  22
ENDBRANCH  15  16
ENDBRANCH  14  15
ENDBRANCH   1  14
TORSDOF 7
ENDMDL
MODEL 5
REMARK VINA RESULT:      -6.5      2.559      3.625
REMARK  7 active torsions:
REMARK  status: ('A' for Active; 'I' for Inactive)
REMARK    1  A    between atoms: N_7  and  C_8 
REMARK    2  A    between atoms: C_8  and  C_9 
REMARK    3  A    between atoms: C_9  and  O_10 
REMARK    4  A    between atoms: C_9  and  C_11 
REMARK    5  A    between atoms: C_11  and  O_12 
REMARK    6  A    between atoms: O_12  and  C_13 
REMARK    7  A    between atoms: C_18  and  C_19 
ROOT
HETATM    1  C   UNL     1     -42.587 -47.969  12.958  1.00  0.00     0.162 C 
ENDROOT
BRANCH   1   2
HETATM    2  C   UNL     1     -42.439 -48.305  11.469  1.00  0.00     0.186 C 
BRANCH   2   3
HETATM    3  N   UNL     1     -43.310 -47.556  10.574  1.00  0.00    -0.255 N 
HETATM    4  C   UNL     1     -42.846 -46.395   9.969  1.00  0.00     0.262 A 
HETATM    5  C   UNL     1     -43.756 -45.768   8.989  1.00  0.00     0.078 A 
HETATM    6  O   UNL     1     -41.760 -45.873  10.198  1.00  0.00    -0.267 OA
HETATM    7  C   UNL     1     -44.949 -46.301   8.728  1.00  0.00     0.031 A 
HETATM    8  C   UNL     1     -45.319 -47.518   9.479  1.00  0.00     0.022 A 
HETATM    9  C   UNL     1     -46.679 -48.114   9.219  1.00  0.00     0.069 C 
HETATM   10  N   UNL     1     -44.553 -48.101  10.345  1.00  0.00    -0.300 N 
ATOM     11  HN  UNL     1     -44.861 -48.937  10.843  1.00  0.00     0.187 HD
ENDBRANCH   2   3
ENDBRANCH   1   2
BRANCH   1  12
HETATM   12  O   UNL     1     -43.446 -46.817  13.062  1.00  0.00    -0.392 OA
HETATM   13  H   UNL     1     -42.958 -46.044  12.733  1.00  0.00     0.210 HD
ENDBRANCH   1  12
BRANCH   1  14
HETATM   14  C   UNL     1     -43.154 -49.134  13.787  1.00  0.00     0.209 C 
BRANCH  14  15
HETATM   15  O   UNL     1     -43.820 -50.044  12.906  1.00  0.00    -0.348 OA
BRANCH  15  16
HETATM   16  C   UNL     1     -43.530 -51.376  12.998  1.00  0.00     0.084 A 
HETATM   17  C   UNL     1     -42.246 -51.916  12.847  1.00  0.00     0.037 A 
HETATM   18  C   UNL     1     -42.032 -53.291  12.964  1.00  0.00     0.003 A 
HETATM   19  C   UNL     1     -43.099 -54.144  13.226  1.00  0.00     0.001 A 
HETATM   20  C   UNL     1     -44.379 -53.616  13.374  1.00  0.00     0.019 A 
HETATM   21  C   UNL     1     -44.613 -52.229  13.262  1.00  0.00     0.081 A 
BRANCH  21  22
HETATM   22  C   UNL     1     -46.035 -51.740  13.415  1.00  0.00     0.420 C 
HETATM   23  F   UNL     1     -46.282 -50.875  14.434  1.00  0.00    -0.166 F 
HETATM   24  F   UNL     1     -46.474 -51.108  12.285  1.00  0.00    -0.166 F 
HETATM   25  F   UNL     1     -46.906 -52.776  13.602  1.00  0.00    -0.166 F 
ENDBRANCH  21  22
ENDBRANCH  15  16
ENDBRANCH  14  15
ENDBRANCH   1  14
TORSDOF 7
ENDMDL
MODEL 6
REMARK VINA RESULT:      -6.5      1.958      2.614
REMARK  7 active torsions:
REMARK  status: ('A' for Active; 'I' for Inactive)
REMARK    1  A    between atoms: N_7  and  C_8 
REMARK    2  A    between atoms: C_8  and  C_9 
REMARK    3  A    between atoms: C_9  and  O_10 
REMARK    4  A    between atoms: C_9  and  C_11 
REMARK    5  A    between atoms: C_11  and  O_12 
REMARK    6  A    between atoms: O_12  and  C_13 
REMARK    7  A    between atoms: C_18  and  C_19 
ROOT
HETATM    1  C   UNL     1     -41.226 -53.188  13.014  1.00  0.00     0.162 C 
ENDROOT
BRANCH   1   2
HETATM    2  C   UNL     1     -41.646 -52.228  11.895  1.00  0.00     0.186 C 
BRANCH   2   3
HETATM    3  N   UNL     1     -40.971 -50.938  11.899  1.00  0.00    -0.255 N 
HETATM    4  C   UNL     1     -41.666 -49.794  12.271  1.00  0.00     0.262 A 
HETATM    5  C   UNL     1     -40.871 -48.553  12.358  1.00  0.00     0.078 A 
HETATM    6  O   UNL     1     -42.867 -49.756  12.517  1.00  0.00    -0.267 OA
HETATM    7  C   UNL     1     -39.568 -48.557  12.082  1.00  0.00     0.031 A 
HETATM    8  C   UNL     1     -38.975 -49.844  11.664  1.00  0.00     0.022 A 
HETATM    9  C   UNL     1     -37.508 -49.857  11.315  1.00  0.00     0.069 C 
HETATM   10  N   UNL     1     -39.633 -50.955  11.574  1.00  0.00    -0.300 N 
ATOM     11  HN  UNL     1     -39.176 -51.816  11.272  1.00  0.00     0.187 HD
ENDBRANCH   2   3
ENDBRANCH   1   2
BRANCH   1  12
HETATM   12  O   UNL     1     -39.833 -53.502  12.822  1.00  0.00    -0.392 OA
HETATM   13  H   UNL     1     -39.708 -54.449  13.001  1.00  0.00     0.210 HD
ENDBRANCH   1  12
BRANCH   1  14
HETATM   14  C   UNL     1     -41.454 -52.611  14.422  1.00  0.00     0.209 C 
BRANCH  14  15
HETATM   15  O   UNL     1     -42.584 -53.264  15.010  1.00  0.00    -0.348 OA
BRANCH  15  16
HETATM   16  C   UNL     1     -43.789 -52.621  15.003  1.00  0.00     0.084 A 
HETATM   17  C   UNL     1     -44.013 -51.359  15.571  1.00  0.00     0.037 A 
HETATM   18  C   UNL     1     -45.276 -50.766  15.515  1.00  0.00     0.003 A 
HETATM   19  C   UNL     1     -46.332 -51.428  14.896  1.00  0.00     0.001 A 
HETATM   20  C   UNL     1     -46.119 -52.683  14.332  1.00  0.00     0.019 A 
HETATM   21  C   UNL     1     -44.849 -53.296  14.378  1.00  0.00     0.081 A 
BRANCH  21  22
HETATM   22  C   UNL     1     -44.707 -54.668  13.760  1.00  0.00     0.420 C 
HETATM   23  F   UNL     1     -43.962 -55.577  14.443  1.00  0.00    -0.166 F 
HETATM   24  F   UNL     1     -45.924 -55.262  13.570  1.00  0.00    -0.166 F 
HETATM   25  F   UNL     1     -44.146 -54.605  12.515  1.00  0.00    -0.166 F 
ENDBRANCH  21  22
ENDBRANCH  15  16
ENDBRANCH  14  15
ENDBRANCH   1  14
TORSDOF 7
ENDMDL
MODEL 7
REMARK VINA RESULT:      -6.5      4.296      6.957
REMARK  7 active torsions:
REMARK  status: ('A' for Active; 'I' for Inactive)
REMARK    1  A    between atoms: N_7  and  C_8 
REMARK    2  A    between atoms: C_8  and  C_9 
REMARK    3  A    between atoms: C_9  and  O_10 
REMARK    4  A    between atoms: C_9  and  C_11 
REMARK    5  A    between atoms: C_11  and  O_12 
REMARK    6  A    between atoms: O_12  and  C_13 
REMARK    7  A    between atoms: C_18  and  C_19 
ROOT
HETATM    1  C   UNL     1     -41.134 -53.376  12.676  1.00  0.00     0.162 C 
ENDROOT
BRANCH   1   2
HETATM    2  C   UNL     1     -41.970 -52.091  12.700  1.00  0.00     0.186 C 
BRANCH   2   3
HETATM    3  N   UNL     1     -43.352 -52.258  13.128  1.00  0.00    -0.255 N 
HETATM    4  C   UNL     1     -44.167 -51.145  13.286  1.00  0.00     0.262 A 
HETATM    5  C   UNL     1     -45.582 -51.419  13.609  1.00  0.00     0.078 A 
HETATM    6  O   UNL     1     -43.790 -49.982  13.183  1.00  0.00    -0.267 OA
HETATM    7  C   UNL     1     -46.021 -52.670  13.743  1.00  0.00     0.031 A 
HETATM    8  C   UNL     1     -45.027 -53.750  13.582  1.00  0.00     0.022 A 
HETATM    9  C   UNL     1     -45.501 -55.169  13.765  1.00  0.00     0.069 C 
HETATM   10  N   UNL     1     -43.778 -53.556  13.300  1.00  0.00    -0.300 N 
ATOM     11  HN  UNL     1     -43.131 -54.340  13.207  1.00  0.00     0.187 HD
ENDBRANCH   2   3
ENDBRANCH   1   2
BRANCH   1  12
HETATM   12  O   UNL     1     -40.459 -53.434  11.404  1.00  0.00    -0.392 OA
HETATM   13  H   UNL     1     -39.566 -53.789  11.551  1.00  0.00     0.210 HD
ENDBRANCH   1  12
BRANCH   1  14
HETATM   14  C   UNL     1     -40.114 -53.455  13.825  1.00  0.00     0.209 C 
BRANCH  14  15
HETATM   15  O   UNL     1     -38.956 -52.695  13.466  1.00  0.00    -0.348 OA
BRANCH  15  16
HETATM   16  C   UNL     1     -38.529 -51.711  14.312  1.00  0.00     0.084 A 
HETATM   17  C   UNL     1     -38.618 -51.779  15.709  1.00  0.00     0.037 A 
HETATM   18  C   UNL     1     -38.151 -50.730  16.505  1.00  0.00     0.003 A 
HETATM   19  C   UNL     1     -37.595 -49.600  15.915  1.00  0.00     0.001 A 
HETATM   20  C   UNL     1     -37.506 -49.523  14.528  1.00  0.00     0.019 A 
HETATM   21  C   UNL     1     -37.971 -50.573  13.708  1.00  0.00     0.081 A 
BRANCH  21  22
HETATM   22  C   UNL     1     -37.857 -50.402  12.211  1.00  0.00     0.420 C 
HETATM   23  F   UNL     1     -39.002 -50.517  11.488  1.00  0.00    -0.166 F 
HETATM   24  F   UNL     1     -37.339 -49.179  11.883  1.00  0.00    -0.166 F 
HETATM   25  F   UNL     1     -36.993 -51.309  11.664  1.00  0.00    -0.166 F 
ENDBRANCH  21  22
ENDBRANCH  15  16
ENDBRANCH  14  15
ENDBRANCH   1  14
TORSDOF 7
ENDMDL
MODEL 8
REMARK VINA RESULT:      -6.4      3.532      4.478
REMARK  7 active torsions:
REMARK  status: ('A' for Active; 'I' for Inactive)
REMARK    1  A    between atoms: N_7  and  C_8 
REMARK    2  A    between atoms: C_8  and  C_9 
REMARK    3  A    between atoms: C_9  and  O_10 
REMARK    4  A    between atoms: C_9  and  C_11 
REMARK    5  A    between atoms: C_11  and  O_12 
REMARK    6  A    between atoms: O_12  and  C_13 
REMARK    7  A    between atoms: C_18  and  C_19 
ROOT
HETATM    1  C   UNL     1     -43.437 -53.874  17.437  1.00  0.00     0.162 C 
ENDROOT
BRANCH   1   2
HETATM    2  C   UNL     1     -43.019 -52.401  17.338  1.00  0.00     0.186 C 
BRANCH   2   3
HETATM    3  N   UNL     1     -43.017 -51.846  15.992  1.00  0.00    -0.255 N 
HETATM    4  C   UNL     1     -43.522 -50.571  15.769  1.00  0.00     0.262 A 
HETATM    5  C   UNL     1     -43.372 -50.047  14.397  1.00  0.00     0.078 A 
HETATM    6  O   UNL     1     -44.074 -49.879  16.619  1.00  0.00    -0.267 OA
HETATM    7  C   UNL     1     -42.791 -50.778  13.447  1.00  0.00     0.031 A 
HETATM    8  C   UNL     1     -42.337 -52.132  13.826  1.00  0.00     0.022 A 
HETATM    9  C   UNL     1     -41.708 -52.984  12.754  1.00  0.00     0.069 C 
HETATM   10  N   UNL     1     -42.448 -52.632  15.015  1.00  0.00    -0.300 N 
ATOM     11  HN  UNL     1     -42.124 -53.577  15.223  1.00  0.00     0.187 HD
ENDBRANCH   2   3
ENDBRANCH   1   2
BRANCH   1  12
HETATM   12  O   UNL     1     -42.656 -54.480  18.485  1.00  0.00    -0.392 OA
HETATM   13  H   UNL     1     -41.823 -53.987  18.567  1.00  0.00     0.210 HD
ENDBRANCH   1  12
BRANCH   1  14
HETATM   14  C   UNL     1     -44.938 -54.059  17.715  1.00  0.00     0.209 C 
BRANCH  14  15
HETATM   15  O   UNL     1     -45.588 -54.437  16.497  1.00  0.00    -0.348 OA
BRANCH  15  16
HETATM   16  C   UNL     1     -46.002 -53.456  15.643  1.00  0.00     0.084 A 
HETATM   17  C   UNL     1     -46.683 -52.297  16.042  1.00  0.00     0.037 A 
HETATM   18  C   UNL     1     -47.066 -51.336  15.104  1.00  0.00     0.003 A 
HETATM   19  C   UNL     1     -46.779 -51.523  13.756  1.00  0.00     0.001 A 
HETATM   20  C   UNL     1     -46.105 -52.672  13.350  1.00  0.00     0.019 A 
HETATM   21  C   UNL     1     -45.709 -53.652  14.284  1.00  0.00     0.081 A 
BRANCH  21  22
HETATM   22  C   UNL     1     -45.001 -54.880  13.759  1.00  0.00     0.420 C 
HETATM   23  F   UNL     1     -43.951 -55.344  14.487  1.00  0.00    -0.166 F 
HETATM   24  F   UNL     1     -45.856 -55.939  13.635  1.00  0.00    -0.166 F 
HETATM   25  F   UNL     1     -44.506 -54.676  12.502  1.00  0.00    -0.166 F 
ENDBRANCH  21  22
ENDBRANCH  15  16
ENDBRANCH  14  15
ENDBRANCH   1  14
TORSDOF 7
ENDMDL
MODEL 9
REMARK VINA RESULT:      -6.4      3.591      4.931
REMARK  7 active torsions:
REMARK  status: ('A' for Active; 'I' for Inactive)
REMARK    1  A    between atoms: N_7  and  C_8 
REMARK    2  A    between atoms: C_8  and  C_9 
REMARK    3  A    between atoms: C_9  and  O_10 
REMARK    4  A    between atoms: C_9  and  C_11 
REMARK    5  A    between atoms: C_11  and  O_12 
REMARK    6  A    between atoms: O_12  and  C_13 
REMARK    7  A    between atoms: C_18  and  C_19 
ROOT
HETATM    1  C   UNL     1     -43.148 -54.651  17.441  1.00  0.00     0.162 C 
ENDROOT
BRANCH   1   2
HETATM    2  C   UNL     1     -42.194 -53.495  17.116  1.00  0.00     0.186 C 
BRANCH   2   3
HETATM    3  N   UNL     1     -41.802 -53.389  15.718  1.00  0.00    -0.255 N 
HETATM    4  C   UNL     1     -40.911 -54.307  15.177  1.00  0.00     0.262 A 
HETATM    5  C   UNL     1     -40.663 -54.191  13.726  1.00  0.00     0.078 A 
HETATM    6  O   UNL     1     -40.330 -55.178  15.817  1.00  0.00    -0.267 OA
HETATM    7  C   UNL     1     -41.266 -53.247  13.005  1.00  0.00     0.031 A 
HETATM    8  C   UNL     1     -42.160 -52.319  13.727  1.00  0.00     0.022 A 
HETATM    9  C   UNL     1     -42.822 -51.224  12.930  1.00  0.00     0.069 C 
HETATM   10  N   UNL     1     -42.406 -52.383  14.997  1.00  0.00    -0.300 N 
ATOM     11  HN  UNL     1     -43.026 -51.711  15.448  1.00  0.00     0.187 HD
ENDBRANCH   2   3
ENDBRANCH   1   2
BRANCH   1  12
HETATM   12  O   UNL     1     -42.658 -55.301  18.631  1.00  0.00    -0.392 OA
HETATM   13  H   UNL     1     -43.273 -55.104  19.358  1.00  0.00     0.210 HD
ENDBRANCH   1  12
BRANCH   1  14
HETATM   14  C   UNL     1     -44.603 -54.195  17.643  1.00  0.00     0.209 C 
BRANCH  14  15
HETATM   15  O   UNL     1     -45.353 -54.515  16.466  1.00  0.00    -0.348 OA
BRANCH  15  16
HETATM   16  C   UNL     1     -45.843 -53.494  15.704  1.00  0.00     0.084 A 
HETATM   17  C   UNL     1     -46.493 -52.365  16.221  1.00  0.00     0.037 A 
HETATM   18  C   UNL     1     -46.960 -51.359  15.372  1.00  0.00     0.003 A 
HETATM   19  C   UNL     1     -46.789 -51.472  13.996  1.00  0.00     0.001 A 
HETATM   20  C   UNL     1     -46.147 -52.591  13.473  1.00  0.00     0.019 A 
HETATM   21  C   UNL     1     -45.667 -53.616  14.317  1.00  0.00     0.081 A 
BRANCH  21  22
HETATM   22  C   UNL     1     -45.001 -54.807  13.668  1.00  0.00     0.420 C 
HETATM   23  F   UNL     1     -44.529 -54.637  12.405  1.00  0.00    -0.166 F 
HETATM   24  F   UNL     1     -43.934 -55.248  14.401  1.00  0.00    -0.166 F 
HETATM   25  F   UNL     1     -45.846 -55.879  13.594  1.00  0.00    -0.166 F 
ENDBRANCH  21  22
ENDBRANCH  15  16
ENDBRANCH  14  15
ENDBRANCH   1  14
TORSDOF 7
ENDMDL
