MODEL 1
REMARK VINA RESULT:      -5.5      0.000      0.000
REMARK  3 active torsions:
REMARK  status: ('A' for Active; 'I' for Inactive)
REMARK       I    between atoms: C_2  and  N_3 
REMARK       I    between atoms: C_2  and  N_10 
REMARK    1  A    between atoms: N_3  and  C_4 
REMARK    2  A    between atoms: C_4  and  C_5 
REMARK    3  A    between atoms: N_10  and  C_11 
ROOT
HETATM    1  O   UNL     1     -44.986 -54.580  12.551  1.00  0.00    -0.247 OA
HETATM    2  C   UNL     1     -44.261 -53.588  12.556  1.00  0.00     0.321 C 
HETATM    3  N   UNL     1     -44.730 -52.316  12.639  1.00  0.00    -0.342 N 
HETATM    4  N   UNL     1     -42.906 -53.739  12.502  1.00  0.00    -0.295 N 
HETATM    5  H   UNL     1     -44.036 -51.596  12.447  1.00  0.00     0.164 HD
HETATM    6  H   UNL     1     -42.622 -54.707  12.459  1.00  0.00     0.172 HD
ENDROOT
BRANCH   3   7
HETATM    7  C   UNL     1     -46.129 -51.964  12.679  1.00  0.00     0.131 C 
BRANCH   7   8
HETATM    8  C   UNL     1     -46.548 -51.543  14.080  1.00  0.00     0.029 C 
HETATM    9  C   UNL     1     -45.423 -50.984  14.932  1.00  0.00     0.034 C 
HETATM   10  C   UNL     1     -45.777 -51.409  16.347  1.00  0.00     0.168 C 
HETATM   11  O   UNL     1     -46.919 -52.273  16.271  1.00  0.00    -0.391 OA
HETATM   12  C   UNL     1     -47.043 -52.705  14.914  1.00  0.00     0.173 C 
ENDBRANCH   7   8
ENDBRANCH   3   7
BRANCH   4  13
HETATM   13  C   UNL     1     -41.913 -52.758  12.591  1.00  0.00     0.108 A 
HETATM   14  C   UNL     1     -41.493 -52.372  13.858  1.00  0.00     0.049 A 
HETATM   15  C   UNL     1     -40.556 -51.346  13.973  1.00  0.00     0.005 A 
HETATM   16  C   UNL     1     -40.060 -50.741  12.825  1.00  0.00     0.017 A 
HETATM   17  C   UNL     1     -40.511 -51.205  11.604  1.00  0.00     0.089 A 
HETATM   18  N   UNL     1     -41.414 -52.199  11.465  1.00  0.00    -0.352 N 
ATOM     19  HN  UNL     1     -41.709 -52.517  10.542  1.00  0.00     0.166 HD
ENDBRANCH   4  13
TORSDOF 3
ENDMDL
MODEL 2
REMARK VINA RESULT:      -5.4      3.929      4.822
REMARK  3 active torsions:
REMARK  status: ('A' for Active; 'I' for Inactive)
REMARK       I    between atoms: C_2  and  N_3 
REMARK       I    between atoms: C_2  and  N_10 
REMARK    1  A    between atoms: N_3  and  C_4 
REMARK    2  A    between atoms: C_4  and  C_5 
REMARK    3  A    between atoms: N_10  and  C_11 
ROOT
HETATM    1  O   UNL     1     -41.073 -50.592  12.376  1.00  0.00    -0.247 OA
HETATM    2  C   UNL     1     -41.849 -49.778  11.880  1.00  0.00     0.321 C 
HETATM    3  N   UNL     1     -43.105 -49.557  12.348  1.00  0.00    -0.342 N 
HETATM    4  N   UNL     1     -41.448 -49.021  10.818  1.00  0.00    -0.295 N 
HETATM    5  H   UNL     1     -43.692 -48.996  11.733  1.00  0.00     0.164 HD
HETATM    6  H   UNL     1     -40.502 -49.221  10.531  1.00  0.00     0.172 HD
ENDROOT
BRANCH   3   7
HETATM    7  C   UNL     1     -43.705 -50.279  13.443  1.00  0.00     0.131 C 
BRANCH   7   8
HETATM    8  C   UNL     1     -44.813 -51.199  12.951  1.00  0.00     0.029 C 
HETATM    9  C   UNL     1     -45.949 -51.399  13.939  1.00  0.00     0.034 C 
HETATM   10  C   UNL     1     -46.417 -52.822  13.689  1.00  0.00     0.168 C 
HETATM   11  O   UNL     1     -45.511 -53.423  12.754  1.00  0.00    -0.391 OA
HETATM   12  C   UNL     1     -44.332 -52.615  12.717  1.00  0.00     0.173 C 
ENDBRANCH   7   8
ENDBRANCH   3   7
BRANCH   4  13
HETATM   13  C   UNL     1     -42.133 -47.985  10.176  1.00  0.00     0.108 A 
HETATM   14  C   UNL     1     -42.130 -46.733  10.779  1.00  0.00     0.049 A 
HETATM   15  C   UNL     1     -42.865 -45.702  10.193  1.00  0.00     0.005 A 
HETATM   16  C   UNL     1     -43.575 -45.947   9.024  1.00  0.00     0.017 A 
HETATM   17  C   UNL     1     -43.501 -47.214   8.477  1.00  0.00     0.089 A 
HETATM   18  N   UNL     1     -42.794 -48.227   9.020  1.00  0.00    -0.352 N 
ATOM     19  HN  UNL     1     -42.758 -49.143   8.574  1.00  0.00     0.166 HD
ENDBRANCH   4  13
TORSDOF 3
ENDMDL
MODEL 3
REMARK VINA RESULT:      -5.3      5.607      7.414
REMARK  3 active torsions:
REMARK  status: ('A' for Active; 'I' for Inactive)
REMARK       I    between atoms: C_2  and  N_3 
REMARK       I    between atoms: C_2  and  N_10 
REMARK    1  A    between atoms: N_3  and  C_4 
REMARK    2  A    between atoms: C_4  and  C_5 
REMARK    3  A    between atoms: N_10  and  C_11 
ROOT
HETATM    1  O   UNL     1     -42.617 -47.994   9.795  1.00  0.00    -0.247 OA
HETATM    2  C   UNL     1     -41.523 -48.102  10.344  1.00  0.00     0.321 C 
HETATM    3  N   UNL     1     -40.730 -47.043  10.651  1.00  0.00    -0.342 N 
HETATM    4  N   UNL     1     -41.063 -49.336  10.703  1.00  0.00    -0.295 N 
HETATM    5  H   UNL     1     -39.783 -47.292  10.932  1.00  0.00     0.164 HD
HETATM    6  H   UNL     1     -41.705 -50.077  10.463  1.00  0.00     0.172 HD
ENDROOT
BRANCH   3   7
HETATM    7  C   UNL     1     -41.040 -45.672  10.328  1.00  0.00     0.131 C 
BRANCH   7   8
HETATM    8  C   UNL     1     -40.065 -44.716  11.000  1.00  0.00     0.029 C 
HETATM    9  C   UNL     1     -39.588 -45.163  12.370  1.00  0.00     0.034 C 
HETATM   10  C   UNL     1     -39.385 -43.869  13.138  1.00  0.00     0.168 C 
HETATM   11  O   UNL     1     -39.866 -42.794  12.319  1.00  0.00    -0.391 OA
HETATM   12  C   UNL     1     -40.683 -43.366  11.294  1.00  0.00     0.173 C 
ENDBRANCH   7   8
ENDBRANCH   3   7
BRANCH   4  13
HETATM   13  C   UNL     1     -39.905 -49.665  11.413  1.00  0.00     0.108 A 
HETATM   14  C   UNL     1     -39.991 -49.743  12.797  1.00  0.00     0.049 A 
HETATM   15  C   UNL     1     -38.833 -50.000  13.531  1.00  0.00     0.005 A 
HETATM   16  C   UNL     1     -37.627 -50.177  12.865  1.00  0.00     0.017 A 
HETATM   17  C   UNL     1     -37.635 -50.110  11.485  1.00  0.00     0.089 A 
HETATM   18  N   UNL     1     -38.742 -49.868  10.751  1.00  0.00    -0.352 N 
ATOM     19  HN  UNL     1     -38.703 -49.839   9.732  1.00  0.00     0.166 HD
ENDBRANCH   4  13
TORSDOF 3
ENDMDL
MODEL 4
REMARK VINA RESULT:      -5.2      4.336      6.204
REMARK  3 active torsions:
REMARK  status: ('A' for Active; 'I' for Inactive)
REMARK       I    between atoms: C_2  and  N_3 
REMARK       I    between atoms: C_2  and  N_10 
REMARK    1  A    between atoms: N_3  and  C_4 
REMARK    2  A    between atoms: C_4  and  C_5 
REMARK    3  A    between atoms: N_10  and  C_11 
ROOT
HETATM    1  O   UNL     1     -40.200 -50.089  12.516  1.00  0.00    -0.247 OA
HETATM    2  C   UNL     1     -41.416 -50.230  12.404  1.00  0.00     0.321 C 
HETATM    3  N   UNL     1     -42.175 -49.534  11.518  1.00  0.00    -0.342 N 
HETATM    4  N   UNL     1     -42.065 -51.147  13.180  1.00  0.00    -0.295 N 
HETATM    5  H   UNL     1     -43.179 -49.619  11.664  1.00  0.00     0.164 HD
HETATM    6  H   UNL     1     -41.444 -51.641  13.803  1.00  0.00     0.172 HD
ENDROOT
BRANCH   3   7
HETATM    7  C   UNL     1     -41.667 -48.511  10.639  1.00  0.00     0.131 C 
BRANCH   7   8
HETATM    8  C   UNL     1     -42.702 -47.418  10.413  1.00  0.00     0.029 C 
HETATM    9  C   UNL     1     -43.498 -47.561   9.128  1.00  0.00     0.034 C 
HETATM   10  C   UNL     1     -43.780 -46.131   8.700  1.00  0.00     0.168 C 
HETATM   11  O   UNL     1     -43.061 -45.260   9.584  1.00  0.00    -0.391 OA
HETATM   12  C   UNL     1     -42.077 -46.048  10.259  1.00  0.00     0.173 C 
ENDBRANCH   7   8
ENDBRANCH   3   7
BRANCH   4  13
HETATM   13  C   UNL     1     -43.411 -51.526  13.143  1.00  0.00     0.108 A 
HETATM   14  C   UNL     1     -44.302 -50.836  13.955  1.00  0.00     0.049 A 
HETATM   15  C   UNL     1     -45.636 -51.243  13.988  1.00  0.00     0.005 A 
HETATM   16  C   UNL     1     -46.042 -52.319  13.208  1.00  0.00     0.017 A 
HETATM   17  C   UNL     1     -45.096 -52.931  12.408  1.00  0.00     0.089 A 
HETATM   18  N   UNL     1     -43.801 -52.554  12.354  1.00  0.00    -0.352 N 
ATOM     19  HN  UNL     1     -43.139 -53.028  11.740  1.00  0.00     0.166 HD
ENDBRANCH   4  13
TORSDOF 3
ENDMDL
MODEL 5
REMARK VINA RESULT:      -5.2      3.148      5.404
REMARK  3 active torsions:
REMARK  status: ('A' for Active; 'I' for Inactive)
REMARK       I    between atoms: C_2  and  N_3 
REMARK       I    between atoms: C_2  and  N_10 
REMARK    1  A    between atoms: N_3  and  C_4 
REMARK    2  A    between atoms: C_4  and  C_5 
REMARK    3  A    between atoms: N_10  and  C_11 
ROOT
HETATM    1  O   UNL     1     -40.564 -52.710  12.097  1.00  0.00    -0.247 OA
HETATM    2  C   UNL     1     -41.633 -52.129  12.270  1.00  0.00     0.321 C 
HETATM    3  N   UNL     1     -41.862 -50.848  11.882  1.00  0.00    -0.342 N 
HETATM    4  N   UNL     1     -42.675 -52.787  12.857  1.00  0.00    -0.295 N 
HETATM    5  H   UNL     1     -42.720 -50.441  12.251  1.00  0.00     0.164 HD
HETATM    6  H   UNL     1     -42.446 -53.738  13.105  1.00  0.00     0.172 HD
ENDROOT
BRANCH   3   7
HETATM    7  C   UNL     1     -40.875 -49.993  11.270  1.00  0.00     0.131 C 
BRANCH   7   8
HETATM    8  C   UNL     1     -41.254 -48.526  11.415  1.00  0.00     0.029 C 
HETATM    9  C   UNL     1     -42.192 -48.230  12.572  1.00  0.00     0.034 C 
HETATM   10  C   UNL     1     -43.040 -47.071  12.079  1.00  0.00     0.168 C 
HETATM   11  O   UNL     1     -42.715 -46.844  10.701  1.00  0.00    -0.391 OA
HETATM   12  C   UNL     1     -42.029 -48.005  10.224  1.00  0.00     0.173 C 
ENDBRANCH   7   8
ENDBRANCH   3   7
BRANCH   4  13
HETATM   13  C   UNL     1     -43.987 -52.345  13.056  1.00  0.00     0.108 A 
HETATM   14  C   UNL     1     -44.255 -51.603  14.199  1.00  0.00     0.049 A 
HETATM   15  C   UNL     1     -45.569 -51.212  14.454  1.00  0.00     0.005 A 
HETATM   16  C   UNL     1     -46.574 -51.566  13.562  1.00  0.00     0.017 A 
HETATM   17  C   UNL     1     -46.215 -52.281  12.436  1.00  0.00     0.089 A 
HETATM   18  N   UNL     1     -44.951 -52.668  12.163  1.00  0.00    -0.352 N 
ATOM     19  HN  UNL     1     -44.730 -53.185  11.312  1.00  0.00     0.166 HD
ENDBRANCH   4  13
TORSDOF 3
ENDMDL
MODEL 6
REMARK VINA RESULT:      -5.0      4.183      5.953
REMARK  3 active torsions:
REMARK  status: ('A' for Active; 'I' for Inactive)
REMARK       I    between atoms: C_2  and  N_3 
REMARK       I    between atoms: C_2  and  N_10 
REMARK    1  A    between atoms: N_3  and  C_4 
REMARK    2  A    between atoms: C_4  and  C_5 
REMARK    3  A    between atoms: N_10  and  C_11 
ROOT
HETATM    1  O   UNL     1     -40.753 -48.811  13.031  1.00  0.00    -0.247 OA
HETATM    2  C   UNL     1     -41.735 -49.428  12.624  1.00  0.00     0.321 C 
HETATM    3  N   UNL     1     -42.243 -49.289  11.372  1.00  0.00    -0.342 N 
HETATM    4  N   UNL     1     -42.356 -50.328  13.441  1.00  0.00    -0.295 N 
HETATM    5  H   UNL     1     -43.157 -49.718  11.237  1.00  0.00     0.164 HD
HETATM    6  H   UNL     1     -41.920 -50.396  14.349  1.00  0.00     0.172 HD
ENDROOT
BRANCH   3   7
HETATM    7  C   UNL     1     -41.735 -48.370  10.384  1.00  0.00     0.131 C 
BRANCH   7   8
HETATM    8  C   UNL     1     -42.841 -47.471   9.851  1.00  0.00     0.029 C 
HETATM    9  C   UNL     1     -44.180 -47.641  10.546  1.00  0.00     0.034 C 
HETATM   10  C   UNL     1     -45.204 -47.378   9.456  1.00  0.00     0.168 C 
HETATM   11  O   UNL     1     -44.498 -47.233   8.217  1.00  0.00    -0.391 OA
HETATM   12  C   UNL     1     -43.183 -47.764   8.406  1.00  0.00     0.173 C 
ENDBRANCH   7   8
ENDBRANCH   3   7
BRANCH   4  13
HETATM   13  C   UNL     1     -43.415 -51.192  13.145  1.00  0.00     0.108 A 
HETATM   14  C   UNL     1     -44.696 -50.798  13.511  1.00  0.00     0.049 A 
HETATM   15  C   UNL     1     -45.758 -51.674  13.289  1.00  0.00     0.005 A 
HETATM   16  C   UNL     1     -45.515 -52.910  12.705  1.00  0.00     0.017 A 
HETATM   17  C   UNL     1     -44.215 -53.211  12.347  1.00  0.00     0.089 A 
HETATM   18  N   UNL     1     -43.170 -52.380  12.546  1.00  0.00    -0.352 N 
ATOM     19  HN  UNL     1     -42.227 -52.639  12.253  1.00  0.00     0.166 HD
ENDBRANCH   4  13
TORSDOF 3
ENDMDL
MODEL 7
REMARK VINA RESULT:      -5.0      3.717      5.503
REMARK  3 active torsions:
REMARK  status: ('A' for Active; 'I' for Inactive)
REMARK       I    between atoms: C_2  and  N_3 
REMARK       I    between atoms: C_2  and  N_10 
REMARK    1  A    between atoms: N_3  and  C_4 
REMARK    2  A    between atoms: C_4  and  C_5 
REMARK    3  A    between atoms: N_10  and  C_11 
ROOT
HETATM    1  O   UNL     1     -39.632 -50.053  11.020  1.00  0.00    -0.247 OA
HETATM    2  C   UNL     1     -40.482 -50.563  11.746  1.00  0.00     0.321 C 
HETATM    3  N   UNL     1     -41.147 -49.883  12.716  1.00  0.00    -0.342 N 
HETATM    4  N   UNL     1     -40.817 -51.876  11.578  1.00  0.00    -0.295 N 
HETATM    5  H   UNL     1     -41.680 -50.471  13.354  1.00  0.00     0.164 HD
HETATM    6  H   UNL     1     -40.301 -52.318  10.832  1.00  0.00     0.172 HD
ENDROOT
BRANCH   3   7
HETATM    7  C   UNL     1     -40.907 -48.501  13.052  1.00  0.00     0.131 C 
BRANCH   7   8
HETATM    8  C   UNL     1     -41.894 -47.585  12.341  1.00  0.00     0.029 C 
HETATM    9  C   UNL     1     -43.158 -48.275  11.859  1.00  0.00     0.034 C 
HETATM   10  C   UNL     1     -43.530 -47.532  10.589  1.00  0.00     0.168 C 
HETATM   11  O   UNL     1     -42.472 -46.609  10.295  1.00  0.00    -0.391 OA
HETATM   12  C   UNL     1     -41.331 -47.005  11.062  1.00  0.00     0.173 C 
ENDBRANCH   7   8
ENDBRANCH   3   7
BRANCH   4  13
HETATM   13  C   UNL     1     -41.813 -52.613  12.226  1.00  0.00     0.108 A 
HETATM   14  C   UNL     1     -41.437 -53.403  13.306  1.00  0.00     0.049 A 
HETATM   15  C   UNL     1     -42.400 -54.201  13.923  1.00  0.00     0.005 A 
HETATM   16  C   UNL     1     -43.706 -54.184  13.452  1.00  0.00     0.017 A 
HETATM   17  C   UNL     1     -44.000 -53.349  12.391  1.00  0.00     0.089 A 
HETATM   18  N   UNL     1     -43.089 -52.564  11.779  1.00  0.00    -0.352 N 
ATOM     19  HN  UNL     1     -43.353 -51.953  11.006  1.00  0.00     0.166 HD
ENDBRANCH   4  13
TORSDOF 3
ENDMDL
MODEL 8
REMARK VINA RESULT:      -4.9      2.982      3.868
REMARK  3 active torsions:
REMARK  status: ('A' for Active; 'I' for Inactive)
REMARK       I    between atoms: C_2  and  N_3 
REMARK       I    between atoms: C_2  and  N_10 
REMARK    1  A    between atoms: N_3  and  C_4 
REMARK    2  A    between atoms: C_4  and  C_5 
REMARK    3  A    between atoms: N_10  and  C_11 
ROOT
HETATM    1  O   UNL     1     -40.229 -52.335  12.266  1.00  0.00    -0.247 OA
HETATM    2  C   UNL     1     -41.051 -51.462  11.997  1.00  0.00     0.321 C 
HETATM    3  N   UNL     1     -42.395 -51.649  12.069  1.00  0.00    -0.342 N 
HETATM    4  N   UNL     1     -40.624 -50.220  11.628  1.00  0.00    -0.295 N 
HETATM    5  H   UNL     1     -42.948 -50.906  11.644  1.00  0.00     0.164 HD
HETATM    6  H   UNL     1     -39.618 -50.142  11.611  1.00  0.00     0.172 HD
ENDROOT
BRANCH   3   7
HETATM    7  C   UNL     1     -43.026 -52.898  12.416  1.00  0.00     0.131 C 
BRANCH   7   8
HETATM    8  C   UNL     1     -44.170 -52.681  13.396  1.00  0.00     0.029 C 
HETATM    9  C   UNL     1     -45.517 -53.187  12.913  1.00  0.00     0.034 C 
HETATM   10  C   UNL     1     -46.520 -52.221  13.520  1.00  0.00     0.168 C 
HETATM   11  O   UNL     1     -45.784 -51.167  14.154  1.00  0.00    -0.391 OA
HETATM   12  C   UNL     1     -44.445 -51.215  13.654  1.00  0.00     0.173 C 
ENDBRANCH   7   8
ENDBRANCH   3   7
BRANCH   4  13
HETATM   13  C   UNL     1     -41.384 -49.073  11.376  1.00  0.00     0.108 A 
HETATM   14  C   UNL     1     -41.906 -48.387  12.466  1.00  0.00     0.049 A 
HETATM   15  C   UNL     1     -42.725 -47.282  12.236  1.00  0.00     0.005 A 
HETATM   16  C   UNL     1     -42.994 -46.891  10.931  1.00  0.00     0.017 A 
HETATM   17  C   UNL     1     -42.412 -47.612   9.906  1.00  0.00     0.089 A 
HETATM   18  N   UNL     1     -41.612 -48.682  10.102  1.00  0.00    -0.352 N 
ATOM     19  HN  UNL     1     -41.194 -49.178   9.314  1.00  0.00     0.166 HD
ENDBRANCH   4  13
TORSDOF 3
ENDMDL
MODEL 9
REMARK VINA RESULT:      -4.9      2.833      5.660
REMARK  3 active torsions:
REMARK  status: ('A' for Active; 'I' for Inactive)
REMARK       I    between atoms: C_2  and  N_3 
REMARK       I    between atoms: C_2  and  N_10 
REMARK    1  A    between atoms: N_3  and  C_4 
REMARK    2  A    between atoms: C_4  and  C_5 
REMARK    3  A    between atoms: N_10  and  C_11 
ROOT
HETATM    1  O   UNL     1     -41.406 -51.531  11.781  1.00  0.00    -0.247 OA
HETATM    2  C   UNL     1     -42.314 -51.852  12.544  1.00  0.00     0.321 C 
HETATM    3  N   UNL     1     -42.318 -53.004  13.263  1.00  0.00    -0.342 N 
HETATM    4  N   UNL     1     -43.378 -51.016  12.721  1.00  0.00    -0.295 N 
HETATM    5  H   UNL     1     -43.209 -53.223  13.705  1.00  0.00     0.164 HD
HETATM    6  H   UNL     1     -43.306 -50.171  12.172  1.00  0.00     0.172 HD
ENDROOT
BRANCH   3   7
HETATM    7  C   UNL     1     -41.293 -54.016  13.186  1.00  0.00     0.131 C 
BRANCH   7   8
HETATM    8  C   UNL     1     -40.443 -54.033  14.448  1.00  0.00     0.029 C 
HETATM    9  C   UNL     1     -39.067 -54.650  14.272  1.00  0.00     0.034 C 
HETATM   10  C   UNL     1     -38.774 -55.303  15.611  1.00  0.00     0.168 C 
HETATM   11  O   UNL     1     -39.956 -55.202  16.416  1.00  0.00    -0.391 OA
HETATM   12  C   UNL     1     -41.045 -54.887  15.543  1.00  0.00     0.173 C 
ENDBRANCH   7   8
ENDBRANCH   3   7
BRANCH   4  13
HETATM   13  C   UNL     1     -44.455 -51.146  13.603  1.00  0.00     0.108 A 
HETATM   14  C   UNL     1     -45.685 -51.518  13.075  1.00  0.00     0.049 A 
HETATM   15  C   UNL     1     -46.789 -51.586  13.924  1.00  0.00     0.005 A 
HETATM   16  C   UNL     1     -46.634 -51.288  15.272  1.00  0.00     0.017 A 
HETATM   17  C   UNL     1     -45.370 -50.955  15.719  1.00  0.00     0.089 A 
HETATM   18  N   UNL     1     -44.284 -50.886  14.919  1.00  0.00    -0.352 N 
ATOM     19  HN  UNL     1     -43.367 -50.647  15.295  1.00  0.00     0.166 HD
ENDBRANCH   4  13
TORSDOF 3
ENDMDL
