MODEL 1
REMARK VINA RESULT:      -5.8      0.000      0.000
REMARK  3 active torsions:
REMARK  status: ('A' for Active; 'I' for Inactive)
REMARK       I    between atoms: N_2  and  C_3 
REMARK    1  A    between atoms: C_3  and  C_5 
REMARK    2  A    between atoms: C_5  and  C_6 
REMARK    3  A    between atoms: C_9  and  C_12 
ROOT
HETATM    1  C   UNL     1     -42.007 -49.768  11.868  1.00  0.00     0.059 A 
HETATM    2  N   UNL     1     -43.211 -49.759  12.401  1.00  0.00    -0.356 N 
ATOM      3  HN  UNL     1     -43.922 -49.052  12.217  1.00  0.00     0.166 HD
HETATM    4  C   UNL     1     -43.375 -50.844  13.247  1.00  0.00     0.021 A 
HETATM    5  C   UNL     1     -42.313 -51.728  13.251  1.00  0.00     0.077 A 
HETATM    6  S   UNL     1     -41.061 -51.152  12.231  1.00  0.00    -0.086 SA
ENDROOT
BRANCH   4   7
HETATM    7  C   UNL     1     -44.583 -50.894  14.131  1.00  0.00     0.040 C 
HETATM    8  C   UNL     1     -44.547 -51.983  15.229  1.00  0.00     0.015 C 
HETATM    9  C   UNL     1     -45.778 -52.848  14.898  1.00  0.00    -0.013 C 
HETATM   10  C   UNL     1     -45.522 -53.611  13.585  1.00  0.00     0.005 C 
HETATM   11  C   UNL     1     -46.787 -51.782  14.469  1.00  0.00     0.010 C 
HETATM   12  C   UNL     1     -45.716 -52.529  12.513  1.00  0.00     0.006 C 
HETATM   13  C   UNL     1     -45.885 -51.248  13.353  1.00  0.00    -0.004 C 
ENDBRANCH   4   7
BRANCH   1  14
HETATM   14  C   UNL     1     -41.450 -48.627  11.089  1.00  0.00     0.167 C 
BRANCH  14  15
HETATM   15  C   UNL     1     -42.564 -47.910  10.358  1.00  0.00     0.223 C 
HETATM   16  N   UNL     1     -42.637 -48.169   9.003  1.00  0.00    -0.365 N 
HETATM   17  C   UNL     1     -43.603 -47.489   8.179  1.00  0.00     0.149 C 
HETATM   18  H   UNL     1     -41.790 -48.525   8.563  1.00  0.00     0.161 HD
HETATM   19  O   UNL     1     -43.383 -47.213  10.950  1.00  0.00    -0.273 OA
ENDBRANCH  14  15
ENDBRANCH   1  14
TORSDOF 3
ENDMDL
MODEL 2
REMARK VINA RESULT:      -5.7      1.397      2.269
REMARK  3 active torsions:
REMARK  status: ('A' for Active; 'I' for Inactive)
REMARK       I    between atoms: N_2  and  C_3 
REMARK    1  A    between atoms: C_3  and  C_5 
REMARK    2  A    between atoms: C_5  and  C_6 
REMARK    3  A    between atoms: C_9  and  C_12 
ROOT
HETATM    1  C   UNL     1     -42.000 -51.675  12.433  1.00  0.00     0.059 A 
HETATM    2  N   UNL     1     -43.316 -51.655  12.426  1.00  0.00    -0.356 N 
ATOM      3  HN  UNL     1     -43.883 -50.851  12.158  1.00  0.00     0.166 HD
HETATM    4  C   UNL     1     -43.822 -52.879  12.833  1.00  0.00     0.021 A 
HETATM    5  C   UNL     1     -42.862 -53.852  13.038  1.00  0.00     0.077 A 
HETATM    6  S   UNL     1     -41.297 -53.200  12.782  1.00  0.00    -0.086 SA
ENDROOT
BRANCH   4   7
HETATM    7  C   UNL     1     -45.288 -52.995  13.119  1.00  0.00     0.040 C 
HETATM    8  C   UNL     1     -46.099 -51.692  12.929  1.00  0.00     0.015 C 
HETATM    9  C   UNL     1     -46.689 -51.445  14.330  1.00  0.00    -0.013 C 
HETATM   10  C   UNL     1     -45.554 -51.060  15.298  1.00  0.00     0.005 C 
HETATM   11  C   UNL     1     -47.026 -52.871  14.768  1.00  0.00     0.010 C 
HETATM   12  C   UNL     1     -44.868 -52.404  15.578  1.00  0.00     0.006 C 
HETATM   13  C   UNL     1     -45.585 -53.360  14.604  1.00  0.00    -0.004 C 
ENDBRANCH   4   7
BRANCH   1  14
HETATM   14  C   UNL     1     -41.164 -50.455  12.256  1.00  0.00     0.167 C 
BRANCH  14  15
HETATM   15  C   UNL     1     -42.028 -49.300  11.801  1.00  0.00     0.223 C 
HETATM   16  N   UNL     1     -41.830 -48.898  10.494  1.00  0.00    -0.365 N 
HETATM   17  C   UNL     1     -42.533 -47.759   9.963  1.00  0.00     0.149 C 
HETATM   18  H   UNL     1     -40.942 -49.160  10.070  1.00  0.00     0.161 HD
HETATM   19  O   UNL     1     -42.893 -48.814  12.525  1.00  0.00    -0.273 OA
ENDBRANCH  14  15
ENDBRANCH   1  14
TORSDOF 3
ENDMDL
MODEL 3
REMARK VINA RESULT:      -5.4      2.992      4.078
REMARK  3 active torsions:
REMARK  status: ('A' for Active; 'I' for Inactive)
REMARK       I    between atoms: N_2  and  C_3 
REMARK    1  A    between atoms: C_3  and  C_5 
REMARK    2  A    between atoms: C_5  and  C_6 
REMARK    3  A    between atoms: C_9  and  C_12 
ROOT
HETATM    1  C   UNL     1     -41.996 -54.122  13.722  1.00  0.00     0.059 A 
HETATM    2  N   UNL     1     -43.244 -53.812  13.441  1.00  0.00    -0.356 N 
ATOM      3  HN  UNL     1     -43.580 -53.536  12.519  1.00  0.00     0.166 HD
HETATM    4  C   UNL     1     -44.036 -53.913  14.573  1.00  0.00     0.021 A 
HETATM    5  C   UNL     1     -43.380 -54.413  15.683  1.00  0.00     0.077 A 
HETATM    6  S   UNL     1     -41.729 -54.695  15.317  1.00  0.00    -0.086 SA
ENDROOT
BRANCH   4   7
HETATM    7  C   UNL     1     -45.435 -53.381  14.526  1.00  0.00     0.040 C 
HETATM    8  C   UNL     1     -45.961 -53.044  13.111  1.00  0.00     0.015 C 
HETATM    9  C   UNL     1     -46.276 -51.539  13.210  1.00  0.00    -0.013 C 
HETATM   10  C   UNL     1     -44.957 -50.752  13.333  1.00  0.00     0.005 C 
HETATM   11  C   UNL     1     -46.849 -51.445  14.624  1.00  0.00     0.010 C 
HETATM   12  C   UNL     1     -44.548 -50.990  14.794  1.00  0.00     0.006 C 
HETATM   13  C   UNL     1     -45.588 -52.022  15.273  1.00  0.00    -0.004 C 
ENDBRANCH   4   7
BRANCH   1  14
HETATM   14  C   UNL     1     -40.867 -53.902  12.775  1.00  0.00     0.167 C 
BRANCH  14  15
HETATM   15  C   UNL     1     -40.506 -52.434  12.735  1.00  0.00     0.223 C 
HETATM   16  N   UNL     1     -40.916 -51.759  11.602  1.00  0.00    -0.365 N 
HETATM   17  C   UNL     1     -40.566 -50.376  11.406  1.00  0.00     0.149 C 
HETATM   18  H   UNL     1     -41.113 -52.330  10.782  1.00  0.00     0.161 HD
HETATM   19  O   UNL     1     -39.957 -51.877  13.682  1.00  0.00    -0.273 OA
ENDBRANCH  14  15
ENDBRANCH   1  14
TORSDOF 3
ENDMDL
MODEL 4
REMARK VINA RESULT:      -5.3      2.864      3.831
REMARK  3 active torsions:
REMARK  status: ('A' for Active; 'I' for Inactive)
REMARK       I    between atoms: N_2  and  C_3 
REMARK    1  A    between atoms: C_3  and  C_5 
REMARK    2  A    between atoms: C_5  and  C_6 
REMARK    3  A    between atoms: C_9  and  C_12 
ROOT
HETATM    1  C   UNL     1     -42.172 -50.778  12.535  1.00  0.00     0.059 A 
HETATM    2  N   UNL     1     -42.749 -51.957  12.446  1.00  0.00    -0.356 N 
ATOM      3  HN  UNL     1     -42.364 -52.757  11.944  1.00  0.00     0.166 HD
HETATM    4  C   UNL     1     -43.955 -51.959  13.128  1.00  0.00     0.021 A 
HETATM    5  C   UNL     1     -44.217 -50.794  13.825  1.00  0.00     0.077 A 
HETATM    6  S   UNL     1     -42.963 -49.655  13.562  1.00  0.00    -0.086 SA
ENDROOT
BRANCH   4   7
HETATM    7  C   UNL     1     -44.880 -53.126  12.958  1.00  0.00     0.040 C 
HETATM    8  C   UNL     1     -46.237 -52.999  13.689  1.00  0.00     0.015 C 
HETATM    9  C   UNL     1     -46.227 -54.207  14.645  1.00  0.00    -0.013 C 
HETATM   10  C   UNL     1     -45.171 -53.977  15.743  1.00  0.00     0.005 C 
HETATM   11  C   UNL     1     -45.568 -55.275  13.772  1.00  0.00     0.010 C 
HETATM   12  C   UNL     1     -43.849 -54.259  15.014  1.00  0.00     0.006 C 
HETATM   13  C   UNL     1     -44.301 -54.444  13.552  1.00  0.00    -0.004 C 
ENDBRANCH   4   7
BRANCH   1  14
HETATM   14  C   UNL     1     -40.977 -50.391  11.733  1.00  0.00     0.167 C 
BRANCH  14  15
HETATM   15  C   UNL     1     -39.752 -51.109  12.256  1.00  0.00     0.223 C 
HETATM   16  N   UNL     1     -38.583 -50.374  12.223  1.00  0.00    -0.365 N 
HETATM   17  C   UNL     1     -37.332 -50.968  12.620  1.00  0.00     0.149 C 
HETATM   18  H   UNL     1     -38.562 -49.585  11.579  1.00  0.00     0.161 HD
HETATM   19  O   UNL     1     -39.820 -52.234  12.742  1.00  0.00    -0.273 OA
ENDBRANCH  14  15
ENDBRANCH   1  14
TORSDOF 3
ENDMDL
MODEL 5
REMARK VINA RESULT:      -5.1      3.997      5.888
REMARK  3 active torsions:
REMARK  status: ('A' for Active; 'I' for Inactive)
REMARK       I    between atoms: N_2  and  C_3 
REMARK    1  A    between atoms: C_3  and  C_5 
REMARK    2  A    between atoms: C_5  and  C_6 
REMARK    3  A    between atoms: C_9  and  C_12 
ROOT
HETATM    1  C   UNL     1     -40.885 -53.764  13.359  1.00  0.00     0.059 A 
HETATM    2  N   UNL     1     -42.081 -54.151  13.748  1.00  0.00    -0.356 N 
ATOM      3  HN  UNL     1     -42.264 -54.947  14.360  1.00  0.00     0.166 HD
HETATM    4  C   UNL     1     -43.056 -53.328  13.210  1.00  0.00     0.021 A 
HETATM    5  C   UNL     1     -42.562 -52.248  12.502  1.00  0.00     0.077 A 
HETATM    6  S   UNL     1     -40.850 -52.308  12.453  1.00  0.00    -0.086 SA
ENDROOT
BRANCH   4   7
HETATM    7  C   UNL     1     -44.493 -53.732  13.336  1.00  0.00     0.040 C 
HETATM    8  C   UNL     1     -45.492 -52.862  12.537  1.00  0.00     0.015 C 
HETATM    9  C   UNL     1     -46.414 -52.299  13.634  1.00  0.00    -0.013 C 
HETATM   10  C   UNL     1     -45.624 -51.294  14.495  1.00  0.00     0.005 C 
HETATM   11  C   UNL     1     -46.540 -53.503  14.568  1.00  0.00     0.010 C 
HETATM   12  C   UNL     1     -44.756 -52.202  15.378  1.00  0.00     0.006 C 
HETATM   13  C   UNL     1     -45.029 -53.602  14.793  1.00  0.00    -0.004 C 
ENDBRANCH   4   7
BRANCH   1  14
HETATM   14  C   UNL     1     -39.651 -54.567  13.589  1.00  0.00     0.167 C 
BRANCH  14  15
HETATM   15  C   UNL     1     -39.378 -54.677  15.073  1.00  0.00     0.223 C 
HETATM   16  N   UNL     1     -38.300 -55.472  15.414  1.00  0.00    -0.365 N 
HETATM   17  C   UNL     1     -37.983 -55.722  16.796  1.00  0.00     0.149 C 
HETATM   18  H   UNL     1     -38.001 -56.152  14.717  1.00  0.00     0.161 HD
HETATM   19  O   UNL     1     -40.026 -54.041  15.899  1.00  0.00    -0.273 OA
ENDBRANCH  14  15
ENDBRANCH   1  14
TORSDOF 3
ENDMDL
MODEL 6
REMARK VINA RESULT:      -5.1      2.965      3.927
REMARK  3 active torsions:
REMARK  status: ('A' for Active; 'I' for Inactive)
REMARK       I    between atoms: N_2  and  C_3 
REMARK    1  A    between atoms: C_3  and  C_5 
REMARK    2  A    between atoms: C_5  and  C_6 
REMARK    3  A    between atoms: C_9  and  C_12 
ROOT
HETATM    1  C   UNL     1     -41.944 -52.203  12.305  1.00  0.00     0.059 A 
HETATM    2  N   UNL     1     -43.257 -52.109  12.290  1.00  0.00    -0.356 N 
ATOM      3  HN  UNL     1     -43.779 -51.332  11.886  1.00  0.00     0.166 HD
HETATM    4  C   UNL     1     -43.829 -53.214  12.900  1.00  0.00     0.021 A 
HETATM    5  C   UNL     1     -42.925 -54.190  13.273  1.00  0.00     0.077 A 
HETATM    6  S   UNL     1     -41.327 -53.683  12.914  1.00  0.00    -0.086 SA
ENDROOT
BRANCH   4   7
HETATM    7  C   UNL     1     -45.298 -53.195  13.196  1.00  0.00     0.040 C 
HETATM    8  C   UNL     1     -46.016 -51.864  12.870  1.00  0.00     0.015 C 
HETATM    9  C   UNL     1     -46.576 -51.430  14.237  1.00  0.00    -0.013 C 
HETATM   10  C   UNL     1     -45.409 -51.027  15.159  1.00  0.00     0.005 C 
HETATM   11  C   UNL     1     -47.010 -52.774  14.824  1.00  0.00     0.010 C 
HETATM   12  C   UNL     1     -44.818 -52.380  15.580  1.00  0.00     0.006 C 
HETATM   13  C   UNL     1     -45.608 -53.379  14.712  1.00  0.00    -0.004 C 
ENDBRANCH   4   7
BRANCH   1  14
HETATM   14  C   UNL     1     -41.041 -51.082  11.923  1.00  0.00     0.167 C 
BRANCH  14  15
HETATM   15  C   UNL     1     -39.863 -51.024  12.872  1.00  0.00     0.223 C 
HETATM   16  N   UNL     1     -40.147 -50.528  14.130  1.00  0.00    -0.365 N 
HETATM   17  C   UNL     1     -39.097 -50.349  15.099  1.00  0.00     0.149 C 
HETATM   18  H   UNL     1     -40.987 -49.959  14.213  1.00  0.00     0.161 HD
HETATM   19  O   UNL     1     -38.759 -51.459  12.558  1.00  0.00    -0.273 OA
ENDBRANCH  14  15
ENDBRANCH   1  14
TORSDOF 3
ENDMDL
MODEL 7
REMARK VINA RESULT:      -5.0      4.046      4.661
REMARK  3 active torsions:
REMARK  status: ('A' for Active; 'I' for Inactive)
REMARK       I    between atoms: N_2  and  C_3 
REMARK    1  A    between atoms: C_3  and  C_5 
REMARK    2  A    between atoms: C_5  and  C_6 
REMARK    3  A    between atoms: C_9  and  C_12 
ROOT
HETATM    1  C   UNL     1     -41.483 -53.407  15.399  1.00  0.00     0.059 A 
HETATM    2  N   UNL     1     -42.309 -52.848  14.540  1.00  0.00    -0.356 N 
ATOM      3  HN  UNL     1     -42.119 -52.725  13.546  1.00  0.00     0.166 HD
HETATM    4  C   UNL     1     -43.473 -52.448  15.177  1.00  0.00     0.021 A 
HETATM    5  C   UNL     1     -43.551 -52.819  16.506  1.00  0.00     0.077 A 
HETATM    6  S   UNL     1     -42.112 -53.621  16.981  1.00  0.00    -0.086 SA
ENDROOT
BRANCH   4   7
HETATM    7  C   UNL     1     -44.443 -51.582  14.433  1.00  0.00     0.040 C 
HETATM    8  C   UNL     1     -45.647 -51.081  15.264  1.00  0.00     0.015 C 
HETATM    9  C   UNL     1     -46.856 -51.660  14.506  1.00  0.00    -0.013 C 
HETATM   10  C   UNL     1     -46.876 -53.191  14.676  1.00  0.00     0.005 C 
HETATM   11  C   UNL     1     -46.405 -51.496  13.054  1.00  0.00     0.010 C 
HETATM   12  C   UNL     1     -45.768 -53.660  13.721  1.00  0.00     0.006 C 
HETATM   13  C   UNL     1     -45.138 -52.331  13.257  1.00  0.00    -0.004 C 
ENDBRANCH   4   7
BRANCH   1  14
HETATM   14  C   UNL     1     -40.070 -53.744  15.071  1.00  0.00     0.167 C 
BRANCH  14  15
HETATM   15  C   UNL     1     -39.608 -52.928  13.883  1.00  0.00     0.223 C 
HETATM   16  N   UNL     1     -38.672 -51.952  14.170  1.00  0.00    -0.365 N 
HETATM   17  C   UNL     1     -38.211 -51.056  13.142  1.00  0.00     0.149 C 
HETATM   18  H   UNL     1     -38.621 -51.645  15.139  1.00  0.00     0.161 HD
HETATM   19  O   UNL     1     -39.988 -53.175  12.742  1.00  0.00    -0.273 OA
ENDBRANCH  14  15
ENDBRANCH   1  14
TORSDOF 3
ENDMDL
MODEL 8
REMARK VINA RESULT:      -4.8      3.284      4.647
REMARK  3 active torsions:
REMARK  status: ('A' for Active; 'I' for Inactive)
REMARK       I    between atoms: N_2  and  C_3 
REMARK    1  A    between atoms: C_3  and  C_5 
REMARK    2  A    between atoms: C_5  and  C_6 
REMARK    3  A    between atoms: C_9  and  C_12 
ROOT
HETATM    1  C   UNL     1     -42.005 -51.690  12.775  1.00  0.00     0.059 A 
HETATM    2  N   UNL     1     -43.039 -52.421  13.133  1.00  0.00    -0.356 N 
ATOM      3  HN  UNL     1     -43.024 -53.435  13.240  1.00  0.00     0.166 HD
HETATM    4  C   UNL     1     -44.150 -51.620  13.344  1.00  0.00     0.021 A 
HETATM    5  C   UNL     1     -43.901 -50.264  13.246  1.00  0.00     0.077 A 
HETATM    6  S   UNL     1     -42.263 -49.994  12.816  1.00  0.00    -0.086 SA
ENDROOT
BRANCH   4   7
HETATM    7  C   UNL     1     -45.486 -52.273  13.530  1.00  0.00     0.040 C 
HETATM    8  C   UNL     1     -46.645 -51.308  13.873  1.00  0.00     0.015 C 
HETATM    9  C   UNL     1     -47.128 -51.823  15.241  1.00  0.00    -0.013 C 
HETATM   10  C   UNL     1     -46.051 -51.530  16.303  1.00  0.00     0.005 C 
HETATM   11  C   UNL     1     -47.004 -53.335  15.054  1.00  0.00     0.010 C 
HETATM   12  C   UNL     1     -44.990 -52.605  16.024  1.00  0.00     0.006 C 
HETATM   13  C   UNL     1     -45.509 -53.264  14.731  1.00  0.00    -0.004 C 
ENDBRANCH   4   7
BRANCH   1  14
HETATM   14  C   UNL     1     -40.729 -52.271  12.270  1.00  0.00     0.167 C 
BRANCH  14  15
HETATM   15  C   UNL     1     -40.424 -53.558  13.004  1.00  0.00     0.223 C 
HETATM   16  N   UNL     1     -39.470 -53.455  13.997  1.00  0.00    -0.365 N 
HETATM   17  C   UNL     1     -39.033 -54.623  14.717  1.00  0.00     0.149 C 
HETATM   18  H   UNL     1     -38.839 -52.658  13.938  1.00  0.00     0.161 HD
HETATM   19  O   UNL     1     -41.041 -54.595  12.774  1.00  0.00    -0.273 OA
ENDBRANCH  14  15
ENDBRANCH   1  14
TORSDOF 3
ENDMDL
MODEL 9
REMARK VINA RESULT:      -4.7      4.897      6.884
REMARK  3 active torsions:
REMARK  status: ('A' for Active; 'I' for Inactive)
REMARK       I    between atoms: N_2  and  C_3 
REMARK    1  A    between atoms: C_3  and  C_5 
REMARK    2  A    between atoms: C_5  and  C_6 
REMARK    3  A    between atoms: C_9  and  C_12 
ROOT
HETATM    1  C   UNL     1     -40.159 -53.447  15.671  1.00  0.00     0.059 A 
HETATM    2  N   UNL     1     -41.227 -54.138  15.334  1.00  0.00    -0.356 N 
ATOM      3  HN  UNL     1     -41.526 -55.002  15.786  1.00  0.00     0.166 HD
HETATM    4  C   UNL     1     -41.887 -53.529  14.279  1.00  0.00     0.021 A 
HETATM    5  C   UNL     1     -41.357 -52.309  13.905  1.00  0.00     0.077 A 
HETATM    6  S   UNL     1     -39.968 -51.954  14.847  1.00  0.00    -0.086 SA
ENDROOT
BRANCH   4   7
HETATM    7  C   UNL     1     -42.991 -54.273  13.591  1.00  0.00     0.040 C 
HETATM    8  C   UNL     1     -43.831 -53.432  12.602  1.00  0.00     0.015 C 
HETATM    9  C   UNL     1     -45.252 -53.527  13.187  1.00  0.00    -0.013 C 
HETATM   10  C   UNL     1     -45.309 -52.741  14.512  1.00  0.00     0.005 C 
HETATM   11  C   UNL     1     -45.283 -54.979  13.665  1.00  0.00     0.010 C 
HETATM   12  C   UNL     1     -44.597 -53.677  15.499  1.00  0.00     0.006 C 
HETATM   13  C   UNL     1     -44.071 -54.799  14.583  1.00  0.00    -0.004 C 
ENDBRANCH   4   7
BRANCH   1  14
HETATM   14  C   UNL     1     -39.126 -53.949  16.620  1.00  0.00     0.167 C 
BRANCH  14  15
HETATM   15  C   UNL     1     -38.993 -55.451  16.487  1.00  0.00     0.223 C 
HETATM   16  N   UNL     1     -39.372 -56.174  17.601  1.00  0.00    -0.365 N 
HETATM   17  C   UNL     1     -39.219 -57.606  17.631  1.00  0.00     0.149 C 
HETATM   18  H   UNL     1     -39.386 -55.669  18.485  1.00  0.00     0.161 HD
HETATM   19  O   UNL     1     -38.644 -55.978  15.434  1.00  0.00    -0.273 OA
ENDBRANCH  14  15
ENDBRANCH   1  14
TORSDOF 3
ENDMDL
