MODEL 1
REMARK VINA RESULT:      -6.3      0.000      0.000
REMARK  4 active torsions:
REMARK  status: ('A' for Active; 'I' for Inactive)
REMARK    1  A    between atoms: C_5  and  N_6 
REMARK       I    between atoms: N_6  and  C_7 
REMARK       I    between atoms: C_7  and  N_9 
REMARK    2  A    between atoms: N_9  and  C_10 
REMARK    3  A    between atoms: C_10  and  C_11 
REMARK    4  A    between atoms: C_11  and  C_12 
ROOT
HETATM    1  N   UNL     1     -40.908 -48.462  10.598  1.00  0.00    -0.295 N 
HETATM    2  C   UNL     1     -40.473 -49.595  11.221  1.00  0.00     0.321 C 
HETATM    3  O   UNL     1     -39.286 -49.718  11.510  1.00  0.00    -0.247 OA
HETATM    4  N   UNL     1     -41.399 -50.578  11.417  1.00  0.00    -0.343 N 
HETATM    5  H   UNL     1     -40.148 -47.854  10.331  1.00  0.00     0.172 HD
HETATM    6  H   UNL     1     -42.362 -50.255  11.384  1.00  0.00     0.164 HD
ENDROOT
BRANCH   1   7
HETATM    7  C   UNL     1     -42.201 -48.137  10.183  1.00  0.00     0.108 A 
HETATM    8  C   UNL     1     -43.163 -47.912  11.162  1.00  0.00     0.049 A 
HETATM    9  C   UNL     1     -44.428 -47.476  10.771  1.00  0.00     0.012 A 
HETATM   10  C   UNL     1     -44.712 -47.310   9.416  1.00  0.00    -0.046 A 
HETATM   11  C   UNL     1     -46.033 -46.801   8.933  1.00  0.00     0.049 C 
HETATM   12  C   UNL     1     -43.711 -47.631   8.512  1.00  0.00     0.096 A 
HETATM   13  N   UNL     1     -42.466 -48.021   8.865  1.00  0.00    -0.352 N 
ATOM     14  HN  UNL     1     -41.754 -48.221   8.162  1.00  0.00     0.166 HD
ENDBRANCH   1   7
BRANCH   4  15
HETATM   15  C   UNL     1     -41.069 -51.845  12.034  1.00  0.00     0.127 C 
BRANCH  15  16
HETATM   16  C   UNL     1     -42.243 -52.808  11.957  1.00  0.00     0.051 C 
BRANCH  16  17
HETATM   17  C   UNL     1     -43.228 -52.777  13.140  1.00  0.00     0.123 C 
HETATM   18  C   UNL     1     -44.549 -53.518  12.893  1.00  0.00     0.032 C 
HETATM   19  C   UNL     1     -45.703 -52.605  12.522  1.00  0.00     0.004 C 
HETATM   20  C   UNL     1     -45.784 -51.488  13.543  1.00  0.00     0.026 C 
HETATM   21  C   UNL     1     -44.488 -50.697  13.505  1.00  0.00     0.168 C 
HETATM   22  O   UNL     1     -43.332 -51.489  13.749  1.00  0.00    -0.386 OA
ENDBRANCH  16  17
ENDBRANCH  15  16
ENDBRANCH   4  15
TORSDOF 4
ENDMDL
MODEL 2
REMARK VINA RESULT:      -6.3      2.271      3.249
REMARK  4 active torsions:
REMARK  status: ('A' for Active; 'I' for Inactive)
REMARK    1  A    between atoms: C_5  and  N_6 
REMARK       I    between atoms: N_6  and  C_7 
REMARK       I    between atoms: C_7  and  N_9 
REMARK    2  A    between atoms: N_9  and  C_10 
REMARK    3  A    between atoms: C_10  and  C_11 
REMARK    4  A    between atoms: C_11  and  C_12 
ROOT
HETATM    1  N   UNL     1     -40.266 -51.133  11.495  1.00  0.00    -0.295 N 
HETATM    2  C   UNL     1     -41.029 -52.065  12.134  1.00  0.00     0.321 C 
HETATM    3  O   UNL     1     -40.685 -53.244  12.131  1.00  0.00    -0.247 OA
HETATM    4  N   UNL     1     -42.198 -51.625  12.682  1.00  0.00    -0.343 N 
HETATM    5  H   UNL     1     -39.511 -51.549  10.969  1.00  0.00     0.172 HD
HETATM    6  H   UNL     1     -42.229 -50.624  12.848  1.00  0.00     0.164 HD
ENDROOT
BRANCH   1   7
HETATM    7  C   UNL     1     -40.485 -49.759  11.376  1.00  0.00     0.108 A 
HETATM    8  C   UNL     1     -39.623 -48.900  12.048  1.00  0.00     0.049 A 
HETATM    9  C   UNL     1     -39.756 -47.527  11.850  1.00  0.00     0.012 A 
HETATM   10  C   UNL     1     -40.765 -47.044  11.019  1.00  0.00    -0.046 A 
HETATM   11  C   UNL     1     -40.933 -45.587  10.727  1.00  0.00     0.049 C 
HETATM   12  C   UNL     1     -41.622 -47.976  10.451  1.00  0.00     0.096 A 
HETATM   13  N   UNL     1     -41.494 -49.313  10.597  1.00  0.00    -0.352 N 
ATOM     14  HN  UNL     1     -42.134 -49.960  10.138  1.00  0.00     0.166 HD
ENDBRANCH   1   7
BRANCH   4  15
HETATM   15  C   UNL     1     -43.122 -52.512  13.359  1.00  0.00     0.127 C 
BRANCH  15  16
HETATM   16  C   UNL     1     -44.089 -53.144  12.371  1.00  0.00     0.051 C 
BRANCH  16  17
HETATM   17  C   UNL     1     -45.572 -53.158  12.785  1.00  0.00     0.123 C 
HETATM   18  C   UNL     1     -46.198 -51.769  12.972  1.00  0.00     0.032 C 
HETATM   19  C   UNL     1     -46.288 -51.329  14.422  1.00  0.00     0.004 C 
HETATM   20  C   UNL     1     -46.945 -52.434  15.224  1.00  0.00     0.026 C 
HETATM   21  C   UNL     1     -46.084 -53.682  15.133  1.00  0.00     0.168 C 
HETATM   22  O   UNL     1     -45.862 -54.122  13.798  1.00  0.00    -0.386 OA
ENDBRANCH  16  17
ENDBRANCH  15  16
ENDBRANCH   4  15
TORSDOF 4
ENDMDL
MODEL 3
REMARK VINA RESULT:      -6.0      2.211      6.124
REMARK  4 active torsions:
REMARK  status: ('A' for Active; 'I' for Inactive)
REMARK    1  A    between atoms: C_5  and  N_6 
REMARK       I    between atoms: N_6  and  C_7 
REMARK       I    between atoms: C_7  and  N_9 
REMARK    2  A    between atoms: N_9  and  C_10 
REMARK    3  A    between atoms: C_10  and  C_11 
REMARK    4  A    between atoms: C_11  and  C_12 
ROOT
HETATM    1  N   UNL     1     -40.861 -51.851  11.529  1.00  0.00    -0.295 N 
HETATM    2  C   UNL     1     -40.670 -50.510  11.693  1.00  0.00     0.321 C 
HETATM    3  O   UNL     1     -39.778 -49.938  11.074  1.00  0.00    -0.247 OA
HETATM    4  N   UNL     1     -41.457 -49.891  12.620  1.00  0.00    -0.343 N 
HETATM    5  H   UNL     1     -40.141 -52.275  10.964  1.00  0.00     0.172 HD
HETATM    6  H   UNL     1     -42.305 -50.398  12.852  1.00  0.00     0.164 HD
ENDROOT
BRANCH   1   7
HETATM    7  C   UNL     1     -41.805 -52.678  12.141  1.00  0.00     0.108 A 
HETATM    8  C   UNL     1     -41.384 -53.478  13.197  1.00  0.00     0.049 A 
HETATM    9  C   UNL     1     -42.334 -54.225  13.893  1.00  0.00     0.012 A 
HETATM   10  C   UNL     1     -43.669 -54.184  13.495  1.00  0.00    -0.046 A 
HETATM   11  C   UNL     1     -44.744 -54.923  14.226  1.00  0.00     0.049 C 
HETATM   12  C   UNL     1     -43.979 -53.414  12.384  1.00  0.00     0.096 A 
HETATM   13  N   UNL     1     -43.086 -52.653  11.714  1.00  0.00    -0.352 N 
ATOM     14  HN  UNL     1     -43.367 -52.082  10.917  1.00  0.00     0.166 HD
ENDBRANCH   1   7
BRANCH   4  15
HETATM   15  C   UNL     1     -41.338 -48.479  12.922  1.00  0.00     0.127 C 
BRANCH  15  16
HETATM   16  C   UNL     1     -42.381 -47.674  12.163  1.00  0.00     0.051 C 
BRANCH  16  17
HETATM   17  C   UNL     1     -41.953 -47.130  10.788  1.00  0.00     0.123 C 
HETATM   18  C   UNL     1     -42.258 -45.643  10.564  1.00  0.00     0.032 C 
HETATM   19  C   UNL     1     -43.512 -45.392   9.744  1.00  0.00     0.004 C 
HETATM   20  C   UNL     1     -43.437 -46.222   8.478  1.00  0.00     0.026 C 
HETATM   21  C   UNL     1     -43.374 -47.691   8.860  1.00  0.00     0.168 C 
HETATM   22  O   UNL     1     -42.279 -48.010   9.711  1.00  0.00    -0.386 OA
ENDBRANCH  16  17
ENDBRANCH  15  16
ENDBRANCH   4  15
TORSDOF 4
ENDMDL
MODEL 4
REMARK VINA RESULT:      -6.0      3.942      5.594
REMARK  4 active torsions:
REMARK  status: ('A' for Active; 'I' for Inactive)
REMARK    1  A    between atoms: C_5  and  N_6 
REMARK       I    between atoms: N_6  and  C_7 
REMARK       I    between atoms: C_7  and  N_9 
REMARK    2  A    between atoms: N_9  and  C_10 
REMARK    3  A    between atoms: C_10  and  C_11 
REMARK    4  A    between atoms: C_11  and  C_12 
ROOT
HETATM    1  N   UNL     1     -42.834 -53.727  12.526  1.00  0.00    -0.295 N 
HETATM    2  C   UNL     1     -44.192 -53.613  12.578  1.00  0.00     0.321 C 
HETATM    3  O   UNL     1     -44.895 -54.616  12.492  1.00  0.00    -0.247 OA
HETATM    4  N   UNL     1     -44.696 -52.347  12.645  1.00  0.00    -0.343 N 
HETATM    5  H   UNL     1     -42.535 -54.665  12.304  1.00  0.00     0.172 HD
HETATM    6  H   UNL     1     -44.033 -51.652  12.975  1.00  0.00     0.164 HD
ENDROOT
BRANCH   1   7
HETATM    7  C   UNL     1     -41.871 -52.718  12.596  1.00  0.00     0.108 A 
HETATM    8  C   UNL     1     -41.382 -52.371  13.850  1.00  0.00     0.049 A 
HETATM    9  C   UNL     1     -40.339 -51.449  13.931  1.00  0.00     0.012 A 
HETATM   10  C   UNL     1     -39.838 -50.870  12.766  1.00  0.00    -0.046 A 
HETATM   11  C   UNL     1     -38.691 -49.910  12.779  1.00  0.00     0.049 C 
HETATM   12  C   UNL     1     -40.442 -51.225  11.569  1.00  0.00     0.096 A 
HETATM   13  N   UNL     1     -41.428 -52.142  11.459  1.00  0.00    -0.352 N 
ATOM     14  HN  UNL     1     -41.823 -52.389  10.551  1.00  0.00     0.166 HD
ENDBRANCH   1   7
BRANCH   4  15
HETATM   15  C   UNL     1     -46.119 -52.076  12.672  1.00  0.00     0.127 C 
BRANCH  15  16
HETATM   16  C   UNL     1     -46.512 -51.372  13.961  1.00  0.00     0.051 C 
BRANCH  16  17
HETATM   17  C   UNL     1     -47.098 -52.263  15.072  1.00  0.00     0.123 C 
HETATM   18  C   UNL     1     -47.407 -51.529  16.384  1.00  0.00     0.032 C 
HETATM   19  C   UNL     1     -46.344 -51.712  17.452  1.00  0.00     0.004 C 
HETATM   20  C   UNL     1     -46.060 -53.193  17.604  1.00  0.00     0.026 C 
HETATM   21  C   UNL     1     -45.538 -53.729  16.282  1.00  0.00     0.168 C 
HETATM   22  O   UNL     1     -46.430 -53.519  15.193  1.00  0.00    -0.386 OA
ENDBRANCH  16  17
ENDBRANCH  15  16
ENDBRANCH   4  15
TORSDOF 4
ENDMDL
MODEL 5
REMARK VINA RESULT:      -5.7      2.616      6.356
REMARK  4 active torsions:
REMARK  status: ('A' for Active; 'I' for Inactive)
REMARK    1  A    between atoms: C_5  and  N_6 
REMARK       I    between atoms: N_6  and  C_7 
REMARK       I    between atoms: C_7  and  N_9 
REMARK    2  A    between atoms: N_9  and  C_10 
REMARK    3  A    between atoms: C_10  and  C_11 
REMARK    4  A    between atoms: C_11  and  C_12 
ROOT
HETATM    1  N   UNL     1     -40.875 -51.760  11.482  1.00  0.00    -0.295 N 
HETATM    2  C   UNL     1     -40.660 -50.432  11.703  1.00  0.00     0.321 C 
HETATM    3  O   UNL     1     -39.805 -49.834  11.056  1.00  0.00    -0.247 OA
HETATM    4  N   UNL     1     -41.376 -49.858  12.713  1.00  0.00    -0.343 N 
HETATM    5  H   UNL     1     -40.199 -52.159  10.847  1.00  0.00     0.172 HD
HETATM    6  H   UNL     1     -42.212 -50.371  12.975  1.00  0.00     0.164 HD
ENDROOT
BRANCH   1   7
HETATM    7  C   UNL     1     -41.784 -52.613  12.111  1.00  0.00     0.108 A 
HETATM    8  C   UNL     1     -41.312 -53.433  13.130  1.00  0.00     0.049 A 
HETATM    9  C   UNL     1     -42.225 -54.207  13.845  1.00  0.00     0.012 A 
HETATM   10  C   UNL     1     -43.576 -54.172  13.503  1.00  0.00    -0.046 A 
HETATM   11  C   UNL     1     -44.612 -54.941  14.259  1.00  0.00     0.049 C 
HETATM   12  C   UNL     1     -43.939 -53.380  12.424  1.00  0.00     0.096 A 
HETATM   13  N   UNL     1     -43.081 -52.593  11.738  1.00  0.00    -0.352 N 
ATOM     14  HN  UNL     1     -43.401 -52.007  10.967  1.00  0.00     0.166 HD
ENDBRANCH   1   7
BRANCH   4  15
HETATM   15  C   UNL     1     -41.223 -48.465  13.080  1.00  0.00     0.127 C 
BRANCH  15  16
HETATM   16  C   UNL     1     -42.506 -47.693  12.820  1.00  0.00     0.051 C 
BRANCH  16  17
HETATM   17  C   UNL     1     -42.419 -46.556  11.786  1.00  0.00     0.123 C 
HETATM   18  C   UNL     1     -41.426 -46.804  10.643  1.00  0.00     0.032 C 
HETATM   19  C   UNL     1     -40.093 -46.100  10.827  1.00  0.00     0.004 C 
HETATM   20  C   UNL     1     -40.356 -44.639  11.133  1.00  0.00     0.026 C 
HETATM   21  C   UNL     1     -41.153 -44.546  12.423  1.00  0.00     0.168 C 
HETATM   22  O   UNL     1     -42.384 -45.258  12.382  1.00  0.00    -0.386 OA
ENDBRANCH  16  17
ENDBRANCH  15  16
ENDBRANCH   4  15
TORSDOF 4
ENDMDL
MODEL 6
REMARK VINA RESULT:      -5.7      2.257      3.284
REMARK  4 active torsions:
REMARK  status: ('A' for Active; 'I' for Inactive)
REMARK    1  A    between atoms: C_5  and  N_6 
REMARK       I    between atoms: N_6  and  C_7 
REMARK       I    between atoms: C_7  and  N_9 
REMARK    2  A    between atoms: N_9  and  C_10 
REMARK    3  A    between atoms: C_10  and  C_11 
REMARK    4  A    between atoms: C_11  and  C_12 
ROOT
HETATM    1  N   UNL     1     -38.184 -50.124  11.476  1.00  0.00    -0.295 N 
HETATM    2  C   UNL     1     -37.910 -51.087  12.402  1.00  0.00     0.321 C 
HETATM    3  O   UNL     1     -36.866 -51.728  12.329  1.00  0.00    -0.247 OA
HETATM    4  N   UNL     1     -38.880 -51.335  13.330  1.00  0.00    -0.343 N 
HETATM    5  H   UNL     1     -37.510 -50.110  10.725  1.00  0.00     0.172 HD
HETATM    6  H   UNL     1     -39.549 -50.579  13.445  1.00  0.00     0.164 HD
ENDROOT
BRANCH   1   7
HETATM    7  C   UNL     1     -39.307 -49.300  11.381  1.00  0.00     0.108 A 
HETATM    8  C   UNL     1     -39.224 -48.019  11.915  1.00  0.00     0.049 A 
HETATM    9  C   UNL     1     -40.293 -47.144  11.729  1.00  0.00     0.012 A 
HETATM   10  C   UNL     1     -41.430 -47.578  11.050  1.00  0.00    -0.046 A 
HETATM   11  C   UNL     1     -42.592 -46.677  10.776  1.00  0.00     0.049 C 
HETATM   12  C   UNL     1     -41.449 -48.897  10.619  1.00  0.00     0.096 A 
HETATM   13  N   UNL     1     -40.413 -49.754  10.754  1.00  0.00    -0.352 N 
ATOM     14  HN  UNL     1     -40.465 -50.708  10.397  1.00  0.00     0.166 HD
ENDBRANCH   1   7
BRANCH   4  15
HETATM   15  C   UNL     1     -38.738 -52.353  14.350  1.00  0.00     0.127 C 
BRANCH  15  16
HETATM   16  C   UNL     1     -39.917 -53.313  14.325  1.00  0.00     0.051 C 
BRANCH  16  17
HETATM   17  C   UNL     1     -41.317 -52.671  14.300  1.00  0.00     0.123 C 
HETATM   18  C   UNL     1     -42.446 -53.578  14.806  1.00  0.00     0.032 C 
HETATM   19  C   UNL     1     -43.247 -54.236  13.696  1.00  0.00     0.004 C 
HETATM   20  C   UNL     1     -43.684 -53.165  12.716  1.00  0.00     0.026 C 
HETATM   21  C   UNL     1     -42.448 -52.513  12.122  1.00  0.00     0.168 C 
HETATM   22  O   UNL     1     -41.580 -51.947  13.098  1.00  0.00    -0.386 OA
ENDBRANCH  16  17
ENDBRANCH  15  16
ENDBRANCH   4  15
TORSDOF 4
ENDMDL
MODEL 7
REMARK VINA RESULT:      -5.5      3.730      5.986
REMARK  4 active torsions:
REMARK  status: ('A' for Active; 'I' for Inactive)
REMARK    1  A    between atoms: C_5  and  N_6 
REMARK       I    between atoms: N_6  and  C_7 
REMARK       I    between atoms: C_7  and  N_9 
REMARK    2  A    between atoms: N_9  and  C_10 
REMARK    3  A    between atoms: C_10  and  C_11 
REMARK    4  A    between atoms: C_11  and  C_12 
ROOT
HETATM    1  N   UNL     1     -42.700 -52.681  11.862  1.00  0.00    -0.295 N 
HETATM    2  C   UNL     1     -41.401 -52.604  12.269  1.00  0.00     0.321 C 
HETATM    3  O   UNL     1     -40.494 -52.761  11.456  1.00  0.00    -0.247 OA
HETATM    4  N   UNL     1     -41.190 -52.429  13.605  1.00  0.00    -0.343 N 
HETATM    5  H   UNL     1     -42.785 -52.981  10.901  1.00  0.00     0.172 HD
HETATM    6  H   UNL     1     -41.988 -52.053  14.107  1.00  0.00     0.164 HD
ENDROOT
BRANCH   1   7
HETATM    7  C   UNL     1     -43.862 -52.542  12.623  1.00  0.00     0.108 A 
HETATM    8  C   UNL     1     -44.514 -53.699  13.036  1.00  0.00     0.049 A 
HETATM    9  C   UNL     1     -45.609 -53.582  13.891  1.00  0.00     0.012 A 
HETATM   10  C   UNL     1     -46.049 -52.318  14.281  1.00  0.00    -0.046 A 
HETATM   11  C   UNL     1     -47.187 -52.125  15.232  1.00  0.00     0.049 C 
HETATM   12  C   UNL     1     -45.380 -51.222  13.757  1.00  0.00     0.096 A 
HETATM   13  N   UNL     1     -44.294 -51.307  12.956  1.00  0.00    -0.352 N 
ATOM     14  HN  UNL     1     -43.819 -50.471  12.617  1.00  0.00     0.166 HD
ENDBRANCH   1   7
BRANCH   4  15
HETATM   15  C   UNL     1     -39.862 -52.364  14.180  1.00  0.00     0.127 C 
BRANCH  15  16
HETATM   16  C   UNL     1     -39.634 -51.026  14.865  1.00  0.00     0.051 C 
BRANCH  16  17
HETATM   17  C   UNL     1     -38.632 -50.074  14.184  1.00  0.00     0.123 C 
HETATM   18  C   UNL     1     -39.253 -49.121  13.155  1.00  0.00     0.032 C 
HETATM   19  C   UNL     1     -39.075 -49.574  11.716  1.00  0.00     0.004 C 
HETATM   20  C   UNL     1     -37.611 -49.891  11.486  1.00  0.00     0.026 C 
HETATM   21  C   UNL     1     -37.202 -51.017  12.420  1.00  0.00     0.168 C 
HETATM   22  O   UNL     1     -37.421 -50.722  13.795  1.00  0.00    -0.386 OA
ENDBRANCH  16  17
ENDBRANCH  15  16
ENDBRANCH   4  15
TORSDOF 4
ENDMDL
MODEL 8
REMARK VINA RESULT:      -5.5      1.880      2.987
REMARK  4 active torsions:
REMARK  status: ('A' for Active; 'I' for Inactive)
REMARK    1  A    between atoms: C_5  and  N_6 
REMARK       I    between atoms: N_6  and  C_7 
REMARK       I    between atoms: C_7  and  N_9 
REMARK    2  A    between atoms: N_9  and  C_10 
REMARK    3  A    between atoms: C_10  and  C_11 
REMARK    4  A    between atoms: C_11  and  C_12 
ROOT
HETATM    1  N   UNL     1     -41.920 -46.065   9.525  1.00  0.00    -0.295 N 
HETATM    2  C   UNL     1     -41.073 -46.245  10.579  1.00  0.00     0.321 C 
HETATM    3  O   UNL     1     -40.136 -45.471  10.751  1.00  0.00    -0.247 OA
HETATM    4  N   UNL     1     -41.283 -47.352  11.348  1.00  0.00    -0.343 N 
HETATM    5  H   UNL     1     -41.608 -45.334   8.902  1.00  0.00     0.172 HD
HETATM    6  H   UNL     1     -42.218 -47.742  11.269  1.00  0.00     0.164 HD
ENDROOT
BRANCH   1   7
HETATM    7  C   UNL     1     -43.027 -46.830   9.155  1.00  0.00     0.108 A 
HETATM    8  C   UNL     1     -44.122 -46.850  10.012  1.00  0.00     0.049 A 
HETATM    9  C   UNL     1     -45.278 -47.516   9.607  1.00  0.00     0.012 A 
HETATM   10  C   UNL     1     -45.301 -48.174   8.378  1.00  0.00    -0.046 A 
HETATM   11  C   UNL     1     -46.523 -48.866   7.863  1.00  0.00     0.049 C 
HETATM   12  C   UNL     1     -44.134 -48.160   7.627  1.00  0.00     0.096 A 
HETATM   13  N   UNL     1     -43.013 -47.493   7.979  1.00  0.00    -0.352 N 
ATOM     14  HN  UNL     1     -42.188 -47.490   7.380  1.00  0.00     0.166 HD
ENDBRANCH   1   7
BRANCH   4  15
HETATM   15  C   UNL     1     -40.441 -47.686  12.477  1.00  0.00     0.127 C 
BRANCH  15  16
HETATM   16  C   UNL     1     -40.876 -48.998  13.109  1.00  0.00     0.051 C 
BRANCH  16  17
HETATM   17  C   UNL     1     -41.876 -49.845  12.300  1.00  0.00     0.123 C 
HETATM   18  C   UNL     1     -43.216 -50.098  13.003  1.00  0.00     0.032 C 
HETATM   19  C   UNL     1     -43.316 -51.465  13.656  1.00  0.00     0.004 C 
HETATM   20  C   UNL     1     -42.923 -52.518  12.639  1.00  0.00     0.026 C 
HETATM   21  C   UNL     1     -41.487 -52.271  12.210  1.00  0.00     0.168 C 
HETATM   22  O   UNL     1     -41.271 -50.974  11.668  1.00  0.00    -0.386 OA
ENDBRANCH  16  17
ENDBRANCH  15  16
ENDBRANCH   4  15
TORSDOF 4
ENDMDL
MODEL 9
REMARK VINA RESULT:      -5.4      3.234      6.415
REMARK  4 active torsions:
REMARK  status: ('A' for Active; 'I' for Inactive)
REMARK    1  A    between atoms: C_5  and  N_6 
REMARK       I    between atoms: N_6  and  C_7 
REMARK       I    between atoms: C_7  and  N_9 
REMARK    2  A    between atoms: N_9  and  C_10 
REMARK    3  A    between atoms: C_10  and  C_11 
REMARK    4  A    between atoms: C_11  and  C_12 
ROOT
HETATM    1  N   UNL     1     -40.911 -51.768  11.452  1.00  0.00    -0.295 N 
HETATM    2  C   UNL     1     -40.729 -50.430  11.647  1.00  0.00     0.321 C 
HETATM    3  O   UNL     1     -39.888 -49.824  10.989  1.00  0.00    -0.247 OA
HETATM    4  N   UNL     1     -41.460 -49.854  12.644  1.00  0.00    -0.343 N 
HETATM    5  H   UNL     1     -40.224 -52.162  10.826  1.00  0.00     0.172 HD
HETATM    6  H   UNL     1     -42.284 -50.382  12.915  1.00  0.00     0.164 HD
ENDROOT
BRANCH   1   7
HETATM    7  C   UNL     1     -41.800 -52.630  12.096  1.00  0.00     0.108 A 
HETATM    8  C   UNL     1     -41.302 -53.444  13.107  1.00  0.00     0.049 A 
HETATM    9  C   UNL     1     -42.194 -54.227  13.839  1.00  0.00     0.012 A 
HETATM   10  C   UNL     1     -43.551 -54.207  13.520  1.00  0.00    -0.046 A 
HETATM   11  C   UNL     1     -44.566 -54.987  14.294  1.00  0.00     0.049 C 
HETATM   12  C   UNL     1     -43.941 -53.420  12.447  1.00  0.00     0.096 A 
HETATM   13  N   UNL     1     -43.104 -52.624  11.745  1.00  0.00    -0.352 N 
ATOM     14  HN  UNL     1     -43.443 -52.042  10.979  1.00  0.00     0.166 HD
ENDBRANCH   1   7
BRANCH   4  15
HETATM   15  C   UNL     1     -41.342 -48.451  12.984  1.00  0.00     0.127 C 
BRANCH  15  16
HETATM   16  C   UNL     1     -41.355 -48.256  14.491  1.00  0.00     0.051 C 
BRANCH  16  17
HETATM   17  C   UNL     1     -39.998 -48.388  15.207  1.00  0.00     0.123 C 
HETATM   18  C   UNL     1     -39.362 -47.055  15.624  1.00  0.00     0.032 C 
HETATM   19  C   UNL     1     -38.280 -46.570  14.676  1.00  0.00     0.004 C 
HETATM   20  C   UNL     1     -37.295 -47.699  14.448  1.00  0.00     0.026 C 
HETATM   21  C   UNL     1     -38.030 -48.867  13.813  1.00  0.00     0.168 C 
HETATM   22  O   UNL     1     -39.128 -49.335  14.587  1.00  0.00    -0.386 OA
ENDBRANCH  16  17
ENDBRANCH  15  16
ENDBRANCH   4  15
TORSDOF 4
ENDMDL
