MODEL 1
REMARK VINA RESULT:      -6.7      0.000      0.000
REMARK  6 active torsions:
REMARK  status: ('A' for Active; 'I' for Inactive)
REMARK    1  A    between atoms: C_2  and  C_3 
REMARK    2  A    between atoms: C_2  and  N_10 
REMARK    3  A    between atoms: C_3  and  N_4 
REMARK       I    between atoms: N_10  and  C_11 
REMARK    4  A    between atoms: C_11  and  C_13 
REMARK    5  A    between atoms: C_13  and  N_14 
REMARK    6  A    between atoms: C_16  and  C_21 
ROOT
HETATM    1  N   UNL     1     -42.434 -50.419  12.383  1.00  0.00    -0.354 N 
HETATM    2  C   UNL     1     -41.972 -49.268  11.777  1.00  0.00     0.236 C 
HETATM    3  O   UNL     1     -41.039 -49.248  10.975  1.00  0.00    -0.272 OA
HETATM    4  H   UNL     1     -43.396 -50.412  12.714  1.00  0.00     0.162 HD
ENDROOT
BRANCH   2   5
HETATM    5  C   UNL     1     -42.712 -47.987  12.156  1.00  0.00     0.234 C 
BRANCH   5   6
HETATM    6  N   UNL     1     -43.413 -47.382  11.025  1.00  0.00    -0.315 N 
HETATM    7  C   UNL     1     -44.574 -47.977  10.545  1.00  0.00     0.110 A 
HETATM    8  C   UNL     1     -45.226 -47.503   9.465  1.00  0.00     0.063 A 
HETATM    9  C   UNL     1     -44.673 -46.353   8.777  1.00  0.00     0.023 A 
HETATM   10  C   UNL     1     -43.555 -45.755   9.215  1.00  0.00     0.075 A 
HETATM   11  C   UNL     1     -42.855 -46.255  10.428  1.00  0.00     0.247 A 
HETATM   12  O   UNL     1     -41.841 -45.684  10.817  1.00  0.00    -0.268 OA
BRANCH   8  13
HETATM   13  C   UNL     1     -46.469 -48.168   8.945  1.00  0.00     0.418 C 
HETATM   14  F   UNL     1     -46.836 -49.247   9.686  1.00  0.00    -0.166 F 
HETATM   15  F   UNL     1     -47.529 -47.319   8.946  1.00  0.00    -0.166 F 
HETATM   16  F   UNL     1     -46.314 -48.604   7.670  1.00  0.00    -0.166 F 
ENDBRANCH   8  13
ENDBRANCH   5   6
ENDBRANCH   2   5
BRANCH   1  17
HETATM   17  C   UNL     1     -41.876 -51.746  12.110  1.00  0.00     0.108 C 
HETATM   18  C   UNL     1     -40.575 -52.011  12.885  1.00  0.00     0.034 C 
BRANCH  17  19
HETATM   19  C   UNL     1     -42.888 -52.861  12.505  1.00  0.00     0.297 C 
BRANCH  19  20
HETATM   20  N   UNL     1     -43.963 -52.496  13.453  1.00  0.00     0.094 N 
HETATM   21  C   UNL     1     -43.556 -52.859  14.841  1.00  0.00     0.298 C 
HETATM   22  C   UNL     1     -43.560 -54.373  15.129  1.00  0.00     0.198 C 
HETATM   23  O   UNL     1     -44.832 -54.965  14.832  1.00  0.00    -0.388 OA
HETATM   24  C   UNL     1     -45.216 -54.703  13.476  1.00  0.00     0.198 C 
HETATM   25  C   UNL     1     -45.247 -53.189  13.187  1.00  0.00     0.298 C 
ENDBRANCH  19  20
ENDBRANCH  17  19
ENDBRANCH   1  17
TORSDOF 6
ENDMDL
MODEL 2
REMARK VINA RESULT:      -6.6      2.192      2.884
REMARK  6 active torsions:
REMARK  status: ('A' for Active; 'I' for Inactive)
REMARK    1  A    between atoms: C_2  and  C_3 
REMARK    2  A    between atoms: C_2  and  N_10 
REMARK    3  A    between atoms: C_3  and  N_4 
REMARK       I    between atoms: N_10  and  C_11 
REMARK    4  A    between atoms: C_11  and  C_13 
REMARK    5  A    between atoms: C_13  and  N_14 
REMARK    6  A    between atoms: C_16  and  C_21 
ROOT
HETATM    1  N   UNL     1     -42.506 -49.714  12.228  1.00  0.00    -0.354 N 
HETATM    2  C   UNL     1     -42.124 -48.404  12.021  1.00  0.00     0.236 C 
HETATM    3  O   UNL     1     -41.924 -47.601  12.931  1.00  0.00    -0.272 OA
HETATM    4  H   UNL     1     -42.287 -50.381  11.491  1.00  0.00     0.162 HD
ENDROOT
BRANCH   2   5
HETATM    5  C   UNL     1     -41.946 -47.998  10.559  1.00  0.00     0.234 C 
BRANCH   5   6
HETATM    6  N   UNL     1     -43.109 -47.296  10.021  1.00  0.00    -0.315 N 
HETATM    7  C   UNL     1     -44.274 -48.007   9.757  1.00  0.00     0.110 A 
HETATM    8  C   UNL     1     -45.355 -47.428   9.200  1.00  0.00     0.063 A 
HETATM    9  C   UNL     1     -45.277 -46.024   8.845  1.00  0.00     0.023 A 
HETATM   10  C   UNL     1     -44.170 -45.308   9.088  1.00  0.00     0.075 A 
HETATM   11  C   UNL     1     -42.989 -45.939   9.736  1.00  0.00     0.247 A 
HETATM   12  O   UNL     1     -41.991 -45.261   9.960  1.00  0.00    -0.268 OA
BRANCH   8  13
HETATM   13  C   UNL     1     -46.600 -48.215   8.901  1.00  0.00     0.418 C 
HETATM   14  F   UNL     1     -46.769 -49.269   9.741  1.00  0.00    -0.166 F 
HETATM   15  F   UNL     1     -47.715 -47.448   9.012  1.00  0.00    -0.166 F 
HETATM   16  F   UNL     1     -46.591 -48.717   7.640  1.00  0.00    -0.166 F 
ENDBRANCH   8  13
ENDBRANCH   5   6
ENDBRANCH   2   5
BRANCH   1  17
HETATM   17  C   UNL     1     -42.684 -50.293  13.563  1.00  0.00     0.108 C 
HETATM   18  C   UNL     1     -44.159 -50.569  13.895  1.00  0.00     0.034 C 
BRANCH  17  19
HETATM   19  C   UNL     1     -41.920 -51.644  13.683  1.00  0.00     0.297 C 
BRANCH  19  20
HETATM   20  N   UNL     1     -40.970 -51.985  12.602  1.00  0.00     0.094 N 
HETATM   21  C   UNL     1     -40.876 -53.466  12.460  1.00  0.00     0.298 C 
HETATM   22  C   UNL     1     -40.116 -54.167  13.603  1.00  0.00     0.198 C 
HETATM   23  O   UNL     1     -38.803 -53.617  13.781  1.00  0.00    -0.388 OA
HETATM   24  C   UNL     1     -38.863 -52.203  14.001  1.00  0.00     0.198 C 
HETATM   25  C   UNL     1     -39.593 -51.489  12.845  1.00  0.00     0.298 C 
ENDBRANCH  19  20
ENDBRANCH  17  19
ENDBRANCH   1  17
TORSDOF 6
ENDMDL
MODEL 3
REMARK VINA RESULT:      -6.5      3.094      7.705
REMARK  6 active torsions:
REMARK  status: ('A' for Active; 'I' for Inactive)
REMARK    1  A    between atoms: C_2  and  C_3 
REMARK    2  A    between atoms: C_2  and  N_10 
REMARK    3  A    between atoms: C_3  and  N_4 
REMARK       I    between atoms: N_10  and  C_11 
REMARK    4  A    between atoms: C_11  and  C_13 
REMARK    5  A    between atoms: C_13  and  N_14 
REMARK    6  A    between atoms: C_16  and  C_21 
ROOT
HETATM    1  N   UNL     1     -41.066 -50.492  11.508  1.00  0.00    -0.354 N 
HETATM    2  C   UNL     1     -41.015 -51.368  12.574  1.00  0.00     0.236 C 
HETATM    3  O   UNL     1     -40.967 -51.007  13.750  1.00  0.00    -0.272 OA
HETATM    4  H   UNL     1     -41.472 -50.841  10.643  1.00  0.00     0.162 HD
ENDROOT
BRANCH   2   5
HETATM    5  C   UNL     1     -41.037 -52.849  12.206  1.00  0.00     0.234 C 
BRANCH   5   6
HETATM    6  N   UNL     1     -41.736 -53.668  13.195  1.00  0.00    -0.315 N 
HETATM    7  C   UNL     1     -43.116 -53.805  13.114  1.00  0.00     0.110 A 
HETATM    8  C   UNL     1     -43.821 -54.493  14.034  1.00  0.00     0.063 A 
HETATM    9  C   UNL     1     -43.107 -55.080  15.151  1.00  0.00     0.023 A 
HETATM   10  C   UNL     1     -41.775 -54.968  15.257  1.00  0.00     0.075 A 
HETATM   11  C   UNL     1     -40.992 -54.240  14.223  1.00  0.00     0.247 A 
HETATM   12  O   UNL     1     -39.772 -54.161  14.335  1.00  0.00    -0.268 OA
BRANCH   8  13
HETATM   13  C   UNL     1     -45.316 -54.616  13.946  1.00  0.00     0.418 C 
HETATM   14  F   UNL     1     -45.721 -55.867  13.603  1.00  0.00    -0.166 F 
HETATM   15  F   UNL     1     -45.913 -54.326  15.130  1.00  0.00    -0.166 F 
HETATM   16  F   UNL     1     -45.840 -53.770  13.023  1.00  0.00    -0.166 F 
ENDBRANCH   8  13
ENDBRANCH   5   6
ENDBRANCH   2   5
BRANCH   1  17
HETATM   17  C   UNL     1     -41.097 -49.036  11.671  1.00  0.00     0.108 C 
HETATM   18  C   UNL     1     -39.692 -48.411  11.674  1.00  0.00     0.034 C 
BRANCH  17  19
HETATM   19  C   UNL     1     -41.898 -48.369  10.514  1.00  0.00     0.297 C 
BRANCH  19  20
HETATM   20  N   UNL     1     -43.163 -47.689  10.869  1.00  0.00     0.094 N 
HETATM   21  C   UNL     1     -43.960 -47.430   9.636  1.00  0.00     0.298 C 
HETATM   22  C   UNL     1     -43.394 -46.313   8.736  1.00  0.00     0.198 C 
HETATM   23  O   UNL     1     -43.219 -45.088   9.461  1.00  0.00    -0.388 OA
HETATM   24  C   UNL     1     -42.387 -45.286  10.611  1.00  0.00     0.198 C 
HETATM   25  C   UNL     1     -42.964 -46.378  11.535  1.00  0.00     0.298 C 
ENDBRANCH  19  20
ENDBRANCH  17  19
ENDBRANCH   1  17
TORSDOF 6
ENDMDL
MODEL 4
REMARK VINA RESULT:      -6.3      2.768      7.125
REMARK  6 active torsions:
REMARK  status: ('A' for Active; 'I' for Inactive)
REMARK    1  A    between atoms: C_2  and  C_3 
REMARK    2  A    between atoms: C_2  and  N_10 
REMARK    3  A    between atoms: C_3  and  N_4 
REMARK       I    between atoms: N_10  and  C_11 
REMARK    4  A    between atoms: C_11  and  C_13 
REMARK    5  A    between atoms: C_13  and  N_14 
REMARK    6  A    between atoms: C_16  and  C_21 
ROOT
HETATM    1  N   UNL     1     -42.526 -48.654  11.464  1.00  0.00    -0.354 N 
HETATM    2  C   UNL     1     -41.572 -49.601  11.778  1.00  0.00     0.236 C 
HETATM    3  O   UNL     1     -40.582 -49.827  11.083  1.00  0.00    -0.272 OA
HETATM    4  H   UNL     1     -43.073 -48.276  12.235  1.00  0.00     0.162 HD
ENDROOT
BRANCH   2   5
HETATM    5  C   UNL     1     -41.811 -50.363  13.080  1.00  0.00     0.234 C 
BRANCH   5   6
HETATM    6  N   UNL     1     -42.820 -51.412  12.944  1.00  0.00    -0.315 N 
HETATM    7  C   UNL     1     -44.134 -51.145  13.310  1.00  0.00     0.110 A 
HETATM    8  C   UNL     1     -45.094 -52.090  13.268  1.00  0.00     0.063 A 
HETATM    9  C   UNL     1     -44.723 -53.430  12.853  1.00  0.00     0.023 A 
HETATM   10  C   UNL     1     -43.465 -53.719  12.492  1.00  0.00     0.075 A 
HETATM   11  C   UNL     1     -42.413 -52.668  12.503  1.00  0.00     0.247 A 
HETATM   12  O   UNL     1     -41.271 -52.953  12.156  1.00  0.00    -0.268 OA
BRANCH   8  13
HETATM   13  C   UNL     1     -46.506 -51.793  13.686  1.00  0.00     0.418 C 
HETATM   14  F   UNL     1     -47.194 -52.909  14.043  1.00  0.00    -0.166 F 
HETATM   15  F   UNL     1     -46.546 -50.955  14.754  1.00  0.00    -0.166 F 
HETATM   16  F   UNL     1     -47.214 -51.199  12.692  1.00  0.00    -0.166 F 
ENDBRANCH   8  13
ENDBRANCH   5   6
ENDBRANCH   2   5
BRANCH   1  17
HETATM   17  C   UNL     1     -42.442 -47.797  10.278  1.00  0.00     0.108 C 
HETATM   18  C   UNL     1     -43.813 -47.550   9.628  1.00  0.00     0.034 C 
BRANCH  17  19
HETATM   19  C   UNL     1     -41.844 -46.407  10.645  1.00  0.00     0.297 C 
BRANCH  19  20
HETATM   20  N   UNL     1     -40.371 -46.305  10.739  1.00  0.00     0.094 N 
HETATM   21  C   UNL     1     -39.955 -46.320  12.171  1.00  0.00     0.298 C 
HETATM   22  C   UNL     1     -40.280 -45.026  12.941  1.00  0.00     0.198 C 
HETATM   23  O   UNL     1     -39.729 -43.871  12.292  1.00  0.00    -0.388 OA
HETATM   24  C   UNL     1     -40.176 -43.782  10.934  1.00  0.00     0.198 C 
HETATM   25  C   UNL     1     -39.824 -45.060  10.146  1.00  0.00     0.298 C 
ENDBRANCH  19  20
ENDBRANCH  17  19
ENDBRANCH   1  17
TORSDOF 6
ENDMDL
MODEL 5
REMARK VINA RESULT:      -6.2      4.754      7.141
REMARK  6 active torsions:
REMARK  status: ('A' for Active; 'I' for Inactive)
REMARK    1  A    between atoms: C_2  and  C_3 
REMARK    2  A    between atoms: C_2  and  N_10 
REMARK    3  A    between atoms: C_3  and  N_4 
REMARK       I    between atoms: N_10  and  C_11 
REMARK    4  A    between atoms: C_11  and  C_13 
REMARK    5  A    between atoms: C_13  and  N_14 
REMARK    6  A    between atoms: C_16  and  C_21 
ROOT
HETATM    1  N   UNL     1     -41.862 -53.829  13.928  1.00  0.00    -0.354 N 
HETATM    2  C   UNL     1     -42.656 -54.328  14.941  1.00  0.00     0.236 C 
HETATM    3  O   UNL     1     -42.271 -54.470  16.101  1.00  0.00    -0.272 OA
HETATM    4  H   UNL     1     -42.337 -53.402  13.136  1.00  0.00     0.162 HD
ENDROOT
BRANCH   2   5
HETATM    5  C   UNL     1     -44.083 -54.690  14.535  1.00  0.00     0.234 C 
BRANCH   5   6
HETATM    6  N   UNL     1     -44.946 -53.518  14.399  1.00  0.00    -0.315 N 
HETATM    7  C   UNL     1     -45.550 -52.980  15.529  1.00  0.00     0.110 A 
HETATM    8  C   UNL     1     -46.406 -51.943  15.456  1.00  0.00     0.063 A 
HETATM    9  C   UNL     1     -46.720 -51.398  14.149  1.00  0.00     0.023 A 
HETATM   10  C   UNL     1     -46.153 -51.893  13.039  1.00  0.00     0.075 A 
HETATM   11  C   UNL     1     -45.180 -53.015  13.122  1.00  0.00     0.247 A 
HETATM   12  O   UNL     1     -44.664 -53.443  12.094  1.00  0.00    -0.268 OA
BRANCH   8  13
HETATM   13  C   UNL     1     -47.068 -51.384  16.685  1.00  0.00     0.418 C 
HETATM   14  F   UNL     1     -48.370 -51.055  16.477  1.00  0.00    -0.166 F 
HETATM   15  F   UNL     1     -47.052 -52.274  17.710  1.00  0.00    -0.166 F 
HETATM   16  F   UNL     1     -46.447 -50.262  17.128  1.00  0.00    -0.166 F 
ENDBRANCH   8  13
ENDBRANCH   5   6
ENDBRANCH   2   5
BRANCH   1  17
HETATM   17  C   UNL     1     -40.480 -53.389  14.139  1.00  0.00     0.108 C 
HETATM   18  C   UNL     1     -39.458 -54.512  13.896  1.00  0.00     0.034 C 
BRANCH  17  19
HETATM   19  C   UNL     1     -40.121 -52.219  13.176  1.00  0.00     0.297 C 
BRANCH  19  20
HETATM   20  N   UNL     1     -39.524 -51.006  13.776  1.00  0.00     0.094 N 
HETATM   21  C   UNL     1     -39.991 -49.796  13.039  1.00  0.00     0.298 C 
HETATM   22  C   UNL     1     -39.376 -49.631  11.635  1.00  0.00     0.198 C 
HETATM   23  O   UNL     1     -37.943 -49.642  11.680  1.00  0.00    -0.388 OA
HETATM   24  C   UNL     1     -37.458 -50.834  12.311  1.00  0.00     0.198 C 
HETATM   25  C   UNL     1     -38.041 -50.991  13.730  1.00  0.00     0.298 C 
ENDBRANCH  19  20
ENDBRANCH  17  19
ENDBRANCH   1  17
TORSDOF 6
ENDMDL
MODEL 6
REMARK VINA RESULT:      -6.0      2.075      2.657
REMARK  6 active torsions:
REMARK  status: ('A' for Active; 'I' for Inactive)
REMARK    1  A    between atoms: C_2  and  C_3 
REMARK    2  A    between atoms: C_2  and  N_10 
REMARK    3  A    between atoms: C_3  and  N_4 
REMARK       I    between atoms: N_10  and  C_11 
REMARK    4  A    between atoms: C_11  and  C_13 
REMARK    5  A    between atoms: C_13  and  N_14 
REMARK    6  A    between atoms: C_16  and  C_21 
ROOT
HETATM    1  N   UNL     1     -41.909 -51.673  11.713  1.00  0.00    -0.354 N 
HETATM    2  C   UNL     1     -41.474 -50.439  12.153  1.00  0.00     0.236 C 
HETATM    3  O   UNL     1     -41.707 -49.995  13.277  1.00  0.00    -0.272 OA
HETATM    4  H   UNL     1     -41.381 -52.107  10.960  1.00  0.00     0.162 HD
ENDROOT
BRANCH   2   5
HETATM    5  C   UNL     1     -40.653 -49.638  11.145  1.00  0.00     0.234 C 
BRANCH   5   6
HETATM    6  N   UNL     1     -41.168 -48.285  10.943  1.00  0.00    -0.315 N 
HETATM    7  C   UNL     1     -42.300 -48.095  10.160  1.00  0.00     0.110 A 
HETATM    8  C   UNL     1     -42.783 -46.868   9.886  1.00  0.00     0.063 A 
HETATM    9  C   UNL     1     -42.072 -45.716  10.407  1.00  0.00     0.023 A 
HETATM   10  C   UNL     1     -40.977 -45.864  11.168  1.00  0.00     0.075 A 
HETATM   11  C   UNL     1     -40.466 -47.220  11.501  1.00  0.00     0.247 A 
HETATM   12  O   UNL     1     -39.469 -47.331  12.210  1.00  0.00    -0.268 OA
BRANCH   8  13
HETATM   13  C   UNL     1     -43.997 -46.677   9.020  1.00  0.00     0.418 C 
HETATM   14  F   UNL     1     -45.124 -47.193   9.577  1.00  0.00    -0.166 F 
HETATM   15  F   UNL     1     -44.245 -45.363   8.789  1.00  0.00    -0.166 F 
HETATM   16  F   UNL     1     -43.852 -47.270   7.808  1.00  0.00    -0.166 F 
ENDBRANCH   8  13
ENDBRANCH   5   6
ENDBRANCH   2   5
BRANCH   1  17
HETATM   17  C   UNL     1     -42.673 -52.598  12.555  1.00  0.00     0.108 C 
HETATM   18  C   UNL     1     -41.892 -53.047  13.800  1.00  0.00     0.034 C 
BRANCH  17  19
HETATM   19  C   UNL     1     -43.991 -51.931  13.049  1.00  0.00     0.297 C 
BRANCH  19  20
HETATM   20  N   UNL     1     -45.263 -52.587  12.676  1.00  0.00     0.094 N 
HETATM   21  C   UNL     1     -46.401 -51.652  12.913  1.00  0.00     0.298 C 
HETATM   22  C   UNL     1     -46.738 -51.425  14.400  1.00  0.00     0.198 C 
HETATM   23  O   UNL     1     -46.982 -52.662  15.083  1.00  0.00    -0.388 OA
HETATM   24  C   UNL     1     -45.870 -53.555  14.943  1.00  0.00     0.198 C 
HETATM   25  C   UNL     1     -45.548 -53.816  13.458  1.00  0.00     0.298 C 
ENDBRANCH  19  20
ENDBRANCH  17  19
ENDBRANCH   1  17
TORSDOF 6
ENDMDL
MODEL 7
REMARK VINA RESULT:      -5.9      4.495      8.432
REMARK  6 active torsions:
REMARK  status: ('A' for Active; 'I' for Inactive)
REMARK    1  A    between atoms: C_2  and  C_3 
REMARK    2  A    between atoms: C_2  and  N_10 
REMARK    3  A    between atoms: C_3  and  N_4 
REMARK       I    between atoms: N_10  and  C_11 
REMARK    4  A    between atoms: C_11  and  C_13 
REMARK    5  A    between atoms: C_13  and  N_14 
REMARK    6  A    between atoms: C_16  and  C_21 
ROOT
HETATM    1  N   UNL     1     -41.022 -50.501  11.648  1.00  0.00    -0.354 N 
HETATM    2  C   UNL     1     -42.027 -51.189  12.300  1.00  0.00     0.236 C 
HETATM    3  O   UNL     1     -42.789 -50.671  13.114  1.00  0.00    -0.272 OA
HETATM    4  H   UNL     1     -40.706 -50.879  10.759  1.00  0.00     0.162 HD
ENDROOT
BRANCH   2   5
HETATM    5  C   UNL     1     -42.152 -52.666  11.932  1.00  0.00     0.234 C 
BRANCH   5   6
HETATM    6  N   UNL     1     -42.535 -53.501  13.069  1.00  0.00    -0.315 N 
HETATM    7  C   UNL     1     -41.573 -53.863  14.004  1.00  0.00     0.110 A 
HETATM    8  C   UNL     1     -41.852 -54.684  15.036  1.00  0.00     0.063 A 
HETATM    9  C   UNL     1     -43.195 -55.220  15.145  1.00  0.00     0.023 A 
HETATM   10  C   UNL     1     -44.147 -54.889  14.261  1.00  0.00     0.075 A 
HETATM   11  C   UNL     1     -43.849 -53.954  13.143  1.00  0.00     0.247 A 
HETATM   12  O   UNL     1     -44.740 -53.656  12.353  1.00  0.00    -0.268 OA
BRANCH   8  13
HETATM   13  C   UNL     1     -40.796 -55.084  16.028  1.00  0.00     0.418 C 
HETATM   14  F   UNL     1     -41.167 -56.147  16.788  1.00  0.00    -0.166 F 
HETATM   15  F   UNL     1     -39.637 -55.431  15.412  1.00  0.00    -0.166 F 
HETATM   16  F   UNL     1     -40.500 -54.075  16.886  1.00  0.00    -0.166 F 
ENDBRANCH   8  13
ENDBRANCH   5   6
ENDBRANCH   2   5
BRANCH   1  17
HETATM   17  C   UNL     1     -40.779 -49.069  11.842  1.00  0.00     0.108 C 
HETATM   18  C   UNL     1     -39.288 -48.705  11.755  1.00  0.00     0.034 C 
BRANCH  17  19
HETATM   19  C   UNL     1     -41.525 -48.233  10.760  1.00  0.00     0.297 C 
BRANCH  19  20
HETATM   20  N   UNL     1     -42.815 -47.622  11.147  1.00  0.00     0.094 N 
HETATM   21  C   UNL     1     -43.689 -47.488   9.946  1.00  0.00     0.298 C 
HETATM   22  C   UNL     1     -43.250 -46.387   8.960  1.00  0.00     0.198 C 
HETATM   23  O   UNL     1     -43.127 -45.114   9.609  1.00  0.00    -0.388 OA
HETATM   24  C   UNL     1     -42.227 -45.190  10.722  1.00  0.00     0.198 C 
HETATM   25  C   UNL     1     -42.678 -46.266  11.731  1.00  0.00     0.298 C 
ENDBRANCH  19  20
ENDBRANCH  17  19
ENDBRANCH   1  17
TORSDOF 6
ENDMDL
MODEL 8
REMARK VINA RESULT:      -5.8      2.963      7.309
REMARK  6 active torsions:
REMARK  status: ('A' for Active; 'I' for Inactive)
REMARK    1  A    between atoms: C_2  and  C_3 
REMARK    2  A    between atoms: C_2  and  N_10 
REMARK    3  A    between atoms: C_3  and  N_4 
REMARK       I    between atoms: N_10  and  C_11 
REMARK    4  A    between atoms: C_11  and  C_13 
REMARK    5  A    between atoms: C_13  and  N_14 
REMARK    6  A    between atoms: C_16  and  C_21 
ROOT
HETATM    1  N   UNL     1     -40.421 -50.098  12.024  1.00  0.00    -0.354 N 
HETATM    2  C   UNL     1     -41.015 -51.077  12.795  1.00  0.00     0.236 C 
HETATM    3  O   UNL     1     -40.875 -51.162  14.015  1.00  0.00    -0.272 OA
HETATM    4  H   UNL     1     -40.868 -49.874  11.138  1.00  0.00     0.162 HD
ENDROOT
BRANCH   2   5
HETATM    5  C   UNL     1     -41.890 -52.069  12.033  1.00  0.00     0.234 C 
BRANCH   5   6
HETATM    6  N   UNL     1     -42.891 -52.711  12.883  1.00  0.00    -0.315 N 
HETATM    7  C   UNL     1     -44.106 -52.074  13.106  1.00  0.00     0.110 A 
HETATM    8  C   UNL     1     -45.040 -52.586  13.932  1.00  0.00     0.063 A 
HETATM    9  C   UNL     1     -44.743 -53.825  14.623  1.00  0.00     0.023 A 
HETATM   10  C   UNL     1     -43.581 -54.465  14.429  1.00  0.00     0.075 A 
HETATM   11  C   UNL     1     -42.565 -53.920  13.490  1.00  0.00     0.247 A 
HETATM   12  O   UNL     1     -41.514 -54.530  13.319  1.00  0.00    -0.268 OA
BRANCH   8  13
HETATM   13  C   UNL     1     -46.342 -51.876  14.179  1.00  0.00     0.418 C 
HETATM   14  F   UNL     1     -46.841 -51.291  13.060  1.00  0.00    -0.166 F 
HETATM   15  F   UNL     1     -47.298 -52.727  14.632  1.00  0.00    -0.166 F 
HETATM   16  F   UNL     1     -46.215 -50.896  15.109  1.00  0.00    -0.166 F 
ENDBRANCH   8  13
ENDBRANCH   5   6
ENDBRANCH   2   5
BRANCH   1  17
HETATM   17  C   UNL     1     -39.582 -49.036  12.587  1.00  0.00     0.108 C 
HETATM   18  C   UNL     1     -38.095 -49.421  12.636  1.00  0.00     0.034 C 
BRANCH  17  19
HETATM   19  C   UNL     1     -39.697 -47.735  11.739  1.00  0.00     0.297 C 
BRANCH  19  20
HETATM   20  N   UNL     1     -40.487 -46.622  12.310  1.00  0.00     0.094 N 
HETATM   21  C   UNL     1     -41.865 -46.636  11.738  1.00  0.00     0.298 C 
HETATM   22  C   UNL     1     -41.946 -46.187  10.266  1.00  0.00     0.198 C 
HETATM   23  O   UNL     1     -41.360 -44.892  10.074  1.00  0.00    -0.388 OA
HETATM   24  C   UNL     1     -40.005 -44.868  10.540  1.00  0.00     0.198 C 
HETATM   25  C   UNL     1     -39.917 -45.283  12.022  1.00  0.00     0.298 C 
ENDBRANCH  19  20
ENDBRANCH  17  19
ENDBRANCH   1  17
TORSDOF 6
ENDMDL
MODEL 9
REMARK VINA RESULT:      -5.5      3.742      7.685
REMARK  6 active torsions:
REMARK  status: ('A' for Active; 'I' for Inactive)
REMARK    1  A    between atoms: C_2  and  C_3 
REMARK    2  A    between atoms: C_2  and  N_10 
REMARK    3  A    between atoms: C_3  and  N_4 
REMARK       I    between atoms: N_10  and  C_11 
REMARK    4  A    between atoms: C_11  and  C_13 
REMARK    5  A    between atoms: C_13  and  N_14 
REMARK    6  A    between atoms: C_16  and  C_21 
ROOT
HETATM    1  N   UNL     1     -39.998 -49.338  12.823  1.00  0.00    -0.354 N 
HETATM    2  C   UNL     1     -41.275 -49.841  12.975  1.00  0.00     0.236 C 
HETATM    3  O   UNL     1     -42.065 -49.448  13.833  1.00  0.00    -0.272 OA
HETATM    4  H   UNL     1     -39.571 -49.433  11.905  1.00  0.00     0.162 HD
ENDROOT
BRANCH   2   5
HETATM    5  C   UNL     1     -41.670 -50.933  11.983  1.00  0.00     0.234 C 
BRANCH   5   6
HETATM    6  N   UNL     1     -41.985 -52.203  12.635  1.00  0.00    -0.315 N 
HETATM    7  C   UNL     1     -43.314 -52.568  12.812  1.00  0.00     0.110 A 
HETATM    8  C   UNL     1     -43.665 -53.694  13.463  1.00  0.00     0.063 A 
HETATM    9  C   UNL     1     -42.614 -54.527  14.014  1.00  0.00     0.023 A 
HETATM   10  C   UNL     1     -41.322 -54.204  13.859  1.00  0.00     0.075 A 
HETATM   11  C   UNL     1     -40.932 -52.981  13.109  1.00  0.00     0.247 A 
HETATM   12  O   UNL     1     -39.743 -52.712  12.969  1.00  0.00    -0.268 OA
BRANCH   8  13
HETATM   13  C   UNL     1     -45.107 -54.066  13.666  1.00  0.00     0.418 C 
HETATM   14  F   UNL     1     -45.949 -53.358  12.868  1.00  0.00    -0.166 F 
HETATM   15  F   UNL     1     -45.329 -55.378  13.395  1.00  0.00    -0.166 F 
HETATM   16  F   UNL     1     -45.510 -53.854  14.944  1.00  0.00    -0.166 F 
ENDBRANCH   8  13
ENDBRANCH   5   6
ENDBRANCH   2   5
BRANCH   1  17
HETATM   17  C   UNL     1     -39.461 -48.258  13.656  1.00  0.00     0.108 C 
HETATM   18  C   UNL     1     -38.020 -48.530  14.119  1.00  0.00     0.034 C 
BRANCH  17  19
HETATM   19  C   UNL     1     -39.450 -46.913  12.872  1.00  0.00     0.297 C 
BRANCH  19  20
HETATM   20  N   UNL     1     -40.733 -46.453  12.298  1.00  0.00     0.094 N 
HETATM   21  C   UNL     1     -40.613 -46.347  10.815  1.00  0.00     0.298 C 
HETATM   22  C   UNL     1     -39.756 -45.162  10.329  1.00  0.00     0.198 C 
HETATM   23  O   UNL     1     -40.226 -43.916  10.863  1.00  0.00    -0.388 OA
HETATM   24  C   UNL     1     -40.275 -43.956  12.295  1.00  0.00     0.198 C 
HETATM   25  C   UNL     1     -41.158 -45.119  12.790  1.00  0.00     0.298 C 
ENDBRANCH  19  20
ENDBRANCH  17  19
ENDBRANCH   1  17
TORSDOF 6
ENDMDL
