MODEL 1
REMARK VINA RESULT:      -6.0      0.000      0.000
REMARK  4 active torsions:
REMARK  status: ('A' for Active; 'I' for Inactive)
REMARK    1  A    between atoms: C_6  and  O_8 
REMARK    2  A    between atoms: O_8  and  C_9 
REMARK    3  A    between atoms: C_9  and  C_10 
REMARK       I    between atoms: C_10  and  N_12 
REMARK    4  A    between atoms: N_12  and  C_13 
ROOT
HETATM    1  C   UNL     1     -41.449 -49.966  12.311  1.00  0.00     0.246 C 
HETATM    2  O   UNL     1     -40.773 -49.464  13.205  1.00  0.00    -0.271 OA
HETATM    3  N   UNL     1     -41.869 -49.335  11.161  1.00  0.00    -0.311 N 
HETATM    4  H   UNL     1     -41.816 -49.914  10.331  1.00  0.00     0.170 HD
ENDROOT
BRANCH   1   5
HETATM    5  C   UNL     1     -41.948 -51.399  12.422  1.00  0.00     0.271 C 
BRANCH   5   6
HETATM    6  O   UNL     1     -42.336 -51.754  13.742  1.00  0.00    -0.377 OA
BRANCH   6   7
HETATM    7  C   UNL     1     -43.702 -52.193  13.827  1.00  0.00     0.122 C 
HETATM    8  C   UNL     1     -44.106 -53.052  12.620  1.00  0.00     0.032 C 
HETATM    9  C   UNL     1     -45.594 -53.372  12.594  1.00  0.00     0.003 C 
HETATM   10  C   UNL     1     -46.442 -52.110  12.682  1.00  0.00     0.004 C 
HETATM   11  C   UNL     1     -46.081 -51.236  13.890  1.00  0.00    -0.016 C 
HETATM   12  C   UNL     1     -46.548 -51.867  15.205  1.00  0.00     0.010 C 
HETATM   13  C   UNL     1     -44.576 -50.935  13.908  1.00  0.00     0.036 C 
ENDBRANCH   6   7
ENDBRANCH   5   6
ENDBRANCH   1   5
BRANCH   3  14
HETATM   14  C   UNL     1     -41.642 -47.978  10.906  1.00  0.00     0.113 A 
HETATM   15  N   UNL     1     -40.341 -47.626  11.012  1.00  0.00    -0.352 N 
HETATM   16  C   UNL     1     -40.032 -46.325  10.822  1.00  0.00     0.089 A 
ATOM     17  HN  UNL     1     -39.621 -48.315  11.226  1.00  0.00     0.166 HD
HETATM   18  C   UNL     1     -40.952 -45.362  10.460  1.00  0.00     0.018 A 
HETATM   19  C   UNL     1     -42.272 -45.755  10.284  1.00  0.00     0.012 A 
HETATM   20  C   UNL     1     -42.645 -47.088  10.500  1.00  0.00    -0.018 A 
HETATM   21  C   UNL     1     -44.065 -47.491  10.221  1.00  0.00     0.052 C 
ENDBRANCH   3  14
TORSDOF 4
ENDMDL
MODEL 2
REMARK VINA RESULT:      -6.0      1.422      2.367
REMARK  4 active torsions:
REMARK  status: ('A' for Active; 'I' for Inactive)
REMARK    1  A    between atoms: C_6  and  O_8 
REMARK    2  A    between atoms: O_8  and  C_9 
REMARK    3  A    between atoms: C_9  and  C_10 
REMARK       I    between atoms: C_10  and  N_12 
REMARK    4  A    between atoms: N_12  and  C_13 
ROOT
HETATM    1  C   UNL     1     -41.948 -50.036  12.169  1.00  0.00     0.246 C 
HETATM    2  O   UNL     1     -42.807 -49.601  12.931  1.00  0.00    -0.271 OA
HETATM    3  N   UNL     1     -41.447 -49.392  11.060  1.00  0.00    -0.311 N 
HETATM    4  H   UNL     1     -40.446 -49.497  10.940  1.00  0.00     0.170 HD
ENDROOT
BRANCH   1   5
HETATM    5  C   UNL     1     -41.359 -51.424  12.370  1.00  0.00     0.271 C 
BRANCH   5   6
HETATM    6  O   UNL     1     -42.233 -52.466  11.959  1.00  0.00    -0.377 OA
BRANCH   6   7
HETATM    7  C   UNL     1     -43.095 -52.925  13.014  1.00  0.00     0.122 C 
HETATM    8  C   UNL     1     -42.570 -54.214  13.665  1.00  0.00     0.032 C 
HETATM    9  C   UNL     1     -43.556 -54.821  14.654  1.00  0.00     0.003 C 
HETATM   10  C   UNL     1     -44.925 -55.038  14.022  1.00  0.00     0.004 C 
HETATM   11  C   UNL     1     -45.491 -53.765  13.381  1.00  0.00    -0.016 C 
HETATM   12  C   UNL     1     -45.932 -52.748  14.437  1.00  0.00     0.010 C 
HETATM   13  C   UNL     1     -44.480 -53.160  12.397  1.00  0.00     0.036 C 
ENDBRANCH   6   7
ENDBRANCH   5   6
ENDBRANCH   1   5
BRANCH   3  14
HETATM   14  C   UNL     1     -41.934 -48.161  10.605  1.00  0.00     0.113 A 
HETATM   15  N   UNL     1     -43.183 -48.236  10.096  1.00  0.00    -0.352 N 
HETATM   16  C   UNL     1     -43.720 -47.103   9.594  1.00  0.00     0.089 A 
ATOM     17  HN  UNL     1     -43.702 -49.115  10.092  1.00  0.00     0.166 HD
HETATM   18  C   UNL     1     -43.096 -45.874   9.638  1.00  0.00     0.018 A 
HETATM   19  C   UNL     1     -41.842 -45.800  10.230  1.00  0.00     0.012 A 
HETATM   20  C   UNL     1     -41.232 -46.955  10.736  1.00  0.00    -0.018 A 
HETATM   21  C   UNL     1     -39.913 -46.821  11.441  1.00  0.00     0.052 C 
ENDBRANCH   3  14
TORSDOF 4
ENDMDL
MODEL 3
REMARK VINA RESULT:      -5.8      1.317      2.036
REMARK  4 active torsions:
REMARK  status: ('A' for Active; 'I' for Inactive)
REMARK    1  A    between atoms: C_6  and  O_8 
REMARK    2  A    between atoms: O_8  and  C_9 
REMARK    3  A    between atoms: C_9  and  C_10 
REMARK       I    between atoms: C_10  and  N_12 
REMARK    4  A    between atoms: N_12  and  C_13 
ROOT
HETATM    1  C   UNL     1     -42.309 -50.245  12.656  1.00  0.00     0.246 C 
HETATM    2  O   UNL     1     -42.803 -49.511  13.507  1.00  0.00    -0.271 OA
HETATM    3  N   UNL     1     -41.798 -49.848  11.441  1.00  0.00    -0.311 N 
HETATM    4  H   UNL     1     -40.944 -50.326  11.177  1.00  0.00     0.170 HD
ENDROOT
BRANCH   1   5
HETATM    5  C   UNL     1     -42.257 -51.752  12.862  1.00  0.00     0.271 C 
BRANCH   5   6
HETATM    6  O   UNL     1     -43.471 -52.405  12.521  1.00  0.00    -0.377 OA
BRANCH   6   7
HETATM    7  C   UNL     1     -44.354 -52.570  13.643  1.00  0.00     0.122 C 
HETATM    8  C   UNL     1     -44.804 -54.029  13.811  1.00  0.00     0.032 C 
HETATM    9  C   UNL     1     -45.882 -54.198  14.872  1.00  0.00     0.003 C 
HETATM   10  C   UNL     1     -47.070 -53.280  14.618  1.00  0.00     0.004 C 
HETATM   11  C   UNL     1     -46.662 -51.809  14.467  1.00  0.00    -0.016 C 
HETATM   12  C   UNL     1     -46.237 -51.199  15.806  1.00  0.00     0.010 C 
HETATM   13  C   UNL     1     -45.565 -51.659  13.403  1.00  0.00     0.036 C 
ENDBRANCH   6   7
ENDBRANCH   5   6
ENDBRANCH   1   5
BRANCH   3  14
HETATM   14  C   UNL     1     -41.860 -48.529  10.979  1.00  0.00     0.113 A 
HETATM   15  N   UNL     1     -43.048 -48.214  10.417  1.00  0.00    -0.352 N 
HETATM   16  C   UNL     1     -43.185 -46.972   9.906  1.00  0.00     0.089 A 
ATOM     17  HN  UNL     1     -43.811 -48.889  10.380  1.00  0.00     0.166 HD
HETATM   18  C   UNL     1     -42.213 -45.995   9.991  1.00  0.00     0.018 A 
HETATM   19  C   UNL     1     -41.025 -46.312  10.637  1.00  0.00     0.012 A 
HETATM   20  C   UNL     1     -40.826 -47.599  11.155  1.00  0.00    -0.018 A 
HETATM   21  C   UNL     1     -39.563 -47.878  11.917  1.00  0.00     0.052 C 
ENDBRANCH   3  14
TORSDOF 4
ENDMDL
MODEL 4
REMARK VINA RESULT:      -5.7      2.468      3.728
REMARK  4 active torsions:
REMARK  status: ('A' for Active; 'I' for Inactive)
REMARK    1  A    between atoms: C_6  and  O_8 
REMARK    2  A    between atoms: O_8  and  C_9 
REMARK    3  A    between atoms: C_9  and  C_10 
REMARK       I    between atoms: C_10  and  N_12 
REMARK    4  A    between atoms: N_12  and  C_13 
ROOT
HETATM    1  C   UNL     1     -41.560 -49.758  11.682  1.00  0.00     0.246 C 
HETATM    2  O   UNL     1     -42.567 -49.621  12.372  1.00  0.00    -0.271 OA
HETATM    3  N   UNL     1     -41.169 -48.938  10.647  1.00  0.00    -0.311 N 
HETATM    4  H   UNL     1     -40.172 -48.757  10.620  1.00  0.00     0.170 HD
ENDROOT
BRANCH   1   5
HETATM    5  C   UNL     1     -40.627 -50.941  11.892  1.00  0.00     0.271 C 
BRANCH   5   6
HETATM    6  O   UNL     1     -41.207 -52.183  11.522  1.00  0.00    -0.377 OA
BRANCH   6   7
HETATM    7  C   UNL     1     -41.066 -53.193  12.535  1.00  0.00     0.122 C 
HETATM    8  C   UNL     1     -42.417 -53.578  13.155  1.00  0.00     0.032 C 
HETATM    9  C   UNL     1     -42.276 -54.505  14.354  1.00  0.00     0.003 C 
HETATM   10  C   UNL     1     -41.331 -53.930  15.401  1.00  0.00     0.004 C 
HETATM   11  C   UNL     1     -39.961 -53.554  14.822  1.00  0.00    -0.016 C 
HETATM   12  C   UNL     1     -39.131 -54.795  14.483  1.00  0.00     0.010 C 
HETATM   13  C   UNL     1     -40.124 -52.630  13.607  1.00  0.00     0.036 C 
ENDBRANCH   6   7
ENDBRANCH   5   6
ENDBRANCH   1   5
BRANCH   3  14
HETATM   14  C   UNL     1     -41.940 -47.864  10.189  1.00  0.00     0.113 A 
HETATM   15  N   UNL     1     -42.959 -48.242   9.386  1.00  0.00    -0.352 N 
HETATM   16  C   UNL     1     -43.734 -47.268   8.862  1.00  0.00     0.089 A 
ATOM     17  HN  UNL     1     -43.136 -49.226   9.183  1.00  0.00     0.166 HD
HETATM   18  C   UNL     1     -43.586 -45.928   9.157  1.00  0.00     0.018 A 
HETATM   19  C   UNL     1     -42.579 -45.563  10.041  1.00  0.00     0.012 A 
HETATM   20  C   UNL     1     -41.731 -46.536  10.586  1.00  0.00    -0.018 A 
HETATM   21  C   UNL     1     -40.709 -46.112  11.600  1.00  0.00     0.052 C 
ENDBRANCH   3  14
TORSDOF 4
ENDMDL
MODEL 5
REMARK VINA RESULT:      -5.7      3.039      4.394
REMARK  4 active torsions:
REMARK  status: ('A' for Active; 'I' for Inactive)
REMARK    1  A    between atoms: C_6  and  O_8 
REMARK    2  A    between atoms: O_8  and  C_9 
REMARK    3  A    between atoms: C_9  and  C_10 
REMARK       I    between atoms: C_10  and  N_12 
REMARK    4  A    between atoms: N_12  and  C_13 
ROOT
HETATM    1  C   UNL     1     -41.565 -51.248  12.160  1.00  0.00     0.246 C 
HETATM    2  O   UNL     1     -42.370 -50.759  12.949  1.00  0.00    -0.271 OA
HETATM    3  N   UNL     1     -40.771 -50.553  11.277  1.00  0.00    -0.311 N 
HETATM    4  H   UNL     1     -39.827 -50.914  11.199  1.00  0.00     0.170 HD
ENDROOT
BRANCH   1   5
HETATM    5  C   UNL     1     -41.398 -52.757  12.053  1.00  0.00     0.271 C 
BRANCH   5   6
HETATM    6  O   UNL     1     -40.108 -53.205  12.443  1.00  0.00    -0.377 OA
BRANCH   6   7
HETATM    7  C   UNL     1     -40.135 -54.050  13.606  1.00  0.00     0.122 C 
HETATM    8  C   UNL     1     -41.552 -54.188  14.184  1.00  0.00     0.032 C 
HETATM    9  C   UNL     1     -41.578 -54.922  15.517  1.00  0.00     0.003 C 
HETATM   10  C   UNL     1     -40.629 -54.289  16.526  1.00  0.00     0.004 C 
HETATM   11  C   UNL     1     -39.197 -54.156  15.991  1.00  0.00    -0.016 C 
HETATM   12  C   UNL     1     -38.498 -55.516  15.903  1.00  0.00     0.010 C 
HETATM   13  C   UNL     1     -39.191 -53.426  14.641  1.00  0.00     0.036 C 
ENDBRANCH   6   7
ENDBRANCH   5   6
ENDBRANCH   1   5
BRANCH   3  14
HETATM   14  C   UNL     1     -40.849 -49.166  11.106  1.00  0.00     0.113 A 
HETATM   15  N   UNL     1     -41.955 -48.772  10.436  1.00  0.00    -0.352 N 
HETATM   16  C   UNL     1     -42.095 -47.452  10.189  1.00  0.00     0.089 A 
ATOM     17  HN  UNL     1     -42.657 -49.445  10.130  1.00  0.00     0.166 HD
HETATM   18  C   UNL     1     -41.216 -46.489  10.640  1.00  0.00     0.018 A 
HETATM   19  C   UNL     1     -40.124 -46.904  11.390  1.00  0.00     0.012 A 
HETATM   20  C   UNL     1     -39.920 -48.266  11.646  1.00  0.00    -0.018 A 
HETATM   21  C   UNL     1     -38.774 -48.668  12.528  1.00  0.00     0.052 C 
ENDBRANCH   3  14
TORSDOF 4
ENDMDL
MODEL 6
REMARK VINA RESULT:      -5.7      2.009      7.028
REMARK  4 active torsions:
REMARK  status: ('A' for Active; 'I' for Inactive)
REMARK    1  A    between atoms: C_6  and  O_8 
REMARK    2  A    between atoms: O_8  and  C_9 
REMARK    3  A    between atoms: C_9  and  C_10 
REMARK       I    between atoms: C_10  and  N_12 
REMARK    4  A    between atoms: N_12  and  C_13 
ROOT
HETATM    1  C   UNL     1     -43.392 -50.585  13.272  1.00  0.00     0.246 C 
HETATM    2  O   UNL     1     -42.534 -51.159  13.937  1.00  0.00    -0.271 OA
HETATM    3  N   UNL     1     -44.664 -51.047  13.017  1.00  0.00    -0.311 N 
HETATM    4  H   UNL     1     -45.379 -50.330  13.059  1.00  0.00     0.170 HD
ENDROOT
BRANCH   1   5
HETATM    5  C   UNL     1     -43.093 -49.256  12.595  1.00  0.00     0.271 C 
BRANCH   5   6
HETATM    6  O   UNL     1     -42.077 -49.348  11.607  1.00  0.00    -0.377 OA
BRANCH   6   7
HETATM    7  C   UNL     1     -42.018 -48.194  10.752  1.00  0.00     0.122 C 
HETATM    8  C   UNL     1     -41.006 -47.155  11.258  1.00  0.00     0.032 C 
HETATM    9  C   UNL     1     -41.059 -45.849  10.479  1.00  0.00     0.003 C 
HETATM   10  C   UNL     1     -42.469 -45.274  10.441  1.00  0.00     0.004 C 
HETATM   11  C   UNL     1     -43.505 -46.277   9.918  1.00  0.00    -0.016 C 
HETATM   12  C   UNL     1     -43.357 -46.510   8.412  1.00  0.00     0.010 C 
HETATM   13  C   UNL     1     -43.428 -47.592  10.706  1.00  0.00     0.036 C 
ENDBRANCH   6   7
ENDBRANCH   5   6
ENDBRANCH   1   5
BRANCH   3  14
HETATM   14  C   UNL     1     -45.117 -52.306  13.426  1.00  0.00     0.113 A 
HETATM   15  N   UNL     1     -44.384 -53.326  12.926  1.00  0.00    -0.352 N 
HETATM   16  C   UNL     1     -44.773 -54.582  13.235  1.00  0.00     0.089 A 
ATOM     17  HN  UNL     1     -43.569 -53.154  12.338  1.00  0.00     0.166 HD
HETATM   18  C   UNL     1     -45.823 -54.874  14.082  1.00  0.00     0.018 A 
HETATM   19  C   UNL     1     -46.519 -53.813  14.646  1.00  0.00     0.012 A 
HETATM   20  C   UNL     1     -46.171 -52.493  14.330  1.00  0.00    -0.018 A 
HETATM   21  C   UNL     1     -46.895 -51.374  15.022  1.00  0.00     0.052 C 
ENDBRANCH   3  14
TORSDOF 4
ENDMDL
MODEL 7
REMARK VINA RESULT:      -5.7      3.013      6.495
REMARK  4 active torsions:
REMARK  status: ('A' for Active; 'I' for Inactive)
REMARK    1  A    between atoms: C_6  and  O_8 
REMARK    2  A    between atoms: O_8  and  C_9 
REMARK    3  A    between atoms: C_9  and  C_10 
REMARK       I    between atoms: C_10  and  N_12 
REMARK    4  A    between atoms: N_12  and  C_13 
ROOT
HETATM    1  C   UNL     1     -42.616 -52.374  13.118  1.00  0.00     0.246 C 
HETATM    2  O   UNL     1     -42.412 -53.130  14.064  1.00  0.00    -0.271 OA
HETATM    3  N   UNL     1     -43.655 -51.477  13.007  1.00  0.00    -0.311 N 
HETATM    4  H   UNL     1     -43.387 -50.585  12.608  1.00  0.00     0.170 HD
ENDROOT
BRANCH   1   5
HETATM    5  C   UNL     1     -41.711 -52.394  11.896  1.00  0.00     0.271 C 
BRANCH   5   6
HETATM    6  O   UNL     1     -40.329 -52.405  12.224  1.00  0.00    -0.377 OA
BRANCH   6   7
HETATM    7  C   UNL     1     -39.875 -51.162  12.785  1.00  0.00     0.122 C 
HETATM    8  C   UNL     1     -39.737 -50.066  11.717  1.00  0.00     0.032 C 
HETATM    9  C   UNL     1     -39.083 -48.799  12.251  1.00  0.00     0.003 C 
HETATM   10  C   UNL     1     -37.745 -49.094  12.916  1.00  0.00     0.004 C 
HETATM   11  C   UNL     1     -37.848 -50.170  14.005  1.00  0.00    -0.016 C 
HETATM   12  C   UNL     1     -38.565 -49.645  15.252  1.00  0.00     0.010 C 
HETATM   13  C   UNL     1     -38.522 -51.434  13.454  1.00  0.00     0.036 C 
ENDBRANCH   6   7
ENDBRANCH   5   6
ENDBRANCH   1   5
BRANCH   3  14
HETATM   14  C   UNL     1     -44.684 -51.378  13.949  1.00  0.00     0.113 A 
HETATM   15  N   UNL     1     -44.252 -51.005  15.174  1.00  0.00    -0.352 N 
HETATM   16  C   UNL     1     -45.172 -50.922  16.160  1.00  0.00     0.089 A 
ATOM     17  HN  UNL     1     -43.270 -50.794  15.348  1.00  0.00     0.166 HD
HETATM   18  C   UNL     1     -46.523 -51.126  15.968  1.00  0.00     0.018 A 
HETATM   19  C   UNL     1     -46.960 -51.436  14.686  1.00  0.00     0.012 A 
HETATM   20  C   UNL     1     -46.038 -51.564  13.639  1.00  0.00    -0.018 A 
HETATM   21  C   UNL     1     -46.557 -51.820  12.253  1.00  0.00     0.052 C 
ENDBRANCH   3  14
TORSDOF 4
ENDMDL
MODEL 8
REMARK VINA RESULT:      -5.7      3.338      6.744
REMARK  4 active torsions:
REMARK  status: ('A' for Active; 'I' for Inactive)
REMARK    1  A    between atoms: C_6  and  O_8 
REMARK    2  A    between atoms: O_8  and  C_9 
REMARK    3  A    between atoms: C_9  and  C_10 
REMARK       I    between atoms: C_10  and  N_12 
REMARK    4  A    between atoms: N_12  and  C_13 
ROOT
HETATM    1  C   UNL     1     -42.060 -53.130  13.151  1.00  0.00     0.246 C 
HETATM    2  O   UNL     1     -42.513 -54.212  13.513  1.00  0.00    -0.271 OA
HETATM    3  N   UNL     1     -42.764 -51.950  13.049  1.00  0.00    -0.311 N 
HETATM    4  H   UNL     1     -42.252 -51.136  13.369  1.00  0.00     0.170 HD
ENDROOT
BRANCH   1   5
HETATM    5  C   UNL     1     -40.608 -52.998  12.716  1.00  0.00     0.271 C 
BRANCH   5   6
HETATM    6  O   UNL     1     -39.729 -52.696  13.790  1.00  0.00    -0.377 OA
BRANCH   6   7
HETATM    7  C   UNL     1     -38.757 -51.692  13.455  1.00  0.00     0.122 C 
HETATM    8  C   UNL     1     -38.315 -50.886  14.686  1.00  0.00     0.032 C 
HETATM    9  C   UNL     1     -37.431 -49.699  14.330  1.00  0.00     0.003 C 
HETATM   10  C   UNL     1     -38.087 -48.802  13.289  1.00  0.00     0.004 C 
HETATM   11  C   UNL     1     -38.522 -49.569  12.034  1.00  0.00    -0.016 C 
HETATM   12  C   UNL     1     -37.320 -49.993  11.185  1.00  0.00     0.010 C 
HETATM   13  C   UNL     1     -39.401 -50.769  12.412  1.00  0.00     0.036 C 
ENDBRANCH   6   7
ENDBRANCH   5   6
ENDBRANCH   1   5
BRANCH   3  14
HETATM   14  C   UNL     1     -44.143 -51.861  13.270  1.00  0.00     0.113 A 
HETATM   15  N   UNL     1     -44.878 -52.457  12.306  1.00  0.00    -0.352 N 
HETATM   16  C   UNL     1     -46.222 -52.385  12.414  1.00  0.00     0.089 A 
ATOM     17  HN  UNL     1     -44.436 -52.942  11.526  1.00  0.00     0.166 HD
HETATM   18  C   UNL     1     -46.876 -51.804  13.482  1.00  0.00     0.018 A 
HETATM   19  C   UNL     1     -46.105 -51.261  14.501  1.00  0.00     0.012 A 
HETATM   20  C   UNL     1     -44.706 -51.284  14.416  1.00  0.00    -0.018 A 
HETATM   21  C   UNL     1     -43.908 -50.760  15.575  1.00  0.00     0.052 C 
ENDBRANCH   3  14
TORSDOF 4
ENDMDL
MODEL 9
REMARK VINA RESULT:      -5.6      2.800      6.922
REMARK  4 active torsions:
REMARK  status: ('A' for Active; 'I' for Inactive)
REMARK    1  A    between atoms: C_6  and  O_8 
REMARK    2  A    between atoms: O_8  and  C_9 
REMARK    3  A    between atoms: C_9  and  C_10 
REMARK       I    between atoms: C_10  and  N_12 
REMARK    4  A    between atoms: N_12  and  C_13 
ROOT
HETATM    1  C   UNL     1     -42.499 -50.184  12.426  1.00  0.00     0.246 C 
HETATM    2  O   UNL     1     -43.345 -49.763  13.210  1.00  0.00    -0.271 OA
HETATM    3  N   UNL     1     -42.301 -51.501  12.077  1.00  0.00    -0.311 N 
HETATM    4  H   UNL     1     -42.105 -51.641  11.092  1.00  0.00     0.170 HD
ENDROOT
BRANCH   1   5
HETATM    5  C   UNL     1     -41.508 -49.236  11.765  1.00  0.00     0.271 C 
BRANCH   5   6
HETATM    6  O   UNL     1     -40.798 -48.433  12.697  1.00  0.00    -0.377 OA
BRANCH   6   7
HETATM    7  C   UNL     1     -39.439 -48.861  12.886  1.00  0.00     0.122 C 
HETATM    8  C   UNL     1     -38.851 -49.488  11.613  1.00  0.00     0.032 C 
HETATM    9  C   UNL     1     -37.483 -50.116  11.840  1.00  0.00     0.003 C 
HETATM   10  C   UNL     1     -37.507 -51.116  12.988  1.00  0.00     0.004 C 
HETATM   11  C   UNL     1     -38.068 -50.518  14.285  1.00  0.00    -0.016 C 
HETATM   12  C   UNL     1     -37.088 -49.527  14.920  1.00  0.00     0.010 C 
HETATM   13  C   UNL     1     -39.440 -49.878  14.035  1.00  0.00     0.036 C 
ENDBRANCH   6   7
ENDBRANCH   5   6
ENDBRANCH   1   5
BRANCH   3  14
HETATM   14  C   UNL     1     -43.006 -52.560  12.658  1.00  0.00     0.113 A 
HETATM   15  N   UNL     1     -44.332 -52.527  12.397  1.00  0.00    -0.352 N 
HETATM   16  C   UNL     1     -45.100 -53.489  12.952  1.00  0.00     0.089 A 
ATOM     17  HN  UNL     1     -44.736 -51.804  11.803  1.00  0.00     0.166 HD
HETATM   18  C   UNL     1     -44.599 -54.533  13.704  1.00  0.00     0.018 A 
HETATM   19  C   UNL     1     -43.226 -54.593  13.902  1.00  0.00     0.012 A 
HETATM   20  C   UNL     1     -42.392 -53.599  13.371  1.00  0.00    -0.018 A 
HETATM   21  C   UNL     1     -40.907 -53.743  13.537  1.00  0.00     0.052 C 
ENDBRANCH   3  14
TORSDOF 4
ENDMDL
