MODEL 1
REMARK VINA RESULT:      -5.9      0.000      0.000
REMARK  5 active torsions:
REMARK  status: ('A' for Active; 'I' for Inactive)
REMARK    1  A    between atoms: C_2  and  C_3 
REMARK    2  A    between atoms: C_6  and  C_7 
REMARK    3  A    between atoms: C_7  and  C_8 
REMARK    4  A    between atoms: C_8  and  N_9 
REMARK       I    between atoms: N_9  and  C_10 
REMARK       I    between atoms: C_10  and  N_12 
REMARK    5  A    between atoms: N_12  and  C_13 
ROOT
HETATM    1  N   UNL     1     -41.641 -50.671  11.759  1.00  0.00    -0.343 N 
HETATM    2  C   UNL     1     -41.718 -52.013  12.015  1.00  0.00     0.316 C 
HETATM    3  O   UNL     1     -40.774 -52.783  11.891  1.00  0.00    -0.247 OA
HETATM    4  N   UNL     1     -42.957 -52.395  12.474  1.00  0.00    -0.338 N 
HETATM    5  H   UNL     1     -42.488 -50.241  11.403  1.00  0.00     0.164 HD
HETATM    6  H   UNL     1     -43.510 -51.640  12.854  1.00  0.00     0.164 HD
ENDROOT
BRANCH   1   7
HETATM    7  C   UNL     1     -40.409 -50.110  11.216  1.00  0.00     0.130 C 
BRANCH   7   8
HETATM    8  C   UNL     1     -40.229 -48.631  11.568  1.00  0.00     0.077 C 
BRANCH   8   9
HETATM    9  C   UNL     1     -41.238 -47.764  10.878  1.00  0.00     0.018 A 
HETATM   10  N   UNL     1     -41.907 -48.276   9.775  1.00  0.00    -0.357 N 
HETATM   11  C   UNL     1     -42.755 -47.385   9.308  1.00  0.00     0.050 A 
ATOM     12  HN  UNL     1     -41.763 -49.208   9.384  1.00  0.00     0.166 HD
HETATM   13  S   UNL     1     -42.802 -45.892  10.158  1.00  0.00    -0.087 SA
HETATM   14  C   UNL     1     -41.610 -46.482  11.236  1.00  0.00     0.076 A 
BRANCH  11  15
HETATM   15  C   UNL     1     -43.657 -47.627   8.141  1.00  0.00     0.060 C 
HETATM   16  C   UNL     1     -45.105 -47.754   8.591  1.00  0.00     0.012 C 
ENDBRANCH  11  15
ENDBRANCH   8   9
ENDBRANCH   7   8
ENDBRANCH   1   7
BRANCH   4  17
HETATM   17  C   UNL     1     -43.120 -53.740  13.026  1.00  0.00     0.087 C 
HETATM   18  C   UNL     1     -44.540 -54.288  12.819  1.00  0.00     0.035 C 
HETATM   19  C   UNL     1     -45.610 -53.690  13.723  1.00  0.00     0.076 C 
HETATM   20  S   UNL     1     -45.222 -53.848  15.489  1.00  0.00    -0.169 SA
HETATM   21  C   UNL     1     -43.561 -53.126  15.478  1.00  0.00     0.076 C 
HETATM   22  C   UNL     1     -42.658 -53.837  14.484  1.00  0.00     0.035 C 
ENDBRANCH   4  17
TORSDOF 5
ENDMDL
MODEL 2
REMARK VINA RESULT:      -5.9      1.627      6.574
REMARK  5 active torsions:
REMARK  status: ('A' for Active; 'I' for Inactive)
REMARK    1  A    between atoms: C_2  and  C_3 
REMARK    2  A    between atoms: C_6  and  C_7 
REMARK    3  A    between atoms: C_7  and  C_8 
REMARK    4  A    between atoms: C_8  and  N_9 
REMARK       I    between atoms: N_9  and  C_10 
REMARK       I    between atoms: C_10  and  N_12 
REMARK    5  A    between atoms: N_12  and  C_13 
ROOT
HETATM    1  N   UNL     1     -40.914 -50.541  11.562  1.00  0.00    -0.343 N 
HETATM    2  C   UNL     1     -41.980 -49.766  11.932  1.00  0.00     0.316 C 
HETATM    3  O   UNL     1     -42.532 -49.849  13.021  1.00  0.00    -0.247 OA
HETATM    4  N   UNL     1     -42.331 -48.850  10.968  1.00  0.00    -0.338 N 
HETATM    5  H   UNL     1     -40.859 -50.770  10.575  1.00  0.00     0.164 HD
HETATM    6  H   UNL     1     -41.602 -48.654  10.297  1.00  0.00     0.164 HD
ENDROOT
BRANCH   1   7
HETATM    7  C   UNL     1     -40.448 -51.598  12.450  1.00  0.00     0.130 C 
BRANCH   7   8
HETATM    8  C   UNL     1     -40.993 -52.976  12.066  1.00  0.00     0.077 C 
BRANCH   8   9
HETATM    9  C   UNL     1     -42.309 -53.260  12.725  1.00  0.00     0.018 A 
HETATM   10  N   UNL     1     -43.464 -52.751  12.146  1.00  0.00    -0.357 N 
HETATM   11  C   UNL     1     -44.516 -53.106  12.852  1.00  0.00     0.050 A 
ATOM     12  HN  UNL     1     -43.492 -52.185  11.298  1.00  0.00     0.166 HD
HETATM   13  S   UNL     1     -44.188 -54.066  14.239  1.00  0.00    -0.087 SA
HETATM   14  C   UNL     1     -42.518 -54.013  13.865  1.00  0.00     0.076 A 
BRANCH  11  15
HETATM   15  C   UNL     1     -45.921 -52.749  12.486  1.00  0.00     0.060 C 
HETATM   16  C   UNL     1     -46.440 -51.621  13.365  1.00  0.00     0.012 C 
ENDBRANCH  11  15
ENDBRANCH   8   9
ENDBRANCH   7   8
ENDBRANCH   1   7
BRANCH   4  17
HETATM   17  C   UNL     1     -43.279 -47.791  11.313  1.00  0.00     0.087 C 
HETATM   18  C   UNL     1     -44.536 -47.822  10.430  1.00  0.00     0.035 C 
HETATM   19  C   UNL     1     -44.348 -47.312   9.008  1.00  0.00     0.076 C 
HETATM   20  S   UNL     1     -43.677 -45.627   8.935  1.00  0.00    -0.169 SA
HETATM   21  C   UNL     1     -42.229 -45.855   9.998  1.00  0.00     0.076 C 
HETATM   22  C   UNL     1     -42.623 -46.407  11.357  1.00  0.00     0.035 C 
ENDBRANCH   4  17
TORSDOF 5
ENDMDL
MODEL 3
REMARK VINA RESULT:      -5.6      1.384      1.726
REMARK  5 active torsions:
REMARK  status: ('A' for Active; 'I' for Inactive)
REMARK    1  A    between atoms: C_2  and  C_3 
REMARK    2  A    between atoms: C_6  and  C_7 
REMARK    3  A    between atoms: C_7  and  C_8 
REMARK    4  A    between atoms: C_8  and  N_9 
REMARK       I    between atoms: N_9  and  C_10 
REMARK       I    between atoms: C_10  and  N_12 
REMARK    5  A    between atoms: N_12  and  C_13 
ROOT
HETATM    1  N   UNL     1     -40.438 -51.250  13.519  1.00  0.00    -0.343 N 
HETATM    2  C   UNL     1     -40.943 -52.456  13.116  1.00  0.00     0.316 C 
HETATM    3  O   UNL     1     -40.274 -53.319  12.559  1.00  0.00    -0.247 OA
HETATM    4  N   UNL     1     -42.268 -52.616  13.448  1.00  0.00    -0.338 N 
HETATM    5  H   UNL     1     -41.086 -50.469  13.485  1.00  0.00     0.164 HD
HETATM    6  H   UNL     1     -42.586 -52.006  14.187  1.00  0.00     0.164 HD
ENDROOT
BRANCH   1   7
HETATM    7  C   UNL     1     -39.060 -50.900  13.198  1.00  0.00     0.130 C 
BRANCH   7   8
HETATM    8  C   UNL     1     -38.914 -50.292  11.800  1.00  0.00     0.077 C 
BRANCH   8   9
HETATM    9  C   UNL     1     -39.814 -49.110  11.609  1.00  0.00     0.018 A 
HETATM   10  N   UNL     1     -40.797 -49.176  10.631  1.00  0.00    -0.357 N 
HETATM   11  C   UNL     1     -41.492 -48.059  10.612  1.00  0.00     0.050 A 
ATOM     12  HN  UNL     1     -40.957 -49.975  10.016  1.00  0.00     0.166 HD
HETATM   13  S   UNL     1     -41.014 -46.872  11.759  1.00  0.00    -0.087 SA
HETATM   14  C   UNL     1     -39.797 -47.931  12.330  1.00  0.00     0.076 A 
BRANCH  11  15
HETATM   15  C   UNL     1     -42.646 -47.813   9.695  1.00  0.00     0.060 C 
HETATM   16  C   UNL     1     -43.911 -47.508  10.484  1.00  0.00     0.012 C 
ENDBRANCH  11  15
ENDBRANCH   8   9
ENDBRANCH   7   8
ENDBRANCH   1   7
BRANCH   4  17
HETATM   17  C   UNL     1     -42.875 -53.940  13.311  1.00  0.00     0.087 C 
HETATM   18  C   UNL     1     -44.205 -53.896  12.543  1.00  0.00     0.035 C 
HETATM   19  C   UNL     1     -45.389 -53.335  13.320  1.00  0.00     0.076 C 
HETATM   20  S   UNL     1     -45.695 -54.205  14.883  1.00  0.00    -0.169 SA
HETATM   21  C   UNL     1     -44.033 -54.098  15.594  1.00  0.00     0.076 C 
HETATM   22  C   UNL     1     -42.991 -54.674  14.650  1.00  0.00     0.035 C 
ENDBRANCH   4  17
TORSDOF 5
ENDMDL
MODEL 4
REMARK VINA RESULT:      -5.6      1.744      2.133
REMARK  5 active torsions:
REMARK  status: ('A' for Active; 'I' for Inactive)
REMARK    1  A    between atoms: C_2  and  C_3 
REMARK    2  A    between atoms: C_6  and  C_7 
REMARK    3  A    between atoms: C_7  and  C_8 
REMARK    4  A    between atoms: C_8  and  N_9 
REMARK       I    between atoms: N_9  and  C_10 
REMARK       I    between atoms: C_10  and  N_12 
REMARK    5  A    between atoms: N_12  and  C_13 
ROOT
HETATM    1  N   UNL     1     -41.453 -50.727  13.236  1.00  0.00    -0.343 N 
HETATM    2  C   UNL     1     -42.809 -50.554  13.294  1.00  0.00     0.316 C 
HETATM    3  O   UNL     1     -43.365 -49.483  13.084  1.00  0.00    -0.247 OA
HETATM    4  N   UNL     1     -43.483 -51.723  13.561  1.00  0.00    -0.338 N 
HETATM    5  H   UNL     1     -41.070 -51.420  13.872  1.00  0.00     0.164 HD
HETATM    6  H   UNL     1     -42.954 -52.561  13.365  1.00  0.00     0.164 HD
ENDROOT
BRANCH   1   7
HETATM    7  C   UNL     1     -40.587 -49.575  13.013  1.00  0.00     0.130 C 
BRANCH   7   8
HETATM    8  C   UNL     1     -40.276 -49.349  11.531  1.00  0.00     0.077 C 
BRANCH   8   9
HETATM    9  C   UNL     1     -41.072 -48.217  10.959  1.00  0.00     0.018 A 
HETATM   10  N   UNL     1     -42.253 -48.509  10.289  1.00  0.00    -0.357 N 
HETATM   11  C   UNL     1     -42.818 -47.399   9.866  1.00  0.00     0.050 A 
ATOM     12  HN  UNL     1     -42.627 -49.447  10.146  1.00  0.00     0.166 HD
HETATM   13  S   UNL     1     -41.978 -45.949  10.245  1.00  0.00    -0.087 SA
HETATM   14  C   UNL     1     -40.774 -46.870  11.042  1.00  0.00     0.076 A 
BRANCH  11  15
HETATM   15  C   UNL     1     -44.120 -47.356   9.133  1.00  0.00     0.060 C 
HETATM   16  C   UNL     1     -44.551 -45.920   8.873  1.00  0.00     0.012 C 
ENDBRANCH  11  15
ENDBRANCH   8   9
ENDBRANCH   7   8
ENDBRANCH   1   7
BRANCH   4  17
HETATM   17  C   UNL     1     -44.937 -51.750  13.405  1.00  0.00     0.087 C 
HETATM   18  C   UNL     1     -45.672 -51.561  14.741  1.00  0.00     0.035 C 
HETATM   19  C   UNL     1     -45.659 -52.768  15.669  1.00  0.00     0.076 C 
HETATM   20  S   UNL     1     -46.321 -54.271  14.897  1.00  0.00    -0.169 SA
HETATM   21  C   UNL     1     -45.302 -54.289  13.400  1.00  0.00     0.076 C 
HETATM   22  C   UNL     1     -45.422 -52.982  12.634  1.00  0.00     0.035 C 
ENDBRANCH   4  17
TORSDOF 5
ENDMDL
MODEL 5
REMARK VINA RESULT:      -5.4      3.148      6.942
REMARK  5 active torsions:
REMARK  status: ('A' for Active; 'I' for Inactive)
REMARK    1  A    between atoms: C_2  and  C_3 
REMARK    2  A    between atoms: C_6  and  C_7 
REMARK    3  A    between atoms: C_7  and  C_8 
REMARK    4  A    between atoms: C_8  and  N_9 
REMARK       I    between atoms: N_9  and  C_10 
REMARK       I    between atoms: C_10  and  N_12 
REMARK    5  A    between atoms: N_12  and  C_13 
ROOT
HETATM    1  N   UNL     1     -40.070 -52.214  14.040  1.00  0.00    -0.343 N 
HETATM    2  C   UNL     1     -39.054 -51.452  13.532  1.00  0.00     0.316 C 
HETATM    3  O   UNL     1     -38.141 -51.905  12.853  1.00  0.00    -0.247 OA
HETATM    4  N   UNL     1     -39.196 -50.115  13.822  1.00  0.00    -0.338 N 
HETATM    5  H   UNL     1     -40.446 -51.908  14.932  1.00  0.00     0.164 HD
HETATM    6  H   UNL     1     -40.136 -49.842  14.069  1.00  0.00     0.164 HD
ENDROOT
BRANCH   1   7
HETATM    7  C   UNL     1     -40.043 -53.661  13.866  1.00  0.00     0.130 C 
BRANCH   7   8
HETATM    8  C   UNL     1     -41.049 -54.149  12.819  1.00  0.00     0.077 C 
BRANCH   8   9
HETATM    9  C   UNL     1     -42.463 -53.998  13.289  1.00  0.00     0.018 A 
HETATM   10  N   UNL     1     -43.364 -53.323  12.476  1.00  0.00    -0.357 N 
HETATM   11  C   UNL     1     -44.551 -53.296  13.042  1.00  0.00     0.050 A 
ATOM     12  HN  UNL     1     -43.138 -52.908  11.572  1.00  0.00     0.166 HD
HETATM   13  S   UNL     1     -44.660 -54.075  14.571  1.00  0.00    -0.087 SA
HETATM   14  C   UNL     1     -43.001 -54.487  14.464  1.00  0.00     0.076 A 
BRANCH  11  15
HETATM   15  C   UNL     1     -45.756 -52.672  12.417  1.00  0.00     0.060 C 
HETATM   16  C   UNL     1     -46.393 -51.658  13.356  1.00  0.00     0.012 C 
ENDBRANCH  11  15
ENDBRANCH   8   9
ENDBRANCH   7   8
ENDBRANCH   1   7
BRANCH   4  17
HETATM   17  C   UNL     1     -38.334 -49.149  13.140  1.00  0.00     0.087 C 
HETATM   18  C   UNL     1     -37.622 -48.206  14.122  1.00  0.00     0.035 C 
HETATM   19  C   UNL     1     -38.498 -47.124  14.739  1.00  0.00     0.076 C 
HETATM   20  S   UNL     1     -39.332 -46.088  13.504  1.00  0.00    -0.169 SA
HETATM   21  C   UNL     1     -40.099 -47.396  12.513  1.00  0.00     0.076 C 
HETATM   22  C   UNL     1     -39.065 -48.396  12.024  1.00  0.00     0.035 C 
ENDBRANCH   4  17
TORSDOF 5
ENDMDL
MODEL 6
REMARK VINA RESULT:      -5.1      2.451      7.253
REMARK  5 active torsions:
REMARK  status: ('A' for Active; 'I' for Inactive)
REMARK    1  A    between atoms: C_2  and  C_3 
REMARK    2  A    between atoms: C_6  and  C_7 
REMARK    3  A    between atoms: C_7  and  C_8 
REMARK    4  A    between atoms: C_8  and  N_9 
REMARK       I    between atoms: N_9  and  C_10 
REMARK       I    between atoms: C_10  and  N_12 
REMARK    5  A    between atoms: N_12  and  C_13 
ROOT
HETATM    1  N   UNL     1     -44.957 -51.626  12.613  1.00  0.00    -0.343 N 
HETATM    2  C   UNL     1     -44.174 -50.756  13.321  1.00  0.00     0.316 C 
HETATM    3  O   UNL     1     -43.953 -50.865  14.520  1.00  0.00    -0.247 OA
HETATM    4  N   UNL     1     -43.620 -49.776  12.531  1.00  0.00    -0.338 N 
HETATM    5  H   UNL     1     -45.474 -51.223  11.838  1.00  0.00     0.164 HD
HETATM    6  H   UNL     1     -43.594 -50.003  11.546  1.00  0.00     0.164 HD
ENDROOT
BRANCH   1   7
HETATM    7  C   UNL     1     -45.662 -52.695  13.311  1.00  0.00     0.130 C 
BRANCH   7   8
HETATM    8  C   UNL     1     -45.056 -54.075  13.042  1.00  0.00     0.077 C 
BRANCH   8   9
HETATM    9  C   UNL     1     -43.765 -54.272  13.776  1.00  0.00     0.018 A 
HETATM   10  N   UNL     1     -42.575 -54.045  13.098  1.00  0.00    -0.357 N 
HETATM   11  C   UNL     1     -41.553 -54.257  13.898  1.00  0.00     0.050 A 
ATOM     12  HN  UNL     1     -42.505 -53.755  12.122  1.00  0.00     0.166 HD
HETATM   13  S   UNL     1     -41.952 -54.735  15.499  1.00  0.00    -0.087 SA
HETATM   14  C   UNL     1     -43.614 -54.643  15.099  1.00  0.00     0.076 A 
BRANCH  11  15
HETATM   15  C   UNL     1     -40.126 -54.072  13.490  1.00  0.00     0.060 C 
HETATM   16  C   UNL     1     -39.190 -54.793  14.447  1.00  0.00     0.012 C 
ENDBRANCH  11  15
ENDBRANCH   8   9
ENDBRANCH   7   8
ENDBRANCH   1   7
BRANCH   4  17
HETATM   17  C   UNL     1     -42.567 -48.930  13.090  1.00  0.00     0.087 C 
HETATM   18  C   UNL     1     -42.930 -47.438  13.046  1.00  0.00     0.035 C 
HETATM   19  C   UNL     1     -42.847 -46.786  11.673  1.00  0.00     0.076 C 
HETATM   20  S   UNL     1     -41.219 -46.969  10.892  1.00  0.00    -0.169 SA
HETATM   21  C   UNL     1     -41.038 -48.765  11.037  1.00  0.00     0.076 C 
HETATM   22  C   UNL     1     -41.192 -49.220  12.479  1.00  0.00     0.035 C 
ENDBRANCH   4  17
TORSDOF 5
ENDMDL
MODEL 7
REMARK VINA RESULT:      -5.1      4.092      5.204
REMARK  5 active torsions:
REMARK  status: ('A' for Active; 'I' for Inactive)
REMARK    1  A    between atoms: C_2  and  C_3 
REMARK    2  A    between atoms: C_6  and  C_7 
REMARK    3  A    between atoms: C_7  and  C_8 
REMARK    4  A    between atoms: C_8  and  N_9 
REMARK       I    between atoms: N_9  and  C_10 
REMARK       I    between atoms: C_10  and  N_12 
REMARK    5  A    between atoms: N_12  and  C_13 
ROOT
HETATM    1  N   UNL     1     -41.617 -54.147  13.780  1.00  0.00    -0.343 N 
HETATM    2  C   UNL     1     -42.341 -53.034  13.450  1.00  0.00     0.316 C 
HETATM    3  O   UNL     1     -41.902 -52.118  12.766  1.00  0.00    -0.247 OA
HETATM    4  N   UNL     1     -43.630 -53.078  13.927  1.00  0.00    -0.338 N 
HETATM    5  H   UNL     1     -41.829 -54.557  14.684  1.00  0.00     0.164 HD
HETATM    6  H   UNL     1     -43.956 -54.006  14.157  1.00  0.00     0.164 HD
ENDROOT
BRANCH   1   7
HETATM    7  C   UNL     1     -40.214 -54.236  13.395  1.00  0.00     0.130 C 
BRANCH   7   8
HETATM    8  C   UNL     1     -39.263 -53.913  14.551  1.00  0.00     0.077 C 
BRANCH   8   9
HETATM    9  C   UNL     1     -38.887 -52.463  14.576  1.00  0.00     0.018 A 
HETATM   10  N   UNL     1     -38.773 -51.786  13.370  1.00  0.00    -0.357 N 
HETATM   11  C   UNL     1     -38.447 -50.530  13.585  1.00  0.00     0.050 A 
ATOM     12  HN  UNL     1     -38.921 -52.202  12.450  1.00  0.00     0.166 HD
HETATM   13  S   UNL     1     -38.261 -50.087  15.236  1.00  0.00    -0.087 SA
HETATM   14  C   UNL     1     -38.655 -51.687  15.697  1.00  0.00     0.076 A 
BRANCH  11  15
HETATM   15  C   UNL     1     -38.275 -49.517  12.500  1.00  0.00     0.060 C 
HETATM   16  C   UNL     1     -37.455 -50.086  11.351  1.00  0.00     0.012 C 
ENDBRANCH  11  15
ENDBRANCH   8   9
ENDBRANCH   7   8
ENDBRANCH   1   7
BRANCH   4  17
HETATM   17  C   UNL     1     -44.594 -52.088  13.447  1.00  0.00     0.087 C 
HETATM   18  C   UNL     1     -44.632 -50.832  14.332  1.00  0.00     0.035 C 
HETATM   19  C   UNL     1     -45.336 -50.999  15.672  1.00  0.00     0.076 C 
HETATM   20  S   UNL     1     -47.041 -51.601  15.514  1.00  0.00    -0.169 SA
HETATM   21  C   UNL     1     -46.730 -53.058  14.485  1.00  0.00     0.076 C 
HETATM   22  C   UNL     1     -45.985 -52.687  13.213  1.00  0.00     0.035 C 
ENDBRANCH   4  17
TORSDOF 5
ENDMDL
MODEL 8
REMARK VINA RESULT:      -5.0      3.671      6.871
REMARK  5 active torsions:
REMARK  status: ('A' for Active; 'I' for Inactive)
REMARK    1  A    between atoms: C_2  and  C_3 
REMARK    2  A    between atoms: C_6  and  C_7 
REMARK    3  A    between atoms: C_7  and  C_8 
REMARK    4  A    between atoms: C_8  and  N_9 
REMARK       I    between atoms: N_9  and  C_10 
REMARK       I    between atoms: C_10  and  N_12 
REMARK    5  A    between atoms: N_12  and  C_13 
ROOT
HETATM    1  N   UNL     1     -41.663 -52.948  13.892  1.00  0.00    -0.343 N 
HETATM    2  C   UNL     1     -40.585 -52.492  13.184  1.00  0.00     0.316 C 
HETATM    3  O   UNL     1     -40.159 -53.036  12.173  1.00  0.00    -0.247 OA
HETATM    4  N   UNL     1     -40.063 -51.329  13.700  1.00  0.00    -0.338 N 
HETATM    5  H   UNL     1     -41.632 -52.786  14.894  1.00  0.00     0.164 HD
HETATM    6  H   UNL     1     -40.700 -50.816  14.294  1.00  0.00     0.164 HD
ENDROOT
BRANCH   1   7
HETATM    7  C   UNL     1     -42.303 -54.200  13.507  1.00  0.00     0.130 C 
BRANCH   7   8
HETATM    8  C   UNL     1     -43.568 -54.491  14.319  1.00  0.00     0.077 C 
BRANCH   8   9
HETATM    9  C   UNL     1     -44.663 -53.515  14.016  1.00  0.00     0.018 A 
HETATM   10  N   UNL     1     -45.384 -52.978  15.074  1.00  0.00    -0.357 N 
HETATM   11  C   UNL     1     -46.292 -52.140  14.622  1.00  0.00     0.050 A 
ATOM     12  HN  UNL     1     -45.232 -53.201  16.058  1.00  0.00     0.166 HD
HETATM   13  S   UNL     1     -46.335 -51.944  12.915  1.00  0.00    -0.087 SA
HETATM   14  C   UNL     1     -45.038 -53.052  12.769  1.00  0.00     0.076 A 
BRANCH  11  15
HETATM   15  C   UNL     1     -47.220 -51.365  15.502  1.00  0.00     0.060 C 
HETATM   16  C   UNL     1     -46.538 -50.984  16.808  1.00  0.00     0.012 C 
ENDBRANCH  11  15
ENDBRANCH   8   9
ENDBRANCH   7   8
ENDBRANCH   1   7
BRANCH   4  17
HETATM   17  C   UNL     1     -39.076 -50.588  12.915  1.00  0.00     0.087 C 
HETATM   18  C   UNL     1     -37.645 -50.788  13.435  1.00  0.00     0.035 C 
HETATM   19  C   UNL     1     -37.309 -50.047  14.722  1.00  0.00     0.076 C 
HETATM   20  S   UNL     1     -37.599 -48.258  14.613  1.00  0.00    -0.169 SA
HETATM   21  C   UNL     1     -39.311 -48.287  14.024  1.00  0.00     0.076 C 
HETATM   22  C   UNL     1     -39.444 -49.110  12.753  1.00  0.00     0.035 C 
ENDBRANCH   4  17
TORSDOF 5
ENDMDL
MODEL 9
REMARK VINA RESULT:      -5.0      3.048      3.378
REMARK  5 active torsions:
REMARK  status: ('A' for Active; 'I' for Inactive)
REMARK    1  A    between atoms: C_2  and  C_3 
REMARK    2  A    between atoms: C_6  and  C_7 
REMARK    3  A    between atoms: C_7  and  C_8 
REMARK    4  A    between atoms: C_8  and  N_9 
REMARK       I    between atoms: N_9  and  C_10 
REMARK       I    between atoms: C_10  and  N_12 
REMARK    5  A    between atoms: N_12  and  C_13 
ROOT
HETATM    1  N   UNL     1     -41.694 -50.177  12.805  1.00  0.00    -0.343 N 
HETATM    2  C   UNL     1     -40.550 -50.923  12.892  1.00  0.00     0.316 C 
HETATM    3  O   UNL     1     -39.649 -50.881  12.064  1.00  0.00    -0.247 OA
HETATM    4  N   UNL     1     -40.500 -51.687  14.035  1.00  0.00    -0.338 N 
HETATM    5  H   UNL     1     -42.531 -50.608  13.185  1.00  0.00     0.164 HD
HETATM    6  H   UNL     1     -41.113 -51.371  14.773  1.00  0.00     0.164 HD
ENDROOT
BRANCH   1   7
HETATM    7  C   UNL     1     -41.929 -49.351  11.627  1.00  0.00     0.130 C 
BRANCH   7   8
HETATM    8  C   UNL     1     -42.486 -47.968  11.977  1.00  0.00     0.077 C 
BRANCH   8   9
HETATM    9  C   UNL     1     -43.232 -47.359  10.829  1.00  0.00     0.018 A 
HETATM   10  N   UNL     1     -44.521 -47.801  10.567  1.00  0.00    -0.357 N 
HETATM   11  C   UNL     1     -45.020 -47.152   9.537  1.00  0.00     0.050 A 
ATOM     12  HN  UNL     1     -45.010 -48.524  11.095  1.00  0.00     0.166 HD
HETATM   13  S   UNL     1     -43.982 -45.980   8.828  1.00  0.00    -0.087 SA
HETATM   14  C   UNL     1     -42.782 -46.359   9.988  1.00  0.00     0.076 A 
BRANCH  11  15
HETATM   15  C   UNL     1     -46.402 -47.366   9.009  1.00  0.00     0.060 C 
HETATM   16  C   UNL     1     -46.536 -48.744   8.377  1.00  0.00     0.012 C 
ENDBRANCH  11  15
ENDBRANCH   8   9
ENDBRANCH   7   8
ENDBRANCH   1   7
BRANCH   4  17
HETATM   17  C   UNL     1     -39.241 -52.339  14.393  1.00  0.00     0.087 C 
HETATM   18  C   UNL     1     -39.281 -53.856  14.157  1.00  0.00     0.035 C 
HETATM   19  C   UNL     1     -40.086 -54.654  15.174  1.00  0.00     0.076 C 
HETATM   20  S   UNL     1     -39.541 -54.387  16.885  1.00  0.00    -0.169 SA
HETATM   21  C   UNL     1     -39.605 -52.578  16.920  1.00  0.00     0.076 C 
HETATM   22  C   UNL     1     -38.770 -51.974  15.804  1.00  0.00     0.035 C 
ENDBRANCH   4  17
TORSDOF 5
ENDMDL
