MODEL 1
REMARK VINA RESULT:      -6.0      0.000      0.000
REMARK  5 active torsions:
REMARK  status: ('A' for Active; 'I' for Inactive)
REMARK    1  A    between atoms: C_2  and  C_3 
REMARK    2  A    between atoms: C_2  and  N_10 
REMARK    3  A    between atoms: C_3  and  N_4 
REMARK       I    between atoms: N_10  and  C_11 
REMARK       I    between atoms: C_11  and  N_13 
REMARK    4  A    between atoms: N_13  and  C_14 
REMARK    5  A    between atoms: C_17  and  O_18 
ROOT
HETATM    1  N   UNL     1     -42.403 -48.522  10.481  1.00  0.00    -0.337 N 
HETATM    2  C   UNL     1     -42.587 -48.945  11.771  1.00  0.00     0.316 C 
HETATM    3  O   UNL     1     -43.062 -48.238  12.650  1.00  0.00    -0.247 OA
HETATM    4  N   UNL     1     -42.184 -50.243  11.961  1.00  0.00    -0.339 N 
HETATM    5  H   UNL     1     -41.716 -49.011   9.923  1.00  0.00     0.164 HD
HETATM    6  H   UNL     1     -42.222 -50.839  11.149  1.00  0.00     0.164 HD
ENDROOT
BRANCH   1   7
HETATM    7  C   UNL     1     -42.776 -47.156  10.095  1.00  0.00     0.102 C 
HETATM    8  C   UNL     1     -41.612 -46.182  10.281  1.00  0.00     0.034 C 
BRANCH   7   9
HETATM    9  C   UNL     1     -43.385 -47.096   8.681  1.00  0.00     0.172 C 
BRANCH   9  10
HETATM   10  N   UNL     1     -44.726 -47.642   8.599  1.00  0.00    -0.302 N 
HETATM   11  C   UNL     1     -45.760 -47.419   9.465  1.00  0.00     0.111 A 
HETATM   12  C   UNL     1     -46.820 -48.156   8.991  1.00  0.00     0.037 A 
HETATM   13  C   UNL     1     -46.332 -48.774   7.826  1.00  0.00     0.108 A 
HETATM   14  N   UNL     1     -45.060 -48.456   7.577  1.00  0.00    -0.310 N 
ATOM     15  HN  UNL     1     -44.476 -48.758   6.797  1.00  0.00     0.186 HD
ENDBRANCH   9  10
ENDBRANCH   7   9
ENDBRANCH   1   7
BRANCH   4  16
HETATM   16  C   UNL     1     -42.281 -50.856  13.287  1.00  0.00     0.086 C 
HETATM   17  C   UNL     1     -41.013 -51.634  13.642  1.00  0.00     0.028 C 
HETATM   18  C   UNL     1     -40.858 -52.924  12.837  1.00  0.00     0.034 C 
HETATM   19  C   UNL     1     -42.102 -53.814  12.857  1.00  0.00     0.118 C 
HETATM   20  C   UNL     1     -43.414 -53.059  12.647  1.00  0.00     0.034 C 
HETATM   21  C   UNL     1     -43.516 -51.754  13.439  1.00  0.00     0.028 C 
BRANCH  19  22
HETATM   22  O   UNL     1     -42.149 -54.536  14.085  1.00  0.00    -0.396 OA
HETATM   23  H   UNL     1     -41.264 -54.523  14.494  1.00  0.00     0.210 HD
ENDBRANCH  19  22
ENDBRANCH   4  16
TORSDOF 5
ENDMDL
MODEL 2
REMARK VINA RESULT:      -5.8      1.832      2.258
REMARK  5 active torsions:
REMARK  status: ('A' for Active; 'I' for Inactive)
REMARK    1  A    between atoms: C_2  and  C_3 
REMARK    2  A    between atoms: C_2  and  N_10 
REMARK    3  A    between atoms: C_3  and  N_4 
REMARK       I    between atoms: N_10  and  C_11 
REMARK       I    between atoms: C_11  and  N_13 
REMARK    4  A    between atoms: N_13  and  C_14 
REMARK    5  A    between atoms: C_17  and  O_18 
ROOT
HETATM    1  N   UNL     1     -42.628 -48.593  11.489  1.00  0.00    -0.337 N 
HETATM    2  C   UNL     1     -43.053 -49.162  12.661  1.00  0.00     0.316 C 
HETATM    3  O   UNL     1     -43.007 -48.590  13.742  1.00  0.00    -0.247 OA
HETATM    4  N   UNL     1     -43.534 -50.434  12.482  1.00  0.00    -0.339 N 
HETATM    5  H   UNL     1     -42.378 -49.215  10.732  1.00  0.00     0.164 HD
HETATM    6  H   UNL     1     -43.918 -50.637  11.573  1.00  0.00     0.164 HD
ENDROOT
BRANCH   1   7
HETATM    7  C   UNL     1     -42.078 -47.232  11.490  1.00  0.00     0.102 C 
HETATM    8  C   UNL     1     -40.569 -47.236  11.239  1.00  0.00     0.034 C 
BRANCH   7   9
HETATM    9  C   UNL     1     -42.840 -46.294  10.533  1.00  0.00     0.172 C 
BRANCH   9  10
HETATM   10  N   UNL     1     -43.556 -46.991   9.482  1.00  0.00    -0.302 N 
HETATM   11  C   UNL     1     -44.892 -47.280   9.446  1.00  0.00     0.111 A 
HETATM   12  C   UNL     1     -45.104 -47.959   8.270  1.00  0.00     0.037 A 
HETATM   13  C   UNL     1     -43.840 -48.014   7.656  1.00  0.00     0.108 A 
HETATM   14  N   UNL     1     -42.895 -47.417   8.386  1.00  0.00    -0.310 N 
ATOM     15  HN  UNL     1     -41.905 -47.307   8.167  1.00  0.00     0.186 HD
ENDBRANCH   9  10
ENDBRANCH   7   9
ENDBRANCH   1   7
BRANCH   4  16
HETATM   16  C   UNL     1     -44.008 -51.208  13.631  1.00  0.00     0.086 C 
HETATM   17  C   UNL     1     -43.433 -52.626  13.631  1.00  0.00     0.028 C 
HETATM   18  C   UNL     1     -44.028 -53.511  12.535  1.00  0.00     0.034 C 
HETATM   19  C   UNL     1     -45.558 -53.511  12.509  1.00  0.00     0.118 C 
HETATM   20  C   UNL     1     -46.185 -52.125  12.649  1.00  0.00     0.034 C 
HETATM   21  C   UNL     1     -45.538 -51.255  13.729  1.00  0.00     0.028 C 
BRANCH  19  22
HETATM   22  O   UNL     1     -46.051 -54.373  13.530  1.00  0.00    -0.396 OA
HETATM   23  H   UNL     1     -46.774 -54.916  13.166  1.00  0.00     0.210 HD
ENDBRANCH  19  22
ENDBRANCH   4  16
TORSDOF 5
ENDMDL
MODEL 3
REMARK VINA RESULT:      -5.6      2.995      5.252
REMARK  5 active torsions:
REMARK  status: ('A' for Active; 'I' for Inactive)
REMARK    1  A    between atoms: C_2  and  C_3 
REMARK    2  A    between atoms: C_2  and  N_10 
REMARK    3  A    between atoms: C_3  and  N_4 
REMARK       I    between atoms: N_10  and  C_11 
REMARK       I    between atoms: C_11  and  N_13 
REMARK    4  A    between atoms: N_13  and  C_14 
REMARK    5  A    between atoms: C_17  and  O_18 
ROOT
HETATM    1  N   UNL     1     -42.282 -49.699  11.795  1.00  0.00    -0.337 N 
HETATM    2  C   UNL     1     -42.055 -51.018  12.091  1.00  0.00     0.316 C 
HETATM    3  O   UNL     1     -41.052 -51.624  11.739  1.00  0.00    -0.247 OA
HETATM    4  N   UNL     1     -43.073 -51.574  12.825  1.00  0.00    -0.339 N 
HETATM    5  H   UNL     1     -43.240 -49.376  11.811  1.00  0.00     0.164 HD
HETATM    6  H   UNL     1     -43.598 -50.937  13.404  1.00  0.00     0.164 HD
ENDROOT
BRANCH   1   7
HETATM    7  C   UNL     1     -41.299 -48.943  11.010  1.00  0.00     0.102 C 
HETATM    8  C   UNL     1     -41.976 -47.931  10.085  1.00  0.00     0.034 C 
BRANCH   7   9
HETATM    9  C   UNL     1     -40.212 -48.306  11.899  1.00  0.00     0.172 C 
BRANCH   9  10
HETATM   10  N   UNL     1     -39.059 -49.160  12.112  1.00  0.00    -0.302 N 
HETATM   11  C   UNL     1     -38.408 -49.385  13.292  1.00  0.00     0.111 A 
HETATM   12  C   UNL     1     -37.376 -50.245  13.001  1.00  0.00     0.037 A 
HETATM   13  C   UNL     1     -37.498 -50.495  11.623  1.00  0.00     0.108 A 
HETATM   14  N   UNL     1     -38.528 -49.844  11.078  1.00  0.00    -0.310 N 
ATOM     15  HN  UNL     1     -38.841 -49.860  10.107  1.00  0.00     0.186 HD
ENDBRANCH   9  10
ENDBRANCH   7   9
ENDBRANCH   1   7
BRANCH   4  16
HETATM   16  C   UNL     1     -43.013 -52.985  13.211  1.00  0.00     0.086 C 
HETATM   17  C   UNL     1     -44.165 -53.785  12.600  1.00  0.00     0.028 C 
HETATM   18  C   UNL     1     -45.519 -53.461  13.232  1.00  0.00     0.034 C 
HETATM   19  C   UNL     1     -45.517 -53.535  14.761  1.00  0.00     0.118 C 
HETATM   20  C   UNL     1     -44.307 -52.870  15.416  1.00  0.00     0.034 C 
HETATM   21  C   UNL     1     -42.975 -53.186  14.732  1.00  0.00     0.028 C 
BRANCH  19  22
HETATM   22  O   UNL     1     -45.603 -54.897  15.170  1.00  0.00    -0.396 OA
HETATM   23  H   UNL     1     -45.263 -54.976  16.081  1.00  0.00     0.210 HD
ENDBRANCH  19  22
ENDBRANCH   4  16
TORSDOF 5
ENDMDL
MODEL 4
REMARK VINA RESULT:      -5.6      2.604      7.231
REMARK  5 active torsions:
REMARK  status: ('A' for Active; 'I' for Inactive)
REMARK    1  A    between atoms: C_2  and  C_3 
REMARK    2  A    between atoms: C_2  and  N_10 
REMARK    3  A    between atoms: C_3  and  N_4 
REMARK       I    between atoms: N_10  and  C_11 
REMARK       I    between atoms: C_11  and  N_13 
REMARK    4  A    between atoms: N_13  and  C_14 
REMARK    5  A    between atoms: C_17  and  O_18 
ROOT
HETATM    1  N   UNL     1     -41.243 -50.594  11.598  1.00  0.00    -0.337 N 
HETATM    2  C   UNL     1     -42.044 -49.572  12.036  1.00  0.00     0.316 C 
HETATM    3  O   UNL     1     -42.255 -49.340  13.219  1.00  0.00    -0.247 OA
HETATM    4  N   UNL     1     -42.574 -48.842  11.002  1.00  0.00    -0.339 N 
HETATM    5  H   UNL     1     -41.388 -50.930  10.656  1.00  0.00     0.164 HD
HETATM    6  H   UNL     1     -42.033 -48.826  10.151  1.00  0.00     0.164 HD
ENDROOT
BRANCH   1   7
HETATM    7  C   UNL     1     -40.594 -51.485  12.568  1.00  0.00     0.102 C 
HETATM    8  C   UNL     1     -40.867 -52.955  12.253  1.00  0.00     0.034 C 
BRANCH   7   9
HETATM    9  C   UNL     1     -39.091 -51.177  12.726  1.00  0.00     0.172 C 
BRANCH   9  10
HETATM   10  N   UNL     1     -38.819 -49.972  13.486  1.00  0.00    -0.302 N 
HETATM   11  C   UNL     1     -37.914 -48.994  13.183  1.00  0.00     0.111 A 
HETATM   12  C   UNL     1     -38.000 -48.068  14.195  1.00  0.00     0.037 A 
HETATM   13  C   UNL     1     -38.996 -48.567  15.052  1.00  0.00     0.108 A 
HETATM   14  N   UNL     1     -39.506 -49.722  14.619  1.00  0.00    -0.310 N 
ATOM     15  HN  UNL     1     -40.243 -50.285  15.045  1.00  0.00     0.186 HD
ENDBRANCH   9  10
ENDBRANCH   7   9
ENDBRANCH   1   7
BRANCH   4  16
HETATM   16  C   UNL     1     -43.477 -47.723  11.280  1.00  0.00     0.086 C 
HETATM   17  C   UNL     1     -44.577 -47.611  10.223  1.00  0.00     0.028 C 
HETATM   18  C   UNL     1     -44.059 -47.119   8.871  1.00  0.00     0.034 C 
HETATM   19  C   UNL     1     -43.220 -45.843   8.963  1.00  0.00     0.118 C 
HETATM   20  C   UNL     1     -42.197 -45.849  10.099  1.00  0.00     0.034 C 
HETATM   21  C   UNL     1     -42.741 -46.385  11.424  1.00  0.00     0.028 C 
BRANCH  19  22
HETATM   22  O   UNL     1     -44.081 -44.716   9.091  1.00  0.00    -0.396 OA
HETATM   23  H   UNL     1     -44.400 -44.663  10.012  1.00  0.00     0.210 HD
ENDBRANCH  19  22
ENDBRANCH   4  16
TORSDOF 5
ENDMDL
MODEL 5
REMARK VINA RESULT:      -5.5      3.177      4.091
REMARK  5 active torsions:
REMARK  status: ('A' for Active; 'I' for Inactive)
REMARK    1  A    between atoms: C_2  and  C_3 
REMARK    2  A    between atoms: C_2  and  N_10 
REMARK    3  A    between atoms: C_3  and  N_4 
REMARK       I    between atoms: N_10  and  C_11 
REMARK       I    between atoms: C_11  and  N_13 
REMARK    4  A    between atoms: N_13  and  C_14 
REMARK    5  A    between atoms: C_17  and  O_18 
ROOT
HETATM    1  N   UNL     1     -42.347 -49.996  11.767  1.00  0.00    -0.337 N 
HETATM    2  C   UNL     1     -42.903 -50.140  13.012  1.00  0.00     0.316 C 
HETATM    3  O   UNL     1     -42.564 -49.476  13.982  1.00  0.00    -0.247 OA
HETATM    4  N   UNL     1     -43.877 -51.106  13.042  1.00  0.00    -0.339 N 
HETATM    5  H   UNL     1     -42.420 -50.778  11.130  1.00  0.00     0.164 HD
HETATM    6  H   UNL     1     -44.361 -51.272  12.173  1.00  0.00     0.164 HD
ENDROOT
BRANCH   1   7
HETATM    7  C   UNL     1     -41.283 -49.009  11.548  1.00  0.00     0.102 C 
HETATM    8  C   UNL     1     -39.923 -49.681  11.355  1.00  0.00     0.034 C 
BRANCH   7   9
HETATM    9  C   UNL     1     -41.628 -48.022  10.415  1.00  0.00     0.172 C 
BRANCH   9  10
HETATM   10  N   UNL     1     -41.210 -46.659  10.680  1.00  0.00    -0.302 N 
HETATM   11  C   UNL     1     -41.919 -45.693  11.337  1.00  0.00     0.111 A 
HETATM   12  C   UNL     1     -41.129 -44.568  11.329  1.00  0.00     0.037 A 
HETATM   13  C   UNL     1     -39.956 -44.960  10.661  1.00  0.00     0.108 A 
HETATM   14  N   UNL     1     -39.996 -46.237  10.272  1.00  0.00    -0.310 N 
ATOM     15  HN  UNL     1     -39.277 -46.769   9.781  1.00  0.00     0.186 HD
ENDBRANCH   9  10
ENDBRANCH   7   9
ENDBRANCH   1   7
BRANCH   4  16
HETATM   16  C   UNL     1     -44.563 -51.417  14.297  1.00  0.00     0.086 C 
HETATM   17  C   UNL     1     -43.920 -52.607  15.011  1.00  0.00     0.028 C 
HETATM   18  C   UNL     1     -44.180 -53.939  14.306  1.00  0.00     0.034 C 
HETATM   19  C   UNL     1     -45.656 -54.189  13.990  1.00  0.00     0.118 C 
HETATM   20  C   UNL     1     -46.383 -52.979  13.403  1.00  0.00     0.034 C 
HETATM   21  C   UNL     1     -46.067 -51.659  14.110  1.00  0.00     0.028 C 
BRANCH  19  22
HETATM   22  O   UNL     1     -46.325 -54.633  15.167  1.00  0.00    -0.396 OA
HETATM   23  H   UNL     1     -46.177 -53.984  15.880  1.00  0.00     0.210 HD
ENDBRANCH  19  22
ENDBRANCH   4  16
TORSDOF 5
ENDMDL
MODEL 6
REMARK VINA RESULT:      -5.4      2.034      3.867
REMARK  5 active torsions:
REMARK  status: ('A' for Active; 'I' for Inactive)
REMARK    1  A    between atoms: C_2  and  C_3 
REMARK    2  A    between atoms: C_2  and  N_10 
REMARK    3  A    between atoms: C_3  and  N_4 
REMARK       I    between atoms: N_10  and  C_11 
REMARK       I    between atoms: C_11  and  N_13 
REMARK    4  A    between atoms: N_13  and  C_14 
REMARK    5  A    between atoms: C_17  and  O_18 
ROOT
HETATM    1  N   UNL     1     -42.755 -48.814  10.859  1.00  0.00    -0.337 N 
HETATM    2  C   UNL     1     -41.609 -49.434  11.284  1.00  0.00     0.316 C 
HETATM    3  O   UNL     1     -40.488 -48.990  11.080  1.00  0.00    -0.247 OA
HETATM    4  N   UNL     1     -41.864 -50.600  11.962  1.00  0.00    -0.339 N 
HETATM    5  H   UNL     1     -43.584 -49.384  10.757  1.00  0.00     0.164 HD
HETATM    6  H   UNL     1     -42.754 -50.650  12.433  1.00  0.00     0.164 HD
ENDROOT
BRANCH   1   7
HETATM    7  C   UNL     1     -42.674 -47.553  10.111  1.00  0.00     0.102 C 
HETATM    8  C   UNL     1     -43.778 -47.451   9.059  1.00  0.00     0.034 C 
BRANCH   7   9
HETATM    9  C   UNL     1     -42.621 -46.326  11.043  1.00  0.00     0.172 C 
BRANCH   9  10
HETATM   10  N   UNL     1     -41.457 -45.486  10.836  1.00  0.00    -0.302 N 
HETATM   11  C   UNL     1     -41.301 -44.185  11.225  1.00  0.00     0.111 A 
HETATM   12  C   UNL     1     -40.050 -43.807  10.799  1.00  0.00     0.037 A 
HETATM   13  C   UNL     1     -39.522 -44.954  10.180  1.00  0.00     0.108 A 
HETATM   14  N   UNL     1     -40.371 -45.983  10.209  1.00  0.00    -0.310 N 
ATOM     15  HN  UNL     1     -40.233 -46.925   9.843  1.00  0.00     0.186 HD
ENDBRANCH   9  10
ENDBRANCH   7   9
ENDBRANCH   1   7
BRANCH   4  16
HETATM   16  C   UNL     1     -40.756 -51.413  12.467  1.00  0.00     0.086 C 
HETATM   17  C   UNL     1     -40.971 -52.900  12.179  1.00  0.00     0.028 C 
HETATM   18  C   UNL     1     -42.079 -53.520  13.030  1.00  0.00     0.034 C 
HETATM   19  C   UNL     1     -41.931 -53.241  14.528  1.00  0.00     0.118 C 
HETATM   20  C   UNL     1     -41.575 -51.792  14.861  1.00  0.00     0.034 C 
HETATM   21  C   UNL     1     -40.491 -51.195  13.962  1.00  0.00     0.028 C 
BRANCH  19  22
HETATM   22  O   UNL     1     -40.955 -54.120  15.081  1.00  0.00    -0.396 OA
HETATM   23  H   UNL     1     -40.632 -53.746  15.921  1.00  0.00     0.210 HD
ENDBRANCH  19  22
ENDBRANCH   4  16
TORSDOF 5
ENDMDL
MODEL 7
REMARK VINA RESULT:      -5.4      2.784      6.860
REMARK  5 active torsions:
REMARK  status: ('A' for Active; 'I' for Inactive)
REMARK    1  A    between atoms: C_2  and  C_3 
REMARK    2  A    between atoms: C_2  and  N_10 
REMARK    3  A    between atoms: C_3  and  N_4 
REMARK       I    between atoms: N_10  and  C_11 
REMARK       I    between atoms: C_11  and  N_13 
REMARK    4  A    between atoms: N_13  and  C_14 
REMARK    5  A    between atoms: C_17  and  O_18 
ROOT
HETATM    1  N   UNL     1     -44.843 -50.755  13.027  1.00  0.00    -0.337 N 
HETATM    2  C   UNL     1     -43.579 -50.228  13.060  1.00  0.00     0.316 C 
HETATM    3  O   UNL     1     -42.715 -50.599  13.844  1.00  0.00    -0.247 OA
HETATM    4  N   UNL     1     -43.395 -49.246  12.119  1.00  0.00    -0.339 N 
HETATM    5  H   UNL     1     -45.574 -50.189  12.618  1.00  0.00     0.164 HD
HETATM    6  H   UNL     1     -43.967 -49.315  11.293  1.00  0.00     0.164 HD
ENDROOT
BRANCH   1   7
HETATM    7  C   UNL     1     -45.222 -51.816  13.968  1.00  0.00     0.102 C 
HETATM    8  C   UNL     1     -46.649 -51.629  14.483  1.00  0.00     0.034 C 
BRANCH   7   9
HETATM    9  C   UNL     1     -44.976 -53.223  13.388  1.00  0.00     0.172 C 
BRANCH   9  10
HETATM   10  N   UNL     1     -43.633 -53.722  13.615  1.00  0.00    -0.302 N 
HETATM   11  C   UNL     1     -43.147 -54.287  14.761  1.00  0.00     0.111 A 
HETATM   12  C   UNL     1     -41.829 -54.586  14.510  1.00  0.00     0.037 A 
HETATM   13  C   UNL     1     -41.618 -54.180  13.181  1.00  0.00     0.108 A 
HETATM   14  N   UNL     1     -42.716 -53.661  12.628  1.00  0.00    -0.310 N 
ATOM     15  HN  UNL     1     -42.836 -53.304  11.680  1.00  0.00     0.186 HD
ENDBRANCH   9  10
ENDBRANCH   7   9
ENDBRANCH   1   7
BRANCH   4  16
HETATM   16  C   UNL     1     -42.110 -48.550  12.026  1.00  0.00     0.086 C 
HETATM   17  C   UNL     1     -42.226 -47.091  12.470  1.00  0.00     0.028 C 
HETATM   18  C   UNL     1     -42.996 -46.223  11.475  1.00  0.00     0.034 C 
HETATM   19  C   UNL     1     -42.493 -46.347  10.034  1.00  0.00     0.118 C 
HETATM   20  C   UNL     1     -42.225 -47.784   9.588  1.00  0.00     0.034 C 
HETATM   21  C   UNL     1     -41.488 -48.632  10.626  1.00  0.00     0.028 C 
BRANCH  19  22
HETATM   22  O   UNL     1     -41.316 -45.561   9.874  1.00  0.00    -0.396 OA
HETATM   23  H   UNL     1     -41.210 -44.986  10.655  1.00  0.00     0.210 HD
ENDBRANCH  19  22
ENDBRANCH   4  16
TORSDOF 5
ENDMDL
MODEL 8
REMARK VINA RESULT:      -5.2      2.595      3.648
REMARK  5 active torsions:
REMARK  status: ('A' for Active; 'I' for Inactive)
REMARK    1  A    between atoms: C_2  and  C_3 
REMARK    2  A    between atoms: C_2  and  N_10 
REMARK    3  A    between atoms: C_3  and  N_4 
REMARK       I    between atoms: N_10  and  C_11 
REMARK       I    between atoms: C_11  and  N_13 
REMARK    4  A    between atoms: N_13  and  C_14 
REMARK    5  A    between atoms: C_17  and  O_18 
ROOT
HETATM    1  N   UNL     1     -40.646 -50.177  12.046  1.00  0.00    -0.337 N 
HETATM    2  C   UNL     1     -41.303 -50.596  13.174  1.00  0.00     0.316 C 
HETATM    3  O   UNL     1     -41.003 -50.229  14.303  1.00  0.00    -0.247 OA
HETATM    4  N   UNL     1     -42.328 -51.464  12.893  1.00  0.00    -0.339 N 
HETATM    5  H   UNL     1     -40.712 -50.762  11.224  1.00  0.00     0.164 HD
HETATM    6  H   UNL     1     -42.752 -51.365  11.984  1.00  0.00     0.164 HD
ENDROOT
BRANCH   1   7
HETATM    7  C   UNL     1     -39.516 -49.247  12.157  1.00  0.00     0.102 C 
HETATM    8  C   UNL     1     -38.242 -49.837  11.551  1.00  0.00     0.034 C 
BRANCH   7   9
HETATM    9  C   UNL     1     -39.854 -47.851  11.597  1.00  0.00     0.172 C 
BRANCH   9  10
HETATM   10  N   UNL     1     -41.230 -47.715  11.162  1.00  0.00    -0.302 N 
HETATM   11  C   UNL     1     -42.274 -47.203  11.880  1.00  0.00     0.111 A 
HETATM   12  C   UNL     1     -43.378 -47.293  11.066  1.00  0.00     0.037 A 
HETATM   13  C   UNL     1     -42.896 -47.856   9.871  1.00  0.00     0.108 A 
HETATM   14  N   UNL     1     -41.585 -48.105   9.920  1.00  0.00    -0.310 N 
ATOM     15  HN  UNL     1     -40.991 -48.499   9.191  1.00  0.00     0.186 HD
ENDBRANCH   9  10
ENDBRANCH   7   9
ENDBRANCH   1   7
BRANCH   4  16
HETATM   16  C   UNL     1     -43.124 -52.036  13.980  1.00  0.00     0.086 C 
HETATM   17  C   UNL     1     -43.444 -53.511  13.728  1.00  0.00     0.028 C 
HETATM   18  C   UNL     1     -44.459 -53.719  12.605  1.00  0.00     0.034 C 
HETATM   19  C   UNL     1     -45.727 -52.875  12.759  1.00  0.00     0.118 C 
HETATM   20  C   UNL     1     -45.465 -51.421  13.151  1.00  0.00     0.034 C 
HETATM   21  C   UNL     1     -44.415 -51.251  14.250  1.00  0.00     0.028 C 
BRANCH  19  22
HETATM   22  O   UNL     1     -46.592 -53.487  13.712  1.00  0.00    -0.396 OA
HETATM   23  H   UNL     1     -47.431 -52.991  13.743  1.00  0.00     0.210 HD
ENDBRANCH  19  22
ENDBRANCH   4  16
TORSDOF 5
ENDMDL
MODEL 9
REMARK VINA RESULT:      -5.1      3.950      7.357
REMARK  5 active torsions:
REMARK  status: ('A' for Active; 'I' for Inactive)
REMARK    1  A    between atoms: C_2  and  C_3 
REMARK    2  A    between atoms: C_2  and  N_10 
REMARK    3  A    between atoms: C_3  and  N_4 
REMARK       I    between atoms: N_10  and  C_11 
REMARK       I    between atoms: C_11  and  N_13 
REMARK    4  A    between atoms: N_13  and  C_14 
REMARK    5  A    between atoms: C_17  and  O_18 
ROOT
HETATM    1  N   UNL     1     -38.958 -48.878  12.301  1.00  0.00    -0.337 N 
HETATM    2  C   UNL     1     -40.060 -48.247  11.784  1.00  0.00     0.316 C 
HETATM    3  O   UNL     1     -40.855 -48.791  11.029  1.00  0.00    -0.247 OA
HETATM    4  N   UNL     1     -40.170 -46.948  12.212  1.00  0.00    -0.339 N 
HETATM    5  H   UNL     1     -38.194 -48.296  12.616  1.00  0.00     0.164 HD
HETATM    6  H   UNL     1     -39.757 -46.743  13.109  1.00  0.00     0.164 HD
ENDROOT
BRANCH   1   7
HETATM    7  C   UNL     1     -38.678 -50.275  11.947  1.00  0.00     0.102 C 
HETATM    8  C   UNL     1     -37.246 -50.450  11.440  1.00  0.00     0.034 C 
BRANCH   7   9
HETATM    9  C   UNL     1     -39.030 -51.246  13.090  1.00  0.00     0.172 C 
BRANCH   9  10
HETATM   10  N   UNL     1     -40.263 -51.980  12.874  1.00  0.00    -0.302 N 
HETATM   11  C   UNL     1     -40.832 -52.898  13.711  1.00  0.00     0.111 A 
HETATM   12  C   UNL     1     -41.974 -53.333  13.080  1.00  0.00     0.037 A 
HETATM   13  C   UNL     1     -42.015 -52.606  11.877  1.00  0.00     0.108 A 
HETATM   14  N   UNL     1     -40.980 -51.773  11.751  1.00  0.00    -0.310 N 
ATOM     15  HN  UNL     1     -40.779 -51.129  10.986  1.00  0.00     0.186 HD
ENDBRANCH   9  10
ENDBRANCH   7   9
ENDBRANCH   1   7
BRANCH   4  16
HETATM   16  C   UNL     1     -41.275 -46.111  11.741  1.00  0.00     0.086 C 
HETATM   17  C   UNL     1     -41.032 -45.609  10.316  1.00  0.00     0.028 C 
HETATM   18  C   UNL     1     -39.931 -44.551  10.234  1.00  0.00     0.034 C 
HETATM   19  C   UNL     1     -40.110 -43.400  11.226  1.00  0.00     0.118 C 
HETATM   20  C   UNL     1     -40.494 -43.845  12.637  1.00  0.00     0.034 C 
HETATM   21  C   UNL     1     -41.570 -44.931  12.677  1.00  0.00     0.028 C 
BRANCH  19  22
HETATM   22  O   UNL     1     -41.082 -42.487  10.724  1.00  0.00    -0.396 OA
HETATM   23  H   UNL     1     -41.862 -42.989  10.423  1.00  0.00     0.210 HD
ENDBRANCH  19  22
ENDBRANCH   4  16
TORSDOF 5
ENDMDL
