MODEL 1
REMARK VINA RESULT:      -5.2      0.000      0.000
REMARK  4 active torsions:
REMARK  status: ('A' for Active; 'I' for Inactive)
REMARK    1  A    between atoms: C_2  and  N_3 
REMARK    2  A    between atoms: C_2  and  C_14 
REMARK       I    between atoms: N_3  and  C_4 
REMARK    3  A    between atoms: C_4  and  C_6 
REMARK    4  A    between atoms: C_6  and  N_7 
ROOT
HETATM    1  N   UNL     1     -45.001 -52.262  12.395  1.00  0.00    -0.355 N 
HETATM    2  C   UNL     1     -44.267 -53.427  12.508  1.00  0.00     0.236 C 
HETATM    3  O   UNL     1     -44.772 -54.536  12.675  1.00  0.00    -0.272 OA
HETATM    4  H   UNL     1     -44.517 -51.385  12.240  1.00  0.00     0.162 HD
ENDROOT
BRANCH   2   5
HETATM    5  C   UNL     1     -42.758 -53.257  12.342  1.00  0.00     0.235 C 
BRANCH   5   6
HETATM    6  N   UNL     1     -42.179 -52.536  13.461  1.00  0.00    -0.303 N 
HETATM    7  C   UNL     1     -41.733 -53.090  14.652  1.00  0.00     0.018 A 
HETATM    8  C   UNL     1     -41.765 -54.552  14.947  1.00  0.00     0.069 C 
HETATM    9  C   UNL     1     -41.272 -52.172  15.517  1.00  0.00     0.080 A 
HETATM   10  S   UNL     1     -41.345 -50.565  14.866  1.00  0.00    -0.039 SA
HETATM   11  C   UNL     1     -42.027 -51.159  13.356  1.00  0.00     0.290 A 
HETATM   12  O   UNL     1     -42.311 -50.452  12.406  1.00  0.00    -0.259 OA
ENDBRANCH   5   6
ENDBRANCH   2   5
BRANCH   1  13
HETATM   13  C   UNL     1     -46.437 -52.231  12.616  1.00  0.00     0.084 C 
HETATM   14  C   UNL     1     -47.164 -51.665  11.394  1.00  0.00     0.032 C 
BRANCH  13  15
HETATM   15  C   UNL     1     -46.746 -51.392  13.834  1.00  0.00     0.008 A 
HETATM   16  C   UNL     1     -45.788 -51.253  14.994  1.00  0.00     0.007 A 
HETATM   17  C   UNL     1     -47.025 -52.088  15.146  1.00  0.00     0.007 A 
ENDBRANCH  13  15
ENDBRANCH   1  13
TORSDOF 4
ENDMDL
MODEL 2
REMARK VINA RESULT:      -5.0      1.919      2.446
REMARK  4 active torsions:
REMARK  status: ('A' for Active; 'I' for Inactive)
REMARK    1  A    between atoms: C_2  and  N_3 
REMARK    2  A    between atoms: C_2  and  C_14 
REMARK       I    between atoms: N_3  and  C_4 
REMARK    3  A    between atoms: C_4  and  C_6 
REMARK    4  A    between atoms: C_6  and  N_7 
ROOT
HETATM    1  N   UNL     1     -45.040 -52.669  13.071  1.00  0.00    -0.355 N 
HETATM    2  C   UNL     1     -44.605 -53.976  13.164  1.00  0.00     0.236 C 
HETATM    3  O   UNL     1     -45.361 -54.947  13.168  1.00  0.00    -0.272 OA
HETATM    4  H   UNL     1     -44.356 -51.920  13.056  1.00  0.00     0.162 HD
ENDROOT
BRANCH   2   5
HETATM    5  C   UNL     1     -43.087 -54.151  13.196  1.00  0.00     0.235 C 
BRANCH   5   6
HETATM    6  N   UNL     1     -42.547 -53.863  14.511  1.00  0.00    -0.303 N 
HETATM    7  C   UNL     1     -41.955 -52.674  14.913  1.00  0.00     0.018 A 
HETATM    8  C   UNL     1     -41.810 -51.482  14.028  1.00  0.00     0.069 C 
HETATM    9  C   UNL     1     -41.520 -52.708  16.184  1.00  0.00     0.080 A 
HETATM   10  S   UNL     1     -41.860 -54.227  16.951  1.00  0.00    -0.039 SA
HETATM   11  C   UNL     1     -42.627 -54.844  15.491  1.00  0.00     0.290 A 
HETATM   12  O   UNL     1     -43.126 -55.950  15.393  1.00  0.00    -0.259 OA
ENDBRANCH   5   6
ENDBRANCH   2   5
BRANCH   1  13
HETATM   13  C   UNL     1     -46.449 -52.319  13.122  1.00  0.00     0.084 C 
HETATM   14  C   UNL     1     -46.917 -51.749  11.782  1.00  0.00     0.032 C 
BRANCH  13  15
HETATM   15  C   UNL     1     -46.684 -51.311  14.222  1.00  0.00     0.008 A 
HETATM   16  C   UNL     1     -45.822 -51.238  15.461  1.00  0.00     0.007 A 
HETATM   17  C   UNL     1     -47.212 -51.793  15.553  1.00  0.00     0.007 A 
ENDBRANCH  13  15
ENDBRANCH   1  13
TORSDOF 4
ENDMDL
MODEL 3
REMARK VINA RESULT:      -4.7      2.304      5.065
REMARK  4 active torsions:
REMARK  status: ('A' for Active; 'I' for Inactive)
REMARK    1  A    between atoms: C_2  and  N_3 
REMARK    2  A    between atoms: C_2  and  C_14 
REMARK       I    between atoms: N_3  and  C_4 
REMARK    3  A    between atoms: C_4  and  C_6 
REMARK    4  A    between atoms: C_6  and  N_7 
ROOT
HETATM    1  N   UNL     1     -42.888 -51.160  12.420  1.00  0.00    -0.355 N 
HETATM    2  C   UNL     1     -43.831 -50.809  13.366  1.00  0.00     0.236 C 
HETATM    3  O   UNL     1     -43.571 -50.156  14.376  1.00  0.00    -0.272 OA
HETATM    4  H   UNL     1     -43.179 -51.685  11.603  1.00  0.00     0.162 HD
ENDROOT
BRANCH   2   5
HETATM    5  C   UNL     1     -45.261 -51.235  13.040  1.00  0.00     0.235 C 
BRANCH   5   6
HETATM    6  N   UNL     1     -45.598 -52.495  13.676  1.00  0.00    -0.303 N 
HETATM    7  C   UNL     1     -46.359 -52.657  14.825  1.00  0.00     0.018 A 
HETATM    8  C   UNL     1     -46.975 -51.525  15.575  1.00  0.00     0.069 C 
HETATM    9  C   UNL     1     -46.480 -53.942  15.196  1.00  0.00     0.080 A 
HETATM   10  S   UNL     1     -45.669 -55.018  14.103  1.00  0.00    -0.039 SA
HETATM   11  C   UNL     1     -45.145 -53.673  13.096  1.00  0.00     0.290 A 
HETATM   12  O   UNL     1     -44.492 -53.793  12.075  1.00  0.00    -0.259 OA
ENDBRANCH   5   6
ENDBRANCH   2   5
BRANCH   1  13
HETATM   13  C   UNL     1     -41.470 -50.913  12.615  1.00  0.00     0.084 C 
HETATM   14  C   UNL     1     -40.966 -49.840  11.649  1.00  0.00     0.032 C 
BRANCH  13  15
HETATM   15  C   UNL     1     -40.698 -52.195  12.410  1.00  0.00     0.008 A 
HETATM   16  C   UNL     1     -41.144 -53.520  12.985  1.00  0.00     0.007 A 
HETATM   17  C   UNL     1     -39.969 -52.805  13.585  1.00  0.00     0.007 A 
ENDBRANCH  13  15
ENDBRANCH   1  13
TORSDOF 4
ENDMDL
MODEL 4
REMARK VINA RESULT:      -4.7      2.076      2.991
REMARK  4 active torsions:
REMARK  status: ('A' for Active; 'I' for Inactive)
REMARK    1  A    between atoms: C_2  and  N_3 
REMARK    2  A    between atoms: C_2  and  C_14 
REMARK       I    between atoms: N_3  and  C_4 
REMARK    3  A    between atoms: C_4  and  C_6 
REMARK    4  A    between atoms: C_6  and  N_7 
ROOT
HETATM    1  N   UNL     1     -44.129 -53.113  12.924  1.00  0.00    -0.355 N 
HETATM    2  C   UNL     1     -42.829 -52.831  13.296  1.00  0.00     0.236 C 
HETATM    3  O   UNL     1     -42.377 -53.056  14.418  1.00  0.00    -0.272 OA
HETATM    4  H   UNL     1     -44.426 -52.916  11.975  1.00  0.00     0.162 HD
ENDROOT
BRANCH   2   5
HETATM    5  C   UNL     1     -41.947 -52.270  12.181  1.00  0.00     0.235 C 
BRANCH   5   6
HETATM    6  N   UNL     1     -41.175 -51.129  12.639  1.00  0.00    -0.303 N 
HETATM    7  C   UNL     1     -41.651 -49.841  12.833  1.00  0.00     0.018 A 
HETATM    8  C   UNL     1     -43.073 -49.443  12.615  1.00  0.00     0.069 C 
HETATM    9  C   UNL     1     -40.698 -48.984  13.233  1.00  0.00     0.080 A 
HETATM   10  S   UNL     1     -39.157 -49.760  13.418  1.00  0.00    -0.039 SA
HETATM   11  C   UNL     1     -39.831 -51.313  12.935  1.00  0.00     0.290 A 
HETATM   12  O   UNL     1     -39.194 -52.349  12.875  1.00  0.00    -0.259 OA
ENDBRANCH   5   6
ENDBRANCH   2   5
BRANCH   1  13
HETATM   13  C   UNL     1     -45.124 -53.566  13.881  1.00  0.00     0.084 C 
HETATM   14  C   UNL     1     -45.373 -55.068  13.737  1.00  0.00     0.032 C 
BRANCH  13  15
HETATM   15  C   UNL     1     -46.412 -52.807  13.672  1.00  0.00     0.008 A 
HETATM   16  C   UNL     1     -46.472 -51.480  12.951  1.00  0.00     0.007 A 
HETATM   17  C   UNL     1     -46.637 -51.526  14.442  1.00  0.00     0.007 A 
ENDBRANCH  13  15
ENDBRANCH   1  13
TORSDOF 4
ENDMDL
MODEL 5
REMARK VINA RESULT:      -4.6      2.112      2.435
REMARK  4 active torsions:
REMARK  status: ('A' for Active; 'I' for Inactive)
REMARK    1  A    between atoms: C_2  and  N_3 
REMARK    2  A    between atoms: C_2  and  C_14 
REMARK       I    between atoms: N_3  and  C_4 
REMARK    3  A    between atoms: C_4  and  C_6 
REMARK    4  A    between atoms: C_6  and  N_7 
ROOT
HETATM    1  N   UNL     1     -43.875 -54.002  13.192  1.00  0.00    -0.355 N 
HETATM    2  C   UNL     1     -42.650 -53.886  13.820  1.00  0.00     0.236 C 
HETATM    3  O   UNL     1     -42.517 -53.791  15.039  1.00  0.00    -0.272 OA
HETATM    4  H   UNL     1     -43.906 -54.094  12.182  1.00  0.00     0.162 HD
ENDROOT
BRANCH   2   5
HETATM    5  C   UNL     1     -41.439 -53.951  12.891  1.00  0.00     0.235 C 
BRANCH   5   6
HETATM    6  N   UNL     1     -40.449 -52.949  13.238  1.00  0.00    -0.303 N 
HETATM    7  C   UNL     1     -39.357 -53.130  14.074  1.00  0.00     0.018 A 
HETATM    8  C   UNL     1     -39.025 -54.426  14.733  1.00  0.00     0.069 C 
HETATM    9  C   UNL     1     -38.629 -52.013  14.234  1.00  0.00     0.080 A 
HETATM   10  S   UNL     1     -39.261 -50.683  13.316  1.00  0.00    -0.039 SA
HETATM   11  C   UNL     1     -40.566 -51.681  12.685  1.00  0.00     0.290 A 
HETATM   12  O   UNL     1     -41.414 -51.288  11.903  1.00  0.00    -0.259 OA
ENDBRANCH   5   6
ENDBRANCH   2   5
BRANCH   1  13
HETATM   13  C   UNL     1     -45.128 -53.870  13.914  1.00  0.00     0.084 C 
HETATM   14  C   UNL     1     -45.887 -55.197  13.935  1.00  0.00     0.032 C 
BRANCH  13  15
HETATM   15  C   UNL     1     -45.977 -52.800  13.267  1.00  0.00     0.008 A 
HETATM   16  C   UNL     1     -45.495 -51.381  13.071  1.00  0.00     0.007 A 
HETATM   17  C   UNL     1     -46.520 -51.681  14.125  1.00  0.00     0.007 A 
ENDBRANCH  13  15
ENDBRANCH   1  13
TORSDOF 4
ENDMDL
MODEL 6
REMARK VINA RESULT:      -4.2      2.460      3.493
REMARK  4 active torsions:
REMARK  status: ('A' for Active; 'I' for Inactive)
REMARK    1  A    between atoms: C_2  and  N_3 
REMARK    2  A    between atoms: C_2  and  C_14 
REMARK       I    between atoms: N_3  and  C_4 
REMARK    3  A    between atoms: C_4  and  C_6 
REMARK    4  A    between atoms: C_6  and  N_7 
ROOT
HETATM    1  N   UNL     1     -43.996 -51.892  13.750  1.00  0.00    -0.355 N 
HETATM    2  C   UNL     1     -42.741 -51.963  13.176  1.00  0.00     0.236 C 
HETATM    3  O   UNL     1     -42.520 -52.489  12.086  1.00  0.00    -0.272 OA
HETATM    4  H   UNL     1     -44.105 -51.427  14.644  1.00  0.00     0.162 HD
ENDROOT
BRANCH   2   5
HETATM    5  C   UNL     1     -41.630 -51.275  13.967  1.00  0.00     0.235 C 
BRANCH   5   6
HETATM    6  N   UNL     1     -40.795 -50.457  13.107  1.00  0.00    -0.303 N 
HETATM    7  C   UNL     1     -41.109 -49.199  12.613  1.00  0.00     0.018 A 
HETATM    8  C   UNL     1     -42.378 -48.481  12.927  1.00  0.00     0.069 C 
HETATM    9  C   UNL     1     -40.153 -48.695  11.817  1.00  0.00     0.080 A 
HETATM   10  S   UNL     1     -38.792 -49.762  11.672  1.00  0.00    -0.039 SA
HETATM   11  C   UNL     1     -39.547 -50.942  12.737  1.00  0.00     0.290 A 
HETATM   12  O   UNL     1     -39.035 -51.997  13.065  1.00  0.00    -0.259 OA
ENDBRANCH   5   6
ENDBRANCH   2   5
BRANCH   1  13
HETATM   13  C   UNL     1     -45.146 -52.570  13.177  1.00  0.00     0.084 C 
HETATM   14  C   UNL     1     -46.292 -51.587  12.932  1.00  0.00     0.032 C 
BRANCH  13  15
HETATM   15  C   UNL     1     -45.600 -53.672  14.105  1.00  0.00     0.008 A 
HETATM   16  C   UNL     1     -44.634 -54.550  14.866  1.00  0.00     0.007 A 
HETATM   17  C   UNL     1     -45.384 -55.109  13.693  1.00  0.00     0.007 A 
ENDBRANCH  13  15
ENDBRANCH   1  13
TORSDOF 4
ENDMDL
MODEL 7
REMARK VINA RESULT:      -4.2      3.788      5.052
REMARK  4 active torsions:
REMARK  status: ('A' for Active; 'I' for Inactive)
REMARK    1  A    between atoms: C_2  and  N_3 
REMARK    2  A    between atoms: C_2  and  C_14 
REMARK       I    between atoms: N_3  and  C_4 
REMARK    3  A    between atoms: C_4  and  C_6 
REMARK    4  A    between atoms: C_6  and  N_7 
ROOT
HETATM    1  N   UNL     1     -40.935 -53.030  14.424  1.00  0.00    -0.355 N 
HETATM    2  C   UNL     1     -39.582 -53.114  14.161  1.00  0.00     0.236 C 
HETATM    3  O   UNL     1     -39.061 -54.059  13.570  1.00  0.00    -0.272 OA
HETATM    4  H   UNL     1     -41.296 -52.212  14.902  1.00  0.00     0.162 HD
ENDROOT
BRANCH   2   5
HETATM    5  C   UNL     1     -38.763 -51.903  14.602  1.00  0.00     0.235 C 
BRANCH   5   6
HETATM    6  N   UNL     1     -38.712 -50.889  13.565  1.00  0.00    -0.303 N 
HETATM    7  C   UNL     1     -39.563 -49.801  13.438  1.00  0.00     0.018 A 
HETATM    8  C   UNL     1     -40.668 -49.500  14.394  1.00  0.00     0.069 C 
HETATM    9  C   UNL     1     -39.294 -49.048  12.360  1.00  0.00     0.080 A 
HETATM   10  S   UNL     1     -37.935 -49.649  11.464  1.00  0.00    -0.039 SA
HETATM   11  C   UNL     1     -37.718 -50.977  12.599  1.00  0.00     0.290 A 
HETATM   12  O   UNL     1     -36.839 -51.816  12.514  1.00  0.00    -0.259 OA
ENDBRANCH   5   6
ENDBRANCH   2   5
BRANCH   1  13
HETATM   13  C   UNL     1     -41.844 -54.131  14.154  1.00  0.00     0.084 C 
HETATM   14  C   UNL     1     -42.837 -53.760  13.051  1.00  0.00     0.032 C 
BRANCH  13  15
HETATM   15  C   UNL     1     -42.589 -54.498  15.416  1.00  0.00     0.008 A 
HETATM   16  C   UNL     1     -41.940 -54.484  16.781  1.00  0.00     0.007 A 
HETATM   17  C   UNL     1     -42.246 -55.793  16.115  1.00  0.00     0.007 A 
ENDBRANCH  13  15
ENDBRANCH   1  13
TORSDOF 4
ENDMDL
MODEL 8
REMARK VINA RESULT:      -4.2      2.025      3.383
REMARK  4 active torsions:
REMARK  status: ('A' for Active; 'I' for Inactive)
REMARK    1  A    between atoms: C_2  and  N_3 
REMARK    2  A    between atoms: C_2  and  C_14 
REMARK       I    between atoms: N_3  and  C_4 
REMARK    3  A    between atoms: C_4  and  C_6 
REMARK    4  A    between atoms: C_6  and  N_7 
ROOT
HETATM    1  N   UNL     1     -44.973 -52.181  15.475  1.00  0.00    -0.355 N 
HETATM    2  C   UNL     1     -43.782 -51.519  15.700  1.00  0.00     0.236 C 
HETATM    3  O   UNL     1     -43.649 -50.301  15.593  1.00  0.00    -0.272 OA
HETATM    4  H   UNL     1     -45.012 -53.186  15.600  1.00  0.00     0.162 HD
ENDROOT
BRANCH   2   5
HETATM    5  C   UNL     1     -42.628 -52.408  16.165  1.00  0.00     0.235 C 
BRANCH   5   6
HETATM    6  N   UNL     1     -41.767 -52.781  15.058  1.00  0.00    -0.303 N 
HETATM    7  C   UNL     1     -40.586 -52.154  14.690  1.00  0.00     0.018 A 
HETATM    8  C   UNL     1     -40.008 -50.986  15.417  1.00  0.00     0.069 C 
HETATM    9  C   UNL     1     -40.017 -52.703  13.605  1.00  0.00     0.080 A 
HETATM   10  S   UNL     1     -40.920 -54.059  13.008  1.00  0.00    -0.039 SA
HETATM   11  C   UNL     1     -42.120 -53.878  14.283  1.00  0.00     0.290 A 
HETATM   12  O   UNL     1     -43.086 -54.606  14.425  1.00  0.00    -0.259 OA
ENDBRANCH   5   6
ENDBRANCH   2   5
BRANCH   1  13
HETATM   13  C   UNL     1     -46.143 -51.503  14.943  1.00  0.00     0.084 C 
HETATM   14  C   UNL     1     -47.252 -51.426  15.994  1.00  0.00     0.032 C 
BRANCH  13  15
HETATM   15  C   UNL     1     -46.642 -52.235  13.720  1.00  0.00     0.008 A 
HETATM   16  C   UNL     1     -45.717 -52.739  12.635  1.00  0.00     0.007 A 
HETATM   17  C   UNL     1     -46.582 -51.540  12.379  1.00  0.00     0.007 A 
ENDBRANCH  13  15
ENDBRANCH   1  13
TORSDOF 4
ENDMDL
MODEL 9
REMARK VINA RESULT:      -4.2      2.256      3.071
REMARK  4 active torsions:
REMARK  status: ('A' for Active; 'I' for Inactive)
REMARK    1  A    between atoms: C_2  and  N_3 
REMARK    2  A    between atoms: C_2  and  C_14 
REMARK       I    between atoms: N_3  and  C_4 
REMARK    3  A    between atoms: C_4  and  C_6 
REMARK    4  A    between atoms: C_6  and  N_7 
ROOT
HETATM    1  N   UNL     1     -44.525 -53.774  15.318  1.00  0.00    -0.355 N 
HETATM    2  C   UNL     1     -43.166 -53.803  15.565  1.00  0.00     0.236 C 
HETATM    3  O   UNL     1     -42.658 -53.422  16.619  1.00  0.00    -0.272 OA
HETATM    4  H   UNL     1     -44.873 -54.121  14.431  1.00  0.00     0.162 HD
ENDROOT
BRANCH   2   5
HETATM    5  C   UNL     1     -42.320 -54.413  14.449  1.00  0.00     0.235 C 
BRANCH   5   6
HETATM    6  N   UNL     1     -41.617 -53.390  13.696  1.00  0.00    -0.303 N 
HETATM    7  C   UNL     1     -40.293 -53.011  13.865  1.00  0.00     0.018 A 
HETATM    8  C   UNL     1     -39.374 -53.639  14.857  1.00  0.00     0.069 C 
HETATM    9  C   UNL     1     -39.925 -52.015  13.043  1.00  0.00     0.080 A 
HETATM   10  S   UNL     1     -41.215 -51.522  11.993  1.00  0.00    -0.039 SA
HETATM   11  C   UNL     1     -42.301 -52.718  12.692  1.00  0.00     0.290 A 
HETATM   12  O   UNL     1     -43.452 -52.891  12.335  1.00  0.00    -0.259 OA
ENDBRANCH   5   6
ENDBRANCH   2   5
BRANCH   1  13
HETATM   13  C   UNL     1     -45.463 -53.146  16.233  1.00  0.00     0.084 C 
HETATM   14  C   UNL     1     -45.894 -54.125  17.326  1.00  0.00     0.032 C 
BRANCH  13  15
HETATM   15  C   UNL     1     -46.671 -52.661  15.468  1.00  0.00     0.008 A 
HETATM   16  C   UNL     1     -46.583 -51.622  14.373  1.00  0.00     0.007 A 
HETATM   17  C   UNL     1     -47.168 -51.253  15.705  1.00  0.00     0.007 A 
ENDBRANCH  13  15
ENDBRANCH   1  13
TORSDOF 4
ENDMDL
