MODEL 1
REMARK VINA RESULT:      -6.7      0.000      0.000
REMARK  5 active torsions:
REMARK  status: ('A' for Active; 'I' for Inactive)
REMARK    1  A    between atoms: O_2  and  C_3 
REMARK    2  A    between atoms: C_9  and  N_10 
REMARK       I    between atoms: N_10  and  C_11 
REMARK       I    between atoms: C_11  and  N_13 
REMARK    3  A    between atoms: N_13  and  C_14 
REMARK    4  A    between atoms: C_14  and  C_15 
REMARK    5  A    between atoms: C_15  and  N_16 
REMARK       I    between atoms: N_19  and  C_22 
ROOT
HETATM    1  N   UNL     1     -42.019 -48.185   9.519  1.00  0.00    -0.305 N 
HETATM    2  C   UNL     1     -41.651 -48.749  10.712  1.00  0.00     0.320 C 
HETATM    3  O   UNL     1     -42.261 -48.611  11.772  1.00  0.00    -0.247 OA
HETATM    4  N   UNL     1     -40.480 -49.494  10.663  1.00  0.00    -0.341 N 
HETATM    5  H   UNL     1     -41.559 -48.481   8.670  1.00  0.00     0.171 HD
HETATM    6  H   UNL     1     -40.305 -50.001   9.810  1.00  0.00     0.164 HD
ENDROOT
BRANCH   1   7
HETATM    7  C   UNL     1     -43.127 -47.306   9.351  1.00  0.00     0.087 A 
HETATM    8  C   UNL     1     -42.970 -45.923   9.519  1.00  0.00     0.169 A 
HETATM    9  N   UNL     1     -43.971 -45.019   9.384  1.00  0.00    -0.345 N 
HETATM   10  C   UNL     1     -45.189 -45.497   9.051  1.00  0.00     0.090 A 
ATOM     11  HN  UNL     1     -43.811 -44.022   9.528  1.00  0.00     0.167 HD
HETATM   12  C   UNL     1     -45.456 -46.836   8.857  1.00  0.00     0.019 A 
HETATM   13  C   UNL     1     -44.412 -47.746   9.020  1.00  0.00     0.035 A 
BRANCH   8  14
HETATM   14  O   UNL     1     -41.694 -45.461   9.808  1.00  0.00    -0.339 OA
HETATM   15  C   UNL     1     -41.602 -44.925  11.128  1.00  0.00     0.211 C 
ENDBRANCH   8  14
ENDBRANCH   1   7
BRANCH   4  16
HETATM   16  C   UNL     1     -40.159 -50.131  11.930  1.00  0.00     0.154 C 
BRANCH  16  17
HETATM   17  C   UNL     1     -40.598 -51.583  12.179  1.00  0.00     0.292 C 
BRANCH  17  18
HETATM   18  N   UNL     1     -41.468 -51.634  13.377  1.00  0.00     0.093 N 
HETATM   19  C   UNL     1     -40.875 -52.363  14.524  1.00  0.00     0.292 C 
HETATM   20  C   UNL     1     -40.863 -53.889  14.343  1.00  0.00     0.156 C 
HETATM   21  N   UNL     1     -42.233 -54.364  14.167  1.00  0.00    -0.349 N 
HETATM   22  C   UNL     1     -42.929 -53.719  13.045  1.00  0.00     0.156 C 
HETATM   23  C   UNL     1     -42.945 -55.169  15.035  1.00  0.00     0.215 C 
HETATM   24  C   UNL     1     -42.820 -52.175  13.110  1.00  0.00     0.292 C 
HETATM   25  O   UNL     1     -44.133 -55.439  14.841  1.00  0.00    -0.274 OA
HETATM   26  C   UNL     1     -42.272 -55.751  16.258  1.00  0.00     0.117 C 
ENDBRANCH  17  18
ENDBRANCH  16  17
ENDBRANCH   4  16
TORSDOF 5
ENDMDL
MODEL 2
REMARK VINA RESULT:      -6.6      1.765      2.703
REMARK  5 active torsions:
REMARK  status: ('A' for Active; 'I' for Inactive)
REMARK    1  A    between atoms: O_2  and  C_3 
REMARK    2  A    between atoms: C_9  and  N_10 
REMARK       I    between atoms: N_10  and  C_11 
REMARK       I    between atoms: C_11  and  N_13 
REMARK    3  A    between atoms: N_13  and  C_14 
REMARK    4  A    between atoms: C_14  and  C_15 
REMARK    5  A    between atoms: C_15  and  N_16 
REMARK       I    between atoms: N_19  and  C_22 
ROOT
HETATM    1  N   UNL     1     -41.267 -48.607  10.434  1.00  0.00    -0.305 N 
HETATM    2  C   UNL     1     -41.108 -49.490  11.469  1.00  0.00     0.320 C 
HETATM    3  O   UNL     1     -41.227 -49.204  12.661  1.00  0.00    -0.247 OA
HETATM    4  N   UNL     1     -40.759 -50.777  11.084  1.00  0.00    -0.341 N 
HETATM    5  H   UNL     1     -41.314 -48.958   9.488  1.00  0.00     0.171 HD
HETATM    6  H   UNL     1     -41.150 -51.109  10.216  1.00  0.00     0.164 HD
ENDROOT
BRANCH   1   7
HETATM    7  C   UNL     1     -41.530 -47.216  10.594  1.00  0.00     0.087 A 
HETATM    8  C   UNL     1     -42.837 -46.722  10.489  1.00  0.00     0.169 A 
HETATM    9  N   UNL     1     -43.173 -45.416  10.621  1.00  0.00    -0.345 N 
HETATM   10  C   UNL     1     -42.173 -44.549  10.886  1.00  0.00     0.090 A 
ATOM     11  HN  UNL     1     -44.139 -45.102  10.523  1.00  0.00     0.167 HD
HETATM   12  C   UNL     1     -40.852 -44.925  11.015  1.00  0.00     0.019 A 
HETATM   13  C   UNL     1     -40.532 -46.272  10.857  1.00  0.00     0.035 A 
BRANCH   8  14
HETATM   14  O   UNL     1     -43.848 -47.648  10.268  1.00  0.00    -0.339 OA
HETATM   15  C   UNL     1     -44.469 -47.473   8.995  1.00  0.00     0.211 C 
ENDBRANCH   8  14
ENDBRANCH   1   7
BRANCH   4  16
HETATM   16  C   UNL     1     -40.665 -51.700  12.203  1.00  0.00     0.154 C 
BRANCH  16  17
HETATM   17  C   UNL     1     -41.667 -52.862  12.311  1.00  0.00     0.292 C 
BRANCH  17  18
HETATM   18  N   UNL     1     -42.992 -52.333  12.709  1.00  0.00     0.093 N 
HETATM   19  C   UNL     1     -43.071 -51.909  14.129  1.00  0.00     0.292 C 
HETATM   20  C   UNL     1     -43.130 -53.084  15.118  1.00  0.00     0.156 C 
HETATM   21  N   UNL     1     -44.304 -53.902  14.826  1.00  0.00    -0.349 N 
HETATM   22  C   UNL     1     -44.334 -54.395  13.442  1.00  0.00     0.156 C 
HETATM   23  C   UNL     1     -45.412 -54.072  15.632  1.00  0.00     0.215 C 
HETATM   24  C   UNL     1     -44.114 -53.253  12.418  1.00  0.00     0.292 C 
HETATM   25  O   UNL     1     -46.397 -54.711  15.253  1.00  0.00    -0.274 OA
HETATM   26  C   UNL     1     -45.441 -53.474  17.021  1.00  0.00     0.117 C 
ENDBRANCH  17  18
ENDBRANCH  16  17
ENDBRANCH   4  16
TORSDOF 5
ENDMDL
MODEL 3
REMARK VINA RESULT:      -6.4      2.522      7.967
REMARK  5 active torsions:
REMARK  status: ('A' for Active; 'I' for Inactive)
REMARK    1  A    between atoms: O_2  and  C_3 
REMARK    2  A    between atoms: C_9  and  N_10 
REMARK       I    between atoms: N_10  and  C_11 
REMARK       I    between atoms: C_11  and  N_13 
REMARK    3  A    between atoms: N_13  and  C_14 
REMARK    4  A    between atoms: C_14  and  C_15 
REMARK    5  A    between atoms: C_15  and  N_16 
REMARK       I    between atoms: N_19  and  C_22 
ROOT
HETATM    1  N   UNL     1     -43.535 -52.469  12.190  1.00  0.00    -0.305 N 
HETATM    2  C   UNL     1     -42.656 -51.559  12.714  1.00  0.00     0.320 C 
HETATM    3  O   UNL     1     -42.509 -51.336  13.915  1.00  0.00    -0.247 OA
HETATM    4  N   UNL     1     -41.928 -50.846  11.770  1.00  0.00    -0.341 N 
HETATM    5  H   UNL     1     -43.475 -52.706  11.210  1.00  0.00     0.171 HD
HETATM    6  H   UNL     1     -41.673 -51.342  10.930  1.00  0.00     0.164 HD
ENDROOT
BRANCH   1   7
HETATM    7  C   UNL     1     -44.449 -53.243  12.960  1.00  0.00     0.087 A 
HETATM    8  C   UNL     1     -45.752 -52.782  13.192  1.00  0.00     0.169 A 
HETATM    9  N   UNL     1     -46.681 -53.451  13.917  1.00  0.00    -0.345 N 
HETATM   10  C   UNL     1     -46.316 -54.644  14.430  1.00  0.00     0.090 A 
ATOM     11  HN  UNL     1     -47.615 -53.069  14.068  1.00  0.00     0.167 HD
HETATM   12  C   UNL     1     -45.063 -55.196  14.262  1.00  0.00     0.019 A 
HETATM   13  C   UNL     1     -44.122 -54.478  13.527  1.00  0.00     0.035 A 
BRANCH   8  14
HETATM   14  O   UNL     1     -46.111 -51.577  12.604  1.00  0.00    -0.339 OA
HETATM   15  C   UNL     1     -47.074 -51.750  11.565  1.00  0.00     0.211 C 
ENDBRANCH   8  14
ENDBRANCH   1   7
BRANCH   4  16
HETATM   16  C   UNL     1     -40.960 -49.939  12.364  1.00  0.00     0.154 C 
BRANCH  16  17
HETATM   17  C   UNL     1     -40.728 -48.559  11.729  1.00  0.00     0.292 C 
BRANCH  17  18
HETATM   18  N   UNL     1     -41.848 -47.658  12.087  1.00  0.00     0.093 N 
HETATM   19  C   UNL     1     -43.151 -48.052  11.499  1.00  0.00     0.292 C 
HETATM   20  C   UNL     1     -43.262 -47.757   9.995  1.00  0.00     0.156 C 
HETATM   21  N   UNL     1     -43.081 -46.325   9.771  1.00  0.00    -0.349 N 
HETATM   22  C   UNL     1     -41.810 -45.813  10.302  1.00  0.00     0.156 C 
HETATM   23  C   UNL     1     -44.031 -45.436   9.308  1.00  0.00     0.215 C 
HETATM   24  C   UNL     1     -41.591 -46.234  11.777  1.00  0.00     0.292 C 
HETATM   25  O   UNL     1     -43.806 -44.224   9.242  1.00  0.00    -0.274 OA
HETATM   26  C   UNL     1     -45.387 -45.935   8.862  1.00  0.00     0.117 C 
ENDBRANCH  17  18
ENDBRANCH  16  17
ENDBRANCH   4  16
TORSDOF 5
ENDMDL
MODEL 4
REMARK VINA RESULT:      -6.1      1.880      3.031
REMARK  5 active torsions:
REMARK  status: ('A' for Active; 'I' for Inactive)
REMARK    1  A    between atoms: O_2  and  C_3 
REMARK    2  A    between atoms: C_9  and  N_10 
REMARK       I    between atoms: N_10  and  C_11 
REMARK       I    between atoms: C_11  and  N_13 
REMARK    3  A    between atoms: N_13  and  C_14 
REMARK    4  A    between atoms: C_14  and  C_15 
REMARK    5  A    between atoms: C_15  and  N_16 
REMARK       I    between atoms: N_19  and  C_22 
ROOT
HETATM    1  N   UNL     1     -41.378 -48.811  10.550  1.00  0.00    -0.305 N 
HETATM    2  C   UNL     1     -41.022 -49.638  11.582  1.00  0.00     0.320 C 
HETATM    3  O   UNL     1     -40.849 -49.275  12.745  1.00  0.00    -0.247 OA
HETATM    4  N   UNL     1     -40.829 -50.965  11.221  1.00  0.00    -0.341 N 
HETATM    5  H   UNL     1     -41.659 -49.215   9.668  1.00  0.00     0.171 HD
HETATM    6  H   UNL     1     -41.425 -51.324  10.491  1.00  0.00     0.164 HD
ENDROOT
BRANCH   1   7
HETATM    7  C   UNL     1     -41.536 -47.400  10.666  1.00  0.00     0.087 A 
HETATM    8  C   UNL     1     -42.812 -46.821  10.627  1.00  0.00     0.169 A 
HETATM    9  N   UNL     1     -43.049 -45.490  10.723  1.00  0.00    -0.345 N 
HETATM   10  C   UNL     1     -41.978 -44.686  10.882  1.00  0.00     0.090 A 
ATOM     11  HN  UNL     1     -43.997 -45.114  10.678  1.00  0.00     0.167 HD
HETATM   12  C   UNL     1     -40.679 -45.147  10.938  1.00  0.00     0.019 A 
HETATM   13  C   UNL     1     -40.462 -46.518  10.818  1.00  0.00     0.035 A 
BRANCH   8  14
HETATM   14  O   UNL     1     -43.895 -47.682  10.517  1.00  0.00    -0.339 OA
HETATM   15  C   UNL     1     -44.792 -47.288   9.479  1.00  0.00     0.211 C 
ENDBRANCH   8  14
ENDBRANCH   1   7
BRANCH   4  16
HETATM   16  C   UNL     1     -40.519 -51.823  12.352  1.00  0.00     0.154 C 
BRANCH  16  17
HETATM   17  C   UNL     1     -41.664 -52.401  13.199  1.00  0.00     0.292 C 
BRANCH  17  18
HETATM   18  N   UNL     1     -41.549 -53.878  13.241  1.00  0.00     0.093 N 
HETATM   19  C   UNL     1     -42.382 -54.519  14.287  1.00  0.00     0.292 C 
HETATM   20  C   UNL     1     -41.831 -54.335  15.710  1.00  0.00     0.156 C 
HETATM   21  N   UNL     1     -40.490 -54.910  15.786  1.00  0.00    -0.349 N 
HETATM   22  C   UNL     1     -39.561 -54.342  14.799  1.00  0.00     0.156 C 
HETATM   23  C   UNL     1     -40.105 -56.010  16.526  1.00  0.00     0.215 C 
HETATM   24  C   UNL     1     -40.156 -54.364  13.369  1.00  0.00     0.292 C 
HETATM   25  O   UNL     1     -38.965 -56.476  16.450  1.00  0.00    -0.274 OA
HETATM   26  C   UNL     1     -41.086 -56.676  17.465  1.00  0.00     0.117 C 
ENDBRANCH  17  18
ENDBRANCH  16  17
ENDBRANCH   4  16
TORSDOF 5
ENDMDL
MODEL 5
REMARK VINA RESULT:      -6.1      3.017      7.920
REMARK  5 active torsions:
REMARK  status: ('A' for Active; 'I' for Inactive)
REMARK    1  A    between atoms: O_2  and  C_3 
REMARK    2  A    between atoms: C_9  and  N_10 
REMARK       I    between atoms: N_10  and  C_11 
REMARK       I    between atoms: C_11  and  N_13 
REMARK    3  A    between atoms: N_13  and  C_14 
REMARK    4  A    between atoms: C_14  and  C_15 
REMARK    5  A    between atoms: C_15  and  N_16 
REMARK       I    between atoms: N_19  and  C_22 
ROOT
HETATM    1  N   UNL     1     -43.859 -52.126  12.465  1.00  0.00    -0.305 N 
HETATM    2  C   UNL     1     -42.643 -51.573  12.768  1.00  0.00     0.320 C 
HETATM    3  O   UNL     1     -42.297 -51.209  13.892  1.00  0.00    -0.247 OA
HETATM    4  N   UNL     1     -41.794 -51.408  11.682  1.00  0.00    -0.341 N 
HETATM    5  H   UNL     1     -43.998 -52.544  11.556  1.00  0.00     0.171 HD
HETATM    6  H   UNL     1     -41.844 -52.113  10.962  1.00  0.00     0.164 HD
ENDROOT
BRANCH   1   7
HETATM    7  C   UNL     1     -44.920 -52.300  13.399  1.00  0.00     0.087 A 
HETATM    8  C   UNL     1     -45.131 -53.542  14.013  1.00  0.00     0.169 A 
HETATM    9  N   UNL     1     -46.120 -53.794  14.905  1.00  0.00    -0.345 N 
HETATM   10  C   UNL     1     -46.935 -52.767  15.224  1.00  0.00     0.090 A 
ATOM     11  HN  UNL     1     -46.241 -54.719  15.318  1.00  0.00     0.167 HD
HETATM   12  C   UNL     1     -46.817 -51.503  14.685  1.00  0.00     0.019 A 
HETATM   13  C   UNL     1     -45.803 -51.276  13.756  1.00  0.00     0.035 A 
BRANCH   8  14
HETATM   14  O   UNL     1     -44.242 -54.561  13.702  1.00  0.00    -0.339 OA
HETATM   15  C   UNL     1     -43.367 -54.862  14.790  1.00  0.00     0.211 C 
ENDBRANCH   8  14
ENDBRANCH   1   7
BRANCH   4  16
HETATM   16  C   UNL     1     -40.491 -50.882  12.052  1.00  0.00     0.154 C 
BRANCH  16  17
HETATM   17  C   UNL     1     -40.075 -49.483  11.568  1.00  0.00     0.292 C 
BRANCH  17  18
HETATM   18  N   UNL     1     -40.899 -48.461  12.254  1.00  0.00     0.093 N 
HETATM   19  C   UNL     1     -41.210 -47.276  11.417  1.00  0.00     0.292 C 
HETATM   20  C   UNL     1     -40.016 -46.329  11.224  1.00  0.00     0.156 C 
HETATM   21  N   UNL     1     -39.562 -45.853  12.528  1.00  0.00    -0.349 N 
HETATM   22  C   UNL     1     -39.209 -46.943  13.450  1.00  0.00     0.156 C 
HETATM   23  C   UNL     1     -39.623 -44.557  13.001  1.00  0.00     0.215 C 
HETATM   24  C   UNL     1     -40.333 -48.005  13.543  1.00  0.00     0.292 C 
HETATM   25  O   UNL     1     -39.298 -44.273  14.157  1.00  0.00    -0.274 OA
HETATM   26  C   UNL     1     -40.092 -43.439  12.096  1.00  0.00     0.117 C 
ENDBRANCH  17  18
ENDBRANCH  16  17
ENDBRANCH   4  16
TORSDOF 5
ENDMDL
MODEL 6
REMARK VINA RESULT:      -6.0      2.013      8.648
REMARK  5 active torsions:
REMARK  status: ('A' for Active; 'I' for Inactive)
REMARK    1  A    between atoms: O_2  and  C_3 
REMARK    2  A    between atoms: C_9  and  N_10 
REMARK       I    between atoms: N_10  and  C_11 
REMARK       I    between atoms: C_11  and  N_13 
REMARK    3  A    between atoms: N_13  and  C_14 
REMARK    4  A    between atoms: C_14  and  C_15 
REMARK    5  A    between atoms: C_15  and  N_16 
REMARK       I    between atoms: N_19  and  C_22 
ROOT
HETATM    1  N   UNL     1     -41.673 -52.799  12.155  1.00  0.00    -0.305 N 
HETATM    2  C   UNL     1     -41.381 -51.470  12.312  1.00  0.00     0.320 C 
HETATM    3  O   UNL     1     -41.491 -50.847  13.367  1.00  0.00    -0.247 OA
HETATM    4  N   UNL     1     -40.964 -50.828  11.154  1.00  0.00    -0.341 N 
HETATM    5  H   UNL     1     -41.399 -53.268  11.303  1.00  0.00     0.171 HD
HETATM    6  H   UNL     1     -40.415 -51.375  10.509  1.00  0.00     0.164 HD
ENDROOT
BRANCH   1   7
HETATM    7  C   UNL     1     -42.207 -53.634  13.178  1.00  0.00     0.087 A 
HETATM    8  C   UNL     1     -43.568 -53.969  13.186  1.00  0.00     0.169 A 
HETATM    9  N   UNL     1     -44.157 -54.750  14.123  1.00  0.00    -0.345 N 
HETATM   10  C   UNL     1     -43.364 -55.242  15.098  1.00  0.00     0.090 A 
ATOM     11  HN  UNL     1     -45.155 -54.957  14.094  1.00  0.00     0.167 HD
HETATM   12  C   UNL     1     -42.012 -54.981  15.186  1.00  0.00     0.019 A 
HETATM   13  C   UNL     1     -41.436 -54.160  14.219  1.00  0.00     0.035 A 
BRANCH   8  14
HETATM   14  O   UNL     1     -44.343 -53.490  12.139  1.00  0.00    -0.339 OA
HETATM   15  C   UNL     1     -45.442 -52.703  12.599  1.00  0.00     0.211 C 
ENDBRANCH   8  14
ENDBRANCH   1   7
BRANCH   4  16
HETATM   16  C   UNL     1     -40.600 -49.438  11.374  1.00  0.00     0.154 C 
BRANCH  16  17
HETATM   17  C   UNL     1     -41.677 -48.347  11.262  1.00  0.00     0.292 C 
BRANCH  17  18
HETATM   18  N   UNL     1     -41.183 -47.256  10.391  1.00  0.00     0.093 N 
HETATM   19  C   UNL     1     -40.142 -46.406  11.019  1.00  0.00     0.292 C 
HETATM   20  C   UNL     1     -40.694 -45.444  12.082  1.00  0.00     0.156 C 
HETATM   21  N   UNL     1     -41.685 -44.563  11.469  1.00  0.00    -0.349 N 
HETATM   22  C   UNL     1     -42.782 -45.293  10.819  1.00  0.00     0.156 C 
HETATM   23  C   UNL     1     -41.576 -43.198  11.289  1.00  0.00     0.215 C 
HETATM   24  C   UNL     1     -42.256 -46.387   9.856  1.00  0.00     0.292 C 
HETATM   25  O   UNL     1     -42.431 -42.556  10.673  1.00  0.00    -0.274 OA
HETATM   26  C   UNL     1     -40.393 -42.447  11.857  1.00  0.00     0.117 C 
ENDBRANCH  17  18
ENDBRANCH  16  17
ENDBRANCH   4  16
TORSDOF 5
ENDMDL
MODEL 7
REMARK VINA RESULT:      -5.9      3.071      8.198
REMARK  5 active torsions:
REMARK  status: ('A' for Active; 'I' for Inactive)
REMARK    1  A    between atoms: O_2  and  C_3 
REMARK    2  A    between atoms: C_9  and  N_10 
REMARK       I    between atoms: N_10  and  C_11 
REMARK       I    between atoms: C_11  and  N_13 
REMARK    3  A    between atoms: N_13  and  C_14 
REMARK    4  A    between atoms: C_14  and  C_15 
REMARK    5  A    between atoms: C_15  and  N_16 
REMARK       I    between atoms: N_19  and  C_22 
ROOT
HETATM    1  N   UNL     1     -43.663 -52.215  12.288  1.00  0.00    -0.305 N 
HETATM    2  C   UNL     1     -42.641 -51.496  12.850  1.00  0.00     0.320 C 
HETATM    3  O   UNL     1     -42.301 -51.564  14.031  1.00  0.00    -0.247 OA
HETATM    4  N   UNL     1     -42.001 -50.622  11.981  1.00  0.00    -0.341 N 
HETATM    5  H   UNL     1     -43.768 -52.221  11.284  1.00  0.00     0.171 HD
HETATM    6  H   UNL     1     -41.916 -50.923  11.023  1.00  0.00     0.164 HD
ENDROOT
BRANCH   1   7
HETATM    7  C   UNL     1     -44.518 -53.098  13.008  1.00  0.00     0.087 A 
HETATM    8  C   UNL     1     -45.841 -52.734  13.290  1.00  0.00     0.169 A 
HETATM    9  N   UNL     1     -46.717 -53.510  13.973  1.00  0.00    -0.345 N 
HETATM   10  C   UNL     1     -46.275 -54.716  14.387  1.00  0.00     0.090 A 
ATOM     11  HN  UNL     1     -47.669 -53.197  14.165  1.00  0.00     0.167 HD
HETATM   12  C   UNL     1     -44.995 -55.178  14.162  1.00  0.00     0.019 A 
HETATM   13  C   UNL     1     -44.109 -54.352  13.472  1.00  0.00     0.035 A 
BRANCH   8  14
HETATM   14  O   UNL     1     -46.279 -51.510  12.803  1.00  0.00    -0.339 OA
HETATM   15  C   UNL     1     -47.019 -51.648  11.590  1.00  0.00     0.211 C 
ENDBRANCH   8  14
ENDBRANCH   1   7
BRANCH   4  16
HETATM   16  C   UNL     1     -40.882 -49.927  12.595  1.00  0.00     0.154 C 
BRANCH  16  17
HETATM   17  C   UNL     1     -41.108 -48.551  13.242  1.00  0.00     0.292 C 
BRANCH  17  18
HETATM   18  N   UNL     1     -39.976 -47.657  12.905  1.00  0.00     0.093 N 
HETATM   19  C   UNL     1     -39.998 -46.359  13.624  1.00  0.00     0.292 C 
HETATM   20  C   UNL     1     -41.058 -45.382  13.095  1.00  0.00     0.156 C 
HETATM   21  N   UNL     1     -40.804 -45.111  11.682  1.00  0.00    -0.349 N 
HETATM   22  C   UNL     1     -40.771 -46.327  10.858  1.00  0.00     0.156 C 
HETATM   23  C   UNL     1     -40.419 -43.905  11.130  1.00  0.00     0.215 C 
HETATM   24  C   UNL     1     -39.828 -47.402  11.455  1.00  0.00     0.292 C 
HETATM   25  O   UNL     1     -40.136 -43.802   9.933  1.00  0.00    -0.274 OA
HETATM   26  C   UNL     1     -40.340 -42.665  11.992  1.00  0.00     0.117 C 
ENDBRANCH  17  18
ENDBRANCH  16  17
ENDBRANCH   4  16
TORSDOF 5
ENDMDL
MODEL 8
REMARK VINA RESULT:      -5.9      3.573      5.418
REMARK  5 active torsions:
REMARK  status: ('A' for Active; 'I' for Inactive)
REMARK    1  A    between atoms: O_2  and  C_3 
REMARK    2  A    between atoms: C_9  and  N_10 
REMARK       I    between atoms: N_10  and  C_11 
REMARK       I    between atoms: C_11  and  N_13 
REMARK    3  A    between atoms: N_13  and  C_14 
REMARK    4  A    between atoms: C_14  and  C_15 
REMARK    5  A    between atoms: C_15  and  N_16 
REMARK       I    between atoms: N_19  and  C_22 
ROOT
HETATM    1  N   UNL     1     -41.202 -51.490  11.419  1.00  0.00    -0.305 N 
HETATM    2  C   UNL     1     -41.817 -52.151  12.449  1.00  0.00     0.320 C 
HETATM    3  O   UNL     1     -41.996 -51.686  13.574  1.00  0.00    -0.247 OA
HETATM    4  N   UNL     1     -42.219 -53.445  12.149  1.00  0.00    -0.341 N 
HETATM    5  H   UNL     1     -41.244 -51.880  10.488  1.00  0.00     0.171 HD
HETATM    6  H   UNL     1     -42.535 -53.611  11.206  1.00  0.00     0.164 HD
ENDROOT
BRANCH   1   7
HETATM    7  C   UNL     1     -40.624 -50.193  11.524  1.00  0.00     0.087 A 
HETATM    8  C   UNL     1     -39.301 -50.036  11.956  1.00  0.00     0.169 A 
HETATM    9  N   UNL     1     -38.678 -48.840  12.090  1.00  0.00    -0.345 N 
HETATM   10  C   UNL     1     -39.388 -47.739  11.767  1.00  0.00     0.090 A 
ATOM     11  HN  UNL     1     -37.714 -48.775  12.420  1.00  0.00     0.167 HD
HETATM   12  C   UNL     1     -40.695 -47.776  11.327  1.00  0.00     0.019 A 
HETATM   13  C   UNL     1     -41.317 -49.018  11.215  1.00  0.00     0.035 A 
BRANCH   8  14
HETATM   14  O   UNL     1     -38.582 -51.192  12.229  1.00  0.00    -0.339 OA
HETATM   15  C   UNL     1     -38.270 -51.317  13.616  1.00  0.00     0.211 C 
ENDBRANCH   8  14
ENDBRANCH   1   7
BRANCH   4  16
HETATM   16  C   UNL     1     -42.927 -54.089  13.244  1.00  0.00     0.154 C 
BRANCH  16  17
HETATM   17  C   UNL     1     -44.463 -54.140  13.225  1.00  0.00     0.292 C 
BRANCH  17  18
HETATM   18  N   UNL     1     -44.967 -54.310  14.608  1.00  0.00     0.093 N 
HETATM   19  C   UNL     1     -46.415 -54.029  14.762  1.00  0.00     0.292 C 
HETATM   20  C   UNL     1     -46.758 -52.532  14.714  1.00  0.00     0.156 C 
HETATM   21  N   UNL     1     -46.048 -51.839  15.786  1.00  0.00    -0.349 N 
HETATM   22  C   UNL     1     -44.592 -52.033  15.733  1.00  0.00     0.156 C 
HETATM   23  C   UNL     1     -46.611 -51.223  16.885  1.00  0.00     0.215 C 
HETATM   24  C   UNL     1     -44.214 -53.531  15.617  1.00  0.00     0.292 C 
HETATM   25  O   UNL     1     -45.917 -50.745  17.787  1.00  0.00    -0.274 OA
HETATM   26  C   UNL     1     -48.115 -51.114  17.009  1.00  0.00     0.117 C 
ENDBRANCH  17  18
ENDBRANCH  16  17
ENDBRANCH   4  16
TORSDOF 5
ENDMDL
MODEL 9
REMARK VINA RESULT:      -5.9      2.395      8.112
REMARK  5 active torsions:
REMARK  status: ('A' for Active; 'I' for Inactive)
REMARK    1  A    between atoms: O_2  and  C_3 
REMARK    2  A    between atoms: C_9  and  N_10 
REMARK       I    between atoms: N_10  and  C_11 
REMARK       I    between atoms: C_11  and  N_13 
REMARK    3  A    between atoms: N_13  and  C_14 
REMARK    4  A    between atoms: C_14  and  C_15 
REMARK    5  A    between atoms: C_15  and  N_16 
REMARK       I    between atoms: N_19  and  C_22 
ROOT
HETATM    1  N   UNL     1     -41.992 -52.678  11.818  1.00  0.00    -0.305 N 
HETATM    2  C   UNL     1     -41.595 -51.389  12.055  1.00  0.00     0.320 C 
HETATM    3  O   UNL     1     -41.881 -50.740  13.061  1.00  0.00    -0.247 OA
HETATM    4  N   UNL     1     -40.842 -50.817  11.038  1.00  0.00    -0.341 N 
HETATM    5  H   UNL     1     -41.579 -53.188  11.050  1.00  0.00     0.171 HD
HETATM    6  H   UNL     1     -40.221 -51.434  10.537  1.00  0.00     0.164 HD
ENDROOT
BRANCH   1   7
HETATM    7  C   UNL     1     -42.848 -53.428  12.674  1.00  0.00     0.087 A 
HETATM    8  C   UNL     1     -42.318 -54.167  13.740  1.00  0.00     0.169 A 
HETATM    9  N   UNL     1     -43.059 -54.912  14.596  1.00  0.00    -0.345 N 
HETATM   10  C   UNL     1     -44.395 -54.919  14.404  1.00  0.00     0.090 A 
ATOM     11  HN  UNL     1     -42.626 -55.444  15.351  1.00  0.00     0.167 HD
HETATM   12  C   UNL     1     -45.024 -54.225  13.391  1.00  0.00     0.019 A 
HETATM   13  C   UNL     1     -44.236 -53.482  12.514  1.00  0.00     0.035 A 
BRANCH   8  14
HETATM   14  O   UNL     1     -40.946 -54.095  13.940  1.00  0.00    -0.339 OA
HETATM   15  C   UNL     1     -40.617 -53.518  15.203  1.00  0.00     0.211 C 
ENDBRANCH   8  14
ENDBRANCH   1   7
BRANCH   4  16
HETATM   16  C   UNL     1     -40.382 -49.475  11.355  1.00  0.00     0.154 C 
BRANCH  16  17
HETATM   17  C   UNL     1     -41.132 -48.263  10.779  1.00  0.00     0.292 C 
BRANCH  17  18
HETATM   18  N   UNL     1     -40.520 -47.016  11.294  1.00  0.00     0.093 N 
HETATM   19  C   UNL     1     -40.690 -46.819  12.754  1.00  0.00     0.292 C 
HETATM   20  C   UNL     1     -42.114 -46.406  13.157  1.00  0.00     0.156 C 
HETATM   21  N   UNL     1     -42.460 -45.154  12.490  1.00  0.00    -0.349 N 
HETATM   22  C   UNL     1     -42.342 -45.227  11.026  1.00  0.00     0.156 C 
HETATM   23  C   UNL     1     -42.682 -43.931  13.093  1.00  0.00     0.215 C 
HETATM   24  C   UNL     1     -40.970 -45.795  10.587  1.00  0.00     0.292 C 
HETATM   25  O   UNL     1     -42.877 -42.908  12.431  1.00  0.00    -0.274 OA
HETATM   26  C   UNL     1     -42.695 -43.819  14.601  1.00  0.00     0.117 C 
ENDBRANCH  17  18
ENDBRANCH  16  17
ENDBRANCH   4  16
TORSDOF 5
ENDMDL
