MODEL 1
REMARK VINA RESULT:      -6.3      0.000      0.000
REMARK  4 active torsions:
REMARK  status: ('A' for Active; 'I' for Inactive)
REMARK    1  A    between atoms: C_7  and  N_8 
REMARK       I    between atoms: N_8  and  C_9 
REMARK       I    between atoms: C_9  and  N_11 
REMARK    2  A    between atoms: N_11  and  C_12 
REMARK    3  A    between atoms: C_12  and  C_13 
REMARK    4  A    between atoms: C_13  and  O_14 
ROOT
HETATM    1  N   UNL     1     -42.695 -48.563  11.370  1.00  0.00    -0.288 N 
HETATM    2  C   UNL     1     -42.346 -49.483  12.318  1.00  0.00     0.322 C 
HETATM    3  O   UNL     1     -41.269 -49.535  12.899  1.00  0.00    -0.247 OA
HETATM    4  N   UNL     1     -43.324 -50.419  12.558  1.00  0.00    -0.340 N 
HETATM    5  H   UNL     1     -43.372 -48.795  10.664  1.00  0.00     0.172 HD
HETATM    6  H   UNL     1     -44.253 -50.310  12.183  1.00  0.00     0.164 HD
ENDROOT
BRANCH   1   7
HETATM    7  C   UNL     1     -41.828 -47.531  11.117  1.00  0.00     0.169 A 
HETATM    8  N   UNL     1     -40.668 -47.564  10.505  1.00  0.00    -0.279 N 
HETATM    9  N   UNL     1     -40.097 -46.315  10.404  1.00  0.00    -0.296 N 
ATOM     10  HN  UNL     1     -40.239 -48.418  10.146  1.00  0.00     0.189 HD
HETATM   11  C   UNL     1     -40.848 -45.386  10.952  1.00  0.00     0.066 A 
ATOM     12  HN  UNL     1     -39.199 -46.133   9.957  1.00  0.00     0.187 HD
HETATM   13  C   UNL     1     -40.506 -43.944  10.962  1.00  0.00     0.078 C 
HETATM   14  S   UNL     1     -42.295 -45.986  11.674  1.00  0.00    -0.038 SA
ENDBRANCH   1   7
BRANCH   4  15
HETATM   15  C   UNL     1     -43.025 -51.566  13.407  1.00  0.00     0.162 C 
BRANCH  15  16
HETATM   16  C   UNL     1     -42.998 -52.939  12.687  1.00  0.00     0.074 C 
HETATM   17  C   UNL     1     -44.365 -53.611  12.442  1.00  0.00     0.039 C 
HETATM   18  C   UNL     1     -45.011 -54.221  13.684  1.00  0.00     0.003 C 
HETATM   19  C   UNL     1     -44.056 -55.113  14.468  1.00  0.00     0.000 C 
HETATM   20  C   UNL     1     -42.735 -54.412  14.759  1.00  0.00     0.003 C 
HETATM   21  C   UNL     1     -42.087 -53.906  13.469  1.00  0.00     0.039 C 
BRANCH  16  22
HETATM   22  O   UNL     1     -42.386 -52.719  11.401  1.00  0.00    -0.388 OA
HETATM   23  H   UNL     1     -42.693 -51.850  11.091  1.00  0.00     0.210 HD
ENDBRANCH  16  22
ENDBRANCH  15  16
ENDBRANCH   4  15
TORSDOF 4
ENDMDL
MODEL 2
REMARK VINA RESULT:      -6.3      1.944      2.373
REMARK  4 active torsions:
REMARK  status: ('A' for Active; 'I' for Inactive)
REMARK    1  A    between atoms: C_7  and  N_8 
REMARK       I    between atoms: N_8  and  C_9 
REMARK       I    between atoms: C_9  and  N_11 
REMARK    2  A    between atoms: N_11  and  C_12 
REMARK    3  A    between atoms: C_12  and  C_13 
REMARK    4  A    between atoms: C_13  and  O_14 
ROOT
HETATM    1  N   UNL     1     -41.257 -50.526  11.602  1.00  0.00    -0.288 N 
HETATM    2  C   UNL     1     -42.287 -50.843  12.442  1.00  0.00     0.322 C 
HETATM    3  O   UNL     1     -43.058 -50.044  12.958  1.00  0.00    -0.247 OA
HETATM    4  N   UNL     1     -42.377 -52.188  12.714  1.00  0.00    -0.340 N 
HETATM    5  H   UNL     1     -40.448 -51.120  11.546  1.00  0.00     0.172 HD
HETATM    6  H   UNL     1     -41.833 -52.861  12.197  1.00  0.00     0.164 HD
ENDROOT
BRANCH   1   7
HETATM    7  C   UNL     1     -41.130 -49.223  11.194  1.00  0.00     0.169 A 
HETATM    8  N   UNL     1     -41.802 -48.583  10.268  1.00  0.00    -0.279 N 
HETATM    9  N   UNL     1     -41.419 -47.264  10.163  1.00  0.00    -0.296 N 
ATOM     10  HN  UNL     1     -42.526 -49.013   9.691  1.00  0.00     0.189 HD
HETATM   11  C   UNL     1     -40.463 -46.962  11.013  1.00  0.00     0.066 A 
ATOM     12  HN  UNL     1     -41.828 -46.601   9.505  1.00  0.00     0.187 HD
HETATM   13  C   UNL     1     -39.876 -45.608  11.153  1.00  0.00     0.078 C 
HETATM   14  S   UNL     1     -39.932 -48.291  11.977  1.00  0.00    -0.038 SA
ENDBRANCH   1   7
BRANCH   4  15
HETATM   15  C   UNL     1     -43.308 -52.652  13.734  1.00  0.00     0.162 C 
BRANCH  15  16
HETATM   16  C   UNL     1     -44.603 -53.319  13.200  1.00  0.00     0.074 C 
HETATM   17  C   UNL     1     -45.678 -52.370  12.632  1.00  0.00     0.039 C 
HETATM   18  C   UNL     1     -46.459 -51.583  13.683  1.00  0.00     0.003 C 
HETATM   19  C   UNL     1     -46.995 -52.467  14.802  1.00  0.00     0.000 C 
HETATM   20  C   UNL     1     -45.907 -53.352  15.398  1.00  0.00     0.003 C 
HETATM   21  C   UNL     1     -45.225 -54.187  14.313  1.00  0.00     0.039 C 
BRANCH  16  22
HETATM   22  O   UNL     1     -44.203 -54.207  12.138  1.00  0.00    -0.388 OA
HETATM   23  H   UNL     1     -44.627 -55.063  12.316  1.00  0.00     0.210 HD
ENDBRANCH  16  22
ENDBRANCH  15  16
ENDBRANCH   4  15
TORSDOF 4
ENDMDL
MODEL 3
REMARK VINA RESULT:      -6.2      3.249      4.001
REMARK  4 active torsions:
REMARK  status: ('A' for Active; 'I' for Inactive)
REMARK    1  A    between atoms: C_7  and  N_8 
REMARK       I    between atoms: N_8  and  C_9 
REMARK       I    between atoms: C_9  and  N_11 
REMARK    2  A    between atoms: N_11  and  C_12 
REMARK    3  A    between atoms: C_12  and  C_13 
REMARK    4  A    between atoms: C_13  and  O_14 
ROOT
HETATM    1  N   UNL     1     -41.601 -52.315  11.446  1.00  0.00    -0.288 N 
HETATM    2  C   UNL     1     -42.493 -52.352  12.480  1.00  0.00     0.322 C 
HETATM    3  O   UNL     1     -42.446 -51.659  13.488  1.00  0.00    -0.247 OA
HETATM    4  N   UNL     1     -43.476 -53.301  12.321  1.00  0.00    -0.340 N 
HETATM    5  H   UNL     1     -41.443 -53.132  10.883  1.00  0.00     0.172 HD
HETATM    6  H   UNL     1     -43.597 -53.783  11.443  1.00  0.00     0.164 HD
ENDROOT
BRANCH   1   7
HETATM    7  C   UNL     1     -40.631 -51.345  11.461  1.00  0.00     0.169 A 
HETATM    8  N   UNL     1     -40.437 -50.366  10.611  1.00  0.00    -0.279 N 
HETATM    9  N   UNL     1     -39.379 -49.563  10.975  1.00  0.00    -0.296 N 
ATOM     10  HN  UNL     1     -41.004 -50.216   9.776  1.00  0.00     0.189 HD
HETATM   11  C   UNL     1     -38.810 -49.975  12.086  1.00  0.00     0.066 A 
ATOM     12  HN  UNL     1     -39.073 -48.747  10.446  1.00  0.00     0.187 HD
HETATM   13  C   UNL     1     -37.669 -49.287  12.737  1.00  0.00     0.078 C 
HETATM   14  S   UNL     1     -39.506 -51.409  12.744  1.00  0.00    -0.038 SA
ENDBRANCH   1   7
BRANCH   4  15
HETATM   15  C   UNL     1     -44.387 -53.581  13.423  1.00  0.00     0.162 C 
BRANCH  15  16
HETATM   16  C   UNL     1     -45.768 -52.881  13.339  1.00  0.00     0.074 C 
HETATM   17  C   UNL     1     -45.783 -51.361  13.598  1.00  0.00     0.039 C 
HETATM   18  C   UNL     1     -45.614 -50.958  15.062  1.00  0.00     0.003 C 
HETATM   19  C   UNL     1     -46.551 -51.717  15.994  1.00  0.00     0.000 C 
HETATM   20  C   UNL     1     -46.478 -53.222  15.771  1.00  0.00     0.003 C 
HETATM   21  C   UNL     1     -46.749 -53.573  14.307  1.00  0.00     0.039 C 
BRANCH  16  22
HETATM   22  O   UNL     1     -46.261 -53.098  12.002  1.00  0.00    -0.388 OA
HETATM   23  H   UNL     1     -46.613 -54.005  11.979  1.00  0.00     0.210 HD
ENDBRANCH  16  22
ENDBRANCH  15  16
ENDBRANCH   4  15
TORSDOF 4
ENDMDL
MODEL 4
REMARK VINA RESULT:      -6.1      2.903      7.419
REMARK  4 active torsions:
REMARK  status: ('A' for Active; 'I' for Inactive)
REMARK    1  A    between atoms: C_7  and  N_8 
REMARK       I    between atoms: N_8  and  C_9 
REMARK       I    between atoms: C_9  and  N_11 
REMARK    2  A    between atoms: N_11  and  C_12 
REMARK    3  A    between atoms: C_12  and  C_13 
REMARK    4  A    between atoms: C_13  and  O_14 
ROOT
HETATM    1  N   UNL     1     -40.362 -50.380  11.079  1.00  0.00    -0.288 N 
HETATM    2  C   UNL     1     -41.220 -49.334  11.264  1.00  0.00     0.322 C 
HETATM    3  O   UNL     1     -42.279 -49.380  11.877  1.00  0.00    -0.247 OA
HETATM    4  N   UNL     1     -40.810 -48.174  10.648  1.00  0.00    -0.340 N 
HETATM    5  H   UNL     1     -39.764 -50.408  10.271  1.00  0.00     0.172 HD
HETATM    6  H   UNL     1     -39.885 -48.093  10.255  1.00  0.00     0.164 HD
ENDROOT
BRANCH   1   7
HETATM    7  C   UNL     1     -40.630 -51.561  11.723  1.00  0.00     0.169 A 
HETATM    8  N   UNL     1     -41.388 -52.557  11.331  1.00  0.00    -0.279 N 
HETATM    9  N   UNL     1     -41.385 -53.599  12.232  1.00  0.00    -0.296 N 
ATOM     10  HN  UNL     1     -41.919 -52.559  10.460  1.00  0.00     0.189 HD
HETATM   11  C   UNL     1     -40.628 -53.344  13.275  1.00  0.00     0.066 A 
ATOM     12  HN  UNL     1     -41.908 -54.465  12.104  1.00  0.00     0.187 HD
HETATM   13  C   UNL     1     -40.405 -54.295  14.390  1.00  0.00     0.078 C 
HETATM   14  S   UNL     1     -39.895 -51.782  13.249  1.00  0.00    -0.038 SA
ENDBRANCH   1   7
BRANCH   4  15
HETATM   15  C   UNL     1     -41.710 -47.029  10.606  1.00  0.00     0.162 C 
BRANCH  15  16
HETATM   16  C   UNL     1     -41.045 -45.650  10.856  1.00  0.00     0.074 C 
HETATM   17  C   UNL     1     -39.832 -45.637  11.808  1.00  0.00     0.039 C 
HETATM   18  C   UNL     1     -40.177 -45.794  13.288  1.00  0.00     0.003 C 
HETATM   19  C   UNL     1     -41.281 -44.845  13.739  1.00  0.00     0.000 C 
HETATM   20  C   UNL     1     -42.499 -44.917  12.826  1.00  0.00     0.003 C 
HETATM   21  C   UNL     1     -42.108 -44.658  11.370  1.00  0.00     0.039 C 
BRANCH  16  22
HETATM   22  O   UNL     1     -40.595 -45.169   9.574  1.00  0.00    -0.388 OA
HETATM   23  H   UNL     1     -41.171 -45.579   8.905  1.00  0.00     0.210 HD
ENDBRANCH  16  22
ENDBRANCH  15  16
ENDBRANCH   4  15
TORSDOF 4
ENDMDL
MODEL 5
REMARK VINA RESULT:      -6.0      1.896      2.249
REMARK  4 active torsions:
REMARK  status: ('A' for Active; 'I' for Inactive)
REMARK    1  A    between atoms: C_7  and  N_8 
REMARK       I    between atoms: N_8  and  C_9 
REMARK       I    between atoms: C_9  and  N_11 
REMARK    2  A    between atoms: N_11  and  C_12 
REMARK    3  A    between atoms: C_12  and  C_13 
REMARK    4  A    between atoms: C_13  and  O_14 
ROOT
HETATM    1  N   UNL     1     -41.697 -49.923  11.539  1.00  0.00    -0.288 N 
HETATM    2  C   UNL     1     -42.760 -50.051  12.388  1.00  0.00     0.322 C 
HETATM    3  O   UNL     1     -43.430 -49.129  12.835  1.00  0.00    -0.247 OA
HETATM    4  N   UNL     1     -43.011 -51.352  12.756  1.00  0.00    -0.340 N 
HETATM    5  H   UNL     1     -40.965 -50.611  11.536  1.00  0.00     0.172 HD
HETATM    6  H   UNL     1     -42.551 -52.122  12.296  1.00  0.00     0.164 HD
ENDROOT
BRANCH   1   7
HETATM    7  C   UNL     1     -41.413 -48.678  11.038  1.00  0.00     0.169 A 
HETATM    8  N   UNL     1     -41.971 -48.051  10.031  1.00  0.00    -0.279 N 
HETATM    9  N   UNL     1     -41.444 -46.792   9.845  1.00  0.00    -0.296 N 
ATOM     10  HN  UNL     1     -42.710 -48.450   9.451  1.00  0.00     0.189 HD
HETATM   11  C   UNL     1     -40.501 -46.521  10.719  1.00  0.00     0.066 A 
ATOM     12  HN  UNL     1     -41.750 -46.147   9.116  1.00  0.00     0.187 HD
HETATM   13  C   UNL     1     -39.779 -45.228  10.784  1.00  0.00     0.078 C 
HETATM   14  S   UNL     1     -40.158 -47.813  11.809  1.00  0.00    -0.038 SA
ENDBRANCH   1   7
BRANCH   4  15
HETATM   15  C   UNL     1     -43.995 -51.624  13.797  1.00  0.00     0.162 C 
BRANCH  15  16
HETATM   16  C   UNL     1     -45.402 -52.037  13.292  1.00  0.00     0.074 C 
HETATM   17  C   UNL     1     -46.545 -51.980  14.326  1.00  0.00     0.039 C 
HETATM   18  C   UNL     1     -46.532 -53.105  15.359  1.00  0.00     0.003 C 
HETATM   19  C   UNL     1     -46.388 -54.484  14.726  1.00  0.00     0.000 C 
HETATM   20  C   UNL     1     -45.214 -54.544  13.756  1.00  0.00     0.003 C 
HETATM   21  C   UNL     1     -45.330 -53.455  12.689  1.00  0.00     0.039 C 
BRANCH  16  22
HETATM   22  O   UNL     1     -45.739 -51.133  12.222  1.00  0.00    -0.388 OA
HETATM   23  H   UNL     1     -45.185 -51.381  11.462  1.00  0.00     0.210 HD
ENDBRANCH  16  22
ENDBRANCH  15  16
ENDBRANCH   4  15
TORSDOF 4
ENDMDL
MODEL 6
REMARK VINA RESULT:      -5.8      1.650      2.118
REMARK  4 active torsions:
REMARK  status: ('A' for Active; 'I' for Inactive)
REMARK    1  A    between atoms: C_7  and  N_8 
REMARK       I    between atoms: N_8  and  C_9 
REMARK       I    between atoms: C_9  and  N_11 
REMARK    2  A    between atoms: N_11  and  C_12 
REMARK    3  A    between atoms: C_12  and  C_13 
REMARK    4  A    between atoms: C_13  and  O_14 
ROOT
HETATM    1  N   UNL     1     -41.544 -48.936  10.762  1.00  0.00    -0.288 N 
HETATM    2  C   UNL     1     -41.620 -49.637  11.932  1.00  0.00     0.322 C 
HETATM    3  O   UNL     1     -41.322 -49.209  13.040  1.00  0.00    -0.247 OA
HETATM    4  N   UNL     1     -42.036 -50.937  11.766  1.00  0.00    -0.340 N 
HETATM    5  H   UNL     1     -41.399 -49.417   9.892  1.00  0.00     0.172 HD
HETATM    6  H   UNL     1     -42.404 -51.257  10.883  1.00  0.00     0.164 HD
ENDROOT
BRANCH   1   7
HETATM    7  C   UNL     1     -41.225 -47.604  10.823  1.00  0.00     0.169 A 
HETATM    8  N   UNL     1     -40.049 -47.035  10.701  1.00  0.00    -0.279 N 
HETATM    9  N   UNL     1     -40.124 -45.662  10.782  1.00  0.00    -0.296 N 
ATOM     10  HN  UNL     1     -39.180 -47.551  10.562  1.00  0.00     0.189 HD
HETATM   11  C   UNL     1     -41.357 -45.248  10.971  1.00  0.00     0.066 A 
ATOM     12  HN  UNL     1     -39.319 -45.041  10.705  1.00  0.00     0.187 HD
HETATM   13  C   UNL     1     -41.747 -43.821  11.061  1.00  0.00     0.078 C 
HETATM   14  S   UNL     1     -42.515 -46.520  11.107  1.00  0.00    -0.038 SA
ENDBRANCH   1   7
BRANCH   4  15
HETATM   15  C   UNL     1     -41.989 -51.856  12.896  1.00  0.00     0.162 C 
BRANCH  15  16
HETATM   16  C   UNL     1     -40.923 -52.978  12.798  1.00  0.00     0.074 C 
HETATM   17  C   UNL     1     -41.347 -54.371  13.307  1.00  0.00     0.039 C 
HETATM   18  C   UNL     1     -41.418 -54.505  14.827  1.00  0.00     0.003 C 
HETATM   19  C   UNL     1     -40.165 -53.987  15.522  1.00  0.00     0.000 C 
HETATM   20  C   UNL     1     -39.795 -52.584  15.057  1.00  0.00     0.003 C 
HETATM   21  C   UNL     1     -39.645 -52.533  13.536  1.00  0.00     0.039 C 
BRANCH  16  22
HETATM   22  O   UNL     1     -40.589 -53.110  11.403  1.00  0.00    -0.388 OA
HETATM   23  H   UNL     1     -40.064 -52.326  11.167  1.00  0.00     0.210 HD
ENDBRANCH  16  22
ENDBRANCH  15  16
ENDBRANCH   4  15
TORSDOF 4
ENDMDL
MODEL 7
REMARK VINA RESULT:      -5.7      2.755      7.304
REMARK  4 active torsions:
REMARK  status: ('A' for Active; 'I' for Inactive)
REMARK    1  A    between atoms: C_7  and  N_8 
REMARK       I    between atoms: N_8  and  C_9 
REMARK       I    between atoms: C_9  and  N_11 
REMARK    2  A    between atoms: N_11  and  C_12 
REMARK    3  A    between atoms: C_12  and  C_13 
REMARK    4  A    between atoms: C_13  and  O_14 
ROOT
HETATM    1  N   UNL     1     -42.283 -52.151  11.763  1.00  0.00    -0.288 N 
HETATM    2  C   UNL     1     -41.859 -50.939  12.230  1.00  0.00     0.322 C 
HETATM    3  O   UNL     1     -42.044 -50.507  13.361  1.00  0.00    -0.247 OA
HETATM    4  N   UNL     1     -41.211 -50.183  11.282  1.00  0.00    -0.340 N 
HETATM    5  H   UNL     1     -42.471 -52.279  10.784  1.00  0.00     0.172 HD
HETATM    6  H   UNL     1     -40.942 -50.580  10.394  1.00  0.00     0.164 HD
ENDROOT
BRANCH   1   7
HETATM    7  C   UNL     1     -42.863 -53.022  12.650  1.00  0.00     0.169 A 
HETATM    8  N   UNL     1     -42.299 -53.708  13.615  1.00  0.00    -0.279 N 
HETATM    9  N   UNL     1     -43.213 -54.453  14.326  1.00  0.00    -0.296 N 
ATOM     10  HN  UNL     1     -41.299 -53.691  13.815  1.00  0.00     0.189 HD
HETATM   11  C   UNL     1     -44.434 -54.305  13.863  1.00  0.00     0.066 A 
ATOM     12  HN  UNL     1     -42.972 -55.049  15.117  1.00  0.00     0.187 HD
HETATM   13  C   UNL     1     -45.628 -54.957  14.451  1.00  0.00     0.078 C 
HETATM   14  S   UNL     1     -44.545 -53.271  12.487  1.00  0.00    -0.038 SA
ENDBRANCH   1   7
BRANCH   4  15
HETATM   15  C   UNL     1     -40.865 -48.799  11.582  1.00  0.00     0.162 C 
BRANCH  15  16
HETATM   16  C   UNL     1     -41.693 -47.728  10.826  1.00  0.00     0.074 C 
HETATM   17  C   UNL     1     -41.027 -46.348  10.648  1.00  0.00     0.039 C 
HETATM   18  C   UNL     1     -40.980 -45.490  11.911  1.00  0.00     0.003 C 
HETATM   19  C   UNL     1     -42.330 -45.399  12.612  1.00  0.00     0.000 C 
HETATM   20  C   UNL     1     -42.945 -46.774  12.839  1.00  0.00     0.003 C 
HETATM   21  C   UNL     1     -43.055 -47.550  11.526  1.00  0.00     0.039 C 
BRANCH  16  22
HETATM   22  O   UNL     1     -41.953 -48.257   9.511  1.00  0.00    -0.388 OA
HETATM   23  H   UNL     1     -42.397 -49.113   9.638  1.00  0.00     0.210 HD
ENDBRANCH  16  22
ENDBRANCH  15  16
ENDBRANCH   4  15
TORSDOF 4
ENDMDL
MODEL 8
REMARK VINA RESULT:      -5.6      1.797      2.627
REMARK  4 active torsions:
REMARK  status: ('A' for Active; 'I' for Inactive)
REMARK    1  A    between atoms: C_7  and  N_8 
REMARK       I    between atoms: N_8  and  C_9 
REMARK       I    between atoms: C_9  and  N_11 
REMARK    2  A    between atoms: N_11  and  C_12 
REMARK    3  A    between atoms: C_12  and  C_13 
REMARK    4  A    between atoms: C_13  and  O_14 
ROOT
HETATM    1  N   UNL     1     -41.217 -47.650  10.495  1.00  0.00    -0.288 N 
HETATM    2  C   UNL     1     -40.585 -48.585  11.265  1.00  0.00     0.322 C 
HETATM    3  O   UNL     1     -39.591 -48.388  11.954  1.00  0.00    -0.247 OA
HETATM    4  N   UNL     1     -41.146 -49.837  11.176  1.00  0.00    -0.340 N 
HETATM    5  H   UNL     1     -41.728 -47.930   9.676  1.00  0.00     0.172 HD
HETATM    6  H   UNL     1     -42.033 -49.979  10.717  1.00  0.00     0.164 HD
ENDROOT
BRANCH   1   7
HETATM    7  C   UNL     1     -40.793 -46.348  10.576  1.00  0.00     0.169 A 
HETATM    8  N   UNL     1     -39.697 -45.810  10.098  1.00  0.00    -0.279 N 
HETATM    9  N   UNL     1     -39.631 -44.457  10.345  1.00  0.00    -0.296 N 
ATOM     10  HN  UNL     1     -38.976 -46.334   9.601  1.00  0.00     0.189 HD
HETATM   11  C   UNL     1     -40.681 -44.027  11.009  1.00  0.00     0.066 A 
ATOM     12  HN  UNL     1     -38.860 -43.859  10.049  1.00  0.00     0.187 HD
HETATM   13  C   UNL     1     -40.901 -42.610  11.384  1.00  0.00     0.078 C 
HETATM   14  S   UNL     1     -41.810 -45.265  11.419  1.00  0.00    -0.038 SA
ENDBRANCH   1   7
BRANCH   4  15
HETATM   15  C   UNL     1     -40.471 -50.971  11.796  1.00  0.00     0.162 C 
BRANCH  15  16
HETATM   16  C   UNL     1     -40.985 -51.361  13.206  1.00  0.00     0.074 C 
HETATM   17  C   UNL     1     -40.404 -52.654  13.814  1.00  0.00     0.039 C 
HETATM   18  C   UNL     1     -40.943 -53.947  13.206  1.00  0.00     0.003 C 
HETATM   19  C   UNL     1     -42.465 -53.973  13.131  1.00  0.00     0.000 C 
HETATM   20  C   UNL     1     -43.022 -52.718  12.469  1.00  0.00     0.003 C 
HETATM   21  C   UNL     1     -42.524 -51.458  13.179  1.00  0.00     0.039 C 
BRANCH  16  22
HETATM   22  O   UNL     1     -40.640 -50.275  14.088  1.00  0.00    -0.388 OA
HETATM   23  H   UNL     1     -41.296 -50.279  14.806  1.00  0.00     0.210 HD
ENDBRANCH  16  22
ENDBRANCH  15  16
ENDBRANCH   4  15
TORSDOF 4
ENDMDL
MODEL 9
REMARK VINA RESULT:      -5.2      3.834      7.521
REMARK  4 active torsions:
REMARK  status: ('A' for Active; 'I' for Inactive)
REMARK    1  A    between atoms: C_7  and  N_8 
REMARK       I    between atoms: N_8  and  C_9 
REMARK       I    between atoms: C_9  and  N_11 
REMARK    2  A    between atoms: N_11  and  C_12 
REMARK    3  A    between atoms: C_12  and  C_13 
REMARK    4  A    between atoms: C_13  and  O_14 
ROOT
HETATM    1  N   UNL     1     -39.964 -51.639  14.517  1.00  0.00    -0.288 N 
HETATM    2  C   UNL     1     -40.755 -51.398  13.430  1.00  0.00     0.322 C 
HETATM    3  O   UNL     1     -41.024 -52.206  12.550  1.00  0.00    -0.247 OA
HETATM    4  N   UNL     1     -41.220 -50.105  13.367  1.00  0.00    -0.340 N 
HETATM    5  H   UNL     1     -39.459 -50.887  14.953  1.00  0.00     0.172 HD
HETATM    6  H   UNL     1     -41.111 -49.474  14.147  1.00  0.00     0.164 HD
ENDROOT
BRANCH   1   7
HETATM    7  C   UNL     1     -39.520 -52.920  14.725  1.00  0.00     0.169 A 
HETATM    8  N   UNL     1     -39.111 -53.800  13.843  1.00  0.00    -0.279 N 
HETATM    9  N   UNL     1     -38.701 -54.976  14.432  1.00  0.00    -0.296 N 
ATOM     10  HN  UNL     1     -39.098 -53.633  12.836  1.00  0.00     0.189 HD
HETATM   11  C   UNL     1     -38.825 -54.938  15.740  1.00  0.00     0.066 A 
ATOM     12  HN  UNL     1     -38.344 -55.779  13.915  1.00  0.00     0.187 HD
HETATM   13  C   UNL     1     -38.429 -56.047  16.642  1.00  0.00     0.078 C 
HETATM   14  S   UNL     1     -39.497 -53.468  16.342  1.00  0.00    -0.038 SA
ENDBRANCH   1   7
BRANCH   4  15
HETATM   15  C   UNL     1     -41.922 -49.653  12.173  1.00  0.00     0.162 C 
BRANCH  15  16
HETATM   16  C   UNL     1     -41.039 -48.955  11.105  1.00  0.00     0.074 C 
HETATM   17  C   UNL     1     -39.862 -48.111  11.636  1.00  0.00     0.039 C 
HETATM   18  C   UNL     1     -40.259 -46.772  12.253  1.00  0.00     0.003 C 
HETATM   19  C   UNL     1     -41.197 -45.967  11.360  1.00  0.00     0.000 C 
HETATM   20  C   UNL     1     -42.389 -46.795  10.897  1.00  0.00     0.003 C 
HETATM   21  C   UNL     1     -41.929 -48.077  10.203  1.00  0.00     0.039 C 
BRANCH  16  22
HETATM   22  O   UNL     1     -40.487 -49.998  10.279  1.00  0.00    -0.388 OA
HETATM   23  H   UNL     1     -41.213 -50.617  10.090  1.00  0.00     0.210 HD
ENDBRANCH  16  22
ENDBRANCH  15  16
ENDBRANCH   4  15
TORSDOF 4
ENDMDL
